MODEL 1
REMARK VINA RESULT:      -8.0      0.000      0.000
REMARK  Name = 
REMARK  6 active torsions:
REMARK  status: ('A' for Active; 'I' for Inactive)
REMARK    1  A    between atoms: C_4  and  O_5
REMARK    2  A    between atoms: C_8  and  C_9
REMARK    3  A    between atoms: C_12  and  O_13
REMARK    4  A    between atoms: O_13  and  C_14
REMARK    5  A    between atoms: C_14  and  C_15
REMARK    6  A    between atoms: C_15  and  C_16
REMARK                            x       y       z     vdW  Elec       q    Type
REMARK                         _______ _______ _______ _____ _____    ______ ____
ROOT
ATOM      1  C   UNL     1       4.187   5.052  17.540  0.00  0.00    +0.000 A 
ATOM      2  C   UNL     1       5.460   4.480  17.481  0.00  0.00    +0.000 A 
ATOM      3  C   UNL     1       6.558   5.282  17.284  0.00  0.00    +0.000 A 
ATOM      4  C   UNL     1       6.459   6.664  17.124  0.00  0.00    +0.000 A 
ATOM      5  C   UNL     1       5.185   7.259  17.234  0.00  0.00    +0.000 A 
ATOM      6  C   UNL     1       4.066   6.442  17.458  0.00  0.00    +0.000 A 
ENDROOT
BRANCH   1  13
ATOM      7  O   UNL     1       0.720   2.414  18.066  0.00  0.00    +0.000 OA
ATOM      8  C   UNL     1       1.347   2.909  19.017  0.00  0.00    +0.000 C 
ATOM      9  N   UNL     1       1.214   2.529  20.330  0.00  0.00    +0.000 NA
ATOM     10  C   UNL     1       1.921   3.287  21.098  0.00  0.00    +0.000 C 
ATOM     11  S   UNL     1       2.816   4.581  20.394  0.00  0.00    +0.000 S 
ATOM     12  C   UNL     1       2.401   3.952  18.846  0.00  0.00    +0.000 C 
ATOM     13  C   UNL     1       3.004   4.209  17.679  0.00  0.00    +0.000 C 
BRANCH  10  14
ATOM     14  O   UNL     1       2.001   3.034  22.409  0.00  0.00    +0.000 OA
ATOM     15  H   UNL     1       2.233   3.862  22.863  0.00  0.00    +0.000 HD
ENDBRANCH  10  14
ENDBRANCH   1  13
BRANCH   4  16
ATOM     16  O   UNL     1       7.584   7.423  16.855  0.00  0.00    +0.000 OA
BRANCH  16  17
ATOM     17  C   UNL     1       8.144   8.000  18.061  0.00  0.00    +0.000 C 
BRANCH  17  18
ATOM     18  C   UNL     1       8.204   9.517  18.020  0.00  0.00    +0.000 C 
BRANCH  18  19
ATOM     19  C   UNL     1       9.492  10.088  18.643  0.00  0.00    +0.000 C 
ATOM     20  C   UNL     1      10.140  11.269  17.917  0.00  0.00    +0.000 C 
ATOM     21  C   UNL     1      11.075  11.884  18.951  0.00  0.00    +0.000 C 
ATOM     22  C   UNL     1      10.425  11.605  20.304  0.00  0.00    +0.000 C 
ATOM     23  C   UNL     1       9.255  10.657  20.041  0.00  0.00    +0.000 C 
ENDBRANCH  18  19
ENDBRANCH  17  18
ENDBRANCH  16  17
ENDBRANCH   4  16
TORSDOF 6
ENDMDL
MODEL 2
REMARK VINA RESULT:      -7.9      0.526      1.423
REMARK  Name = 
REMARK  6 active torsions:
REMARK  status: ('A' for Active; 'I' for Inactive)
REMARK    1  A    between atoms: C_4  and  O_5
REMARK    2  A    between atoms: C_8  and  C_9
REMARK    3  A    between atoms: C_12  and  O_13
REMARK    4  A    between atoms: O_13  and  C_14
REMARK    5  A    between atoms: C_14  and  C_15
REMARK    6  A    between atoms: C_15  and  C_16
REMARK                            x       y       z     vdW  Elec       q    Type
REMARK                         _______ _______ _______ _____ _____    ______ ____
ROOT
ATOM      1  C   UNL     1       4.439   4.824  17.317  0.00  0.00    +0.000 A 
ATOM      2  C   UNL     1       4.355   6.187  17.020  0.00  0.00    +0.000 A 
ATOM      3  C   UNL     1       5.506   6.924  16.879  0.00  0.00    +0.000 A 
ATOM      4  C   UNL     1       6.777   6.371  17.033  0.00  0.00    +0.000 A 
ATOM      5  C   UNL     1       6.875   4.985  17.281  0.00  0.00    +0.000 A 
ATOM      6  C   UNL     1       5.700   4.228  17.403  0.00  0.00    +0.000 A 
ENDROOT
BRANCH   1  13
ATOM      7  O   UNL     1       0.888   2.367  18.095  0.00  0.00    +0.000 OA
ATOM      8  C   UNL     1       1.568   2.883  18.997  0.00  0.00    +0.000 C 
ATOM      9  N   UNL     1       1.465   2.577  20.332  0.00  0.00    +0.000 NA
ATOM     10  C   UNL     1       2.229   3.341  21.036  0.00  0.00    +0.000 C 
ATOM     11  S   UNL     1       3.150   4.559  20.236  0.00  0.00    +0.000 S 
ATOM     12  C   UNL     1       2.657   3.870  18.736  0.00  0.00    +0.000 C 
ATOM     13  C   UNL     1       3.228   4.041  17.539  0.00  0.00    +0.000 C 
BRANCH  10  14
ATOM     14  O   UNL     1       2.344   3.153  22.354  0.00  0.00    +0.000 OA
ATOM     15  H   UNL     1       1.510   3.425  22.773  0.00  0.00    +0.000 HD
ENDBRANCH  10  14
ENDBRANCH   1  13
BRANCH   4  16
ATOM     16  O   UNL     1       7.905   7.167  16.954  0.00  0.00    +0.000 OA
BRANCH  16  17
ATOM     17  C   UNL     1       7.693   8.461  17.572  0.00  0.00    +0.000 C 
BRANCH  17  18
ATOM     18  C   UNL     1       8.733   8.792  18.628  0.00  0.00    +0.000 C 
BRANCH  18  19
ATOM     19  C   UNL     1       8.920  10.306  18.840  0.00  0.00    +0.000 C 
ATOM     20  C   UNL     1       9.423  10.748  20.216  0.00  0.00    +0.000 C 
ATOM     21  C   UNL     1       9.927  12.170  19.998  0.00  0.00    +0.000 C 
ATOM     22  C   UNL     1      10.407  12.212  18.549  0.00  0.00    +0.000 C 
ATOM     23  C   UNL     1       9.975  10.895  17.906  0.00  0.00    +0.000 C 
ENDBRANCH  18  19
ENDBRANCH  17  18
ENDBRANCH  16  17
ENDBRANCH   4  16
TORSDOF 6
ENDMDL
MODEL 3
REMARK VINA RESULT:      -7.7      1.491      2.182
REMARK  Name = 
REMARK  6 active torsions:
REMARK  status: ('A' for Active; 'I' for Inactive)
REMARK    1  A    between atoms: C_4  and  O_5
REMARK    2  A    between atoms: C_8  and  C_9
REMARK    3  A    between atoms: C_12  and  O_13
REMARK    4  A    between atoms: O_13  and  C_14
REMARK    5  A    between atoms: C_14  and  C_15
REMARK    6  A    between atoms: C_15  and  C_16
REMARK                            x       y       z     vdW  Elec       q    Type
REMARK                         _______ _______ _______ _____ _____    ______ ____
ROOT
ATOM      1  C   UNL     1       5.627   5.259  17.533  0.00  0.00    +0.000 A 
ATOM      2  C   UNL     1       5.717   6.522  16.942  0.00  0.00    +0.000 A 
ATOM      3  C   UNL     1       6.743   7.366  17.292  0.00  0.00    +0.000 A 
ATOM      4  C   UNL     1       7.710   7.021  18.236  0.00  0.00    +0.000 A 
ATOM      5  C   UNL     1       7.661   5.729  18.801  0.00  0.00    +0.000 A 
ATOM      6  C   UNL     1       6.626   4.859  18.426  0.00  0.00    +0.000 A 
ENDROOT
BRANCH   1  13
ATOM      7  O   UNL     1       2.262   2.548  16.774  0.00  0.00    +0.000 OA
ATOM      8  C   UNL     1       2.286   3.353  17.720  0.00  0.00    +0.000 C 
ATOM      9  N   UNL     1       1.410   3.349  18.777  0.00  0.00    +0.000 NA
ATOM     10  C   UNL     1       1.623   4.359  19.550  0.00  0.00    +0.000 C 
ATOM     11  S   UNL     1       2.860   5.483  19.127  0.00  0.00    +0.000 S 
ATOM     12  C   UNL     1       3.336   4.404  17.872  0.00  0.00    +0.000 C 
ATOM     13  C   UNL     1       4.507   4.377  17.226  0.00  0.00    +0.000 C 
BRANCH  10  14
ATOM     14  O   UNL     1       0.934   4.498  20.688  0.00  0.00    +0.000 OA
ATOM     15  H   UNL     1       0.137   3.945  20.628  0.00  0.00    +0.000 HD
ENDBRANCH  10  14
ENDBRANCH   1  13
BRANCH   4  16
ATOM     16  O   UNL     1       8.683   7.931  18.610  0.00  0.00    +0.000 OA
BRANCH  16  17
ATOM     17  C   UNL     1       8.367   9.271  18.158  0.00  0.00    +0.000 C 
BRANCH  17  18
ATOM     18  C   UNL     1       9.147  10.345  18.895  0.00  0.00    +0.000 C 
BRANCH  18  19
ATOM     19  C   UNL     1       9.498  11.555  18.007  0.00  0.00    +0.000 C 
ATOM     20  C   UNL     1       9.141  12.937  18.559  0.00  0.00    +0.000 C 
ATOM     21  C   UNL     1       9.975  13.905  17.728  0.00  0.00    +0.000 C 
ATOM     22  C   UNL     1      11.233  13.130  17.343  0.00  0.00    +0.000 C 
ATOM     23  C   UNL     1      11.002  11.680  17.769  0.00  0.00    +0.000 C 
ENDBRANCH  18  19
ENDBRANCH  17  18
ENDBRANCH  16  17
ENDBRANCH   4  16
TORSDOF 6
ENDMDL
MODEL 4
REMARK VINA RESULT:      -7.6      1.111      1.426
REMARK  Name = 
REMARK  6 active torsions:
REMARK  status: ('A' for Active; 'I' for Inactive)
REMARK    1  A    between atoms: C_4  and  O_5
REMARK    2  A    between atoms: C_8  and  C_9
REMARK    3  A    between atoms: C_12  and  O_13
REMARK    4  A    between atoms: O_13  and  C_14
REMARK    5  A    between atoms: C_14  and  C_15
REMARK    6  A    between atoms: C_15  and  C_16
REMARK                            x       y       z     vdW  Elec       q    Type
REMARK                         _______ _______ _______ _____ _____    ______ ____
ROOT
ATOM      1  C   UNL     1       5.246   5.060  17.842  0.00  0.00    +0.000 A 
ATOM      2  C   UNL     1       6.411   4.708  18.527  0.00  0.00    +0.000 A 
ATOM      3  C   UNL     1       7.443   5.611  18.623  0.00  0.00    +0.000 A 
ATOM      4  C   UNL     1       7.387   6.880  18.048  0.00  0.00    +0.000 A 
ATOM      5  C   UNL     1       6.196   7.266  17.398  0.00  0.00    +0.000 A 
ATOM      6  C   UNL     1       5.133   6.352  17.320  0.00  0.00    +0.000 A 
ENDROOT
BRANCH   1  13
ATOM      7  O   UNL     1       2.068   2.059  17.462  0.00  0.00    +0.000 OA
ATOM      8  C   UNL     1       2.323   2.647  18.526  0.00  0.00    +0.000 C 
ATOM      9  N   UNL     1       1.835   2.289  19.759  0.00  0.00    +0.000 NA
ATOM     10  C   UNL     1       2.195   3.142  20.657  0.00  0.00    +0.000 C 
ATOM     11  S   UNL     1       3.126   4.512  20.177  0.00  0.00    +0.000 S 
ATOM     12  C   UNL     1       3.268   3.799  18.616  0.00  0.00    +0.000 C 
ATOM     13  C   UNL     1       4.168   4.092  17.670  0.00  0.00    +0.000 C 
BRANCH  10  14
ATOM     14  O   UNL     1       1.897   2.936  21.944  0.00  0.00    +0.000 OA
ATOM     15  H   UNL     1       1.566   2.026  22.036  0.00  0.00    +0.000 HD
ENDBRANCH  10  14
ENDBRANCH   1  13
BRANCH   4  16
ATOM     16  O   UNL     1       8.479   7.727  18.107  0.00  0.00    +0.000 OA
BRANCH  16  17
ATOM     17  C   UNL     1       8.088   9.116  17.968  0.00  0.00    +0.000 C 
BRANCH  17  18
ATOM     18  C   UNL     1       8.922  10.055  18.822  0.00  0.00    +0.000 C 
BRANCH  18  19
ATOM     19  C   UNL     1       9.753  11.052  17.992  0.00  0.00    +0.000 C 
ATOM     20  C   UNL     1       9.156  12.447  17.797  0.00  0.00    +0.000 C 
ATOM     21  C   UNL     1      10.336  13.308  17.360  0.00  0.00    +0.000 C 
ATOM     22  C   UNL     1      11.561  12.683  18.022  0.00  0.00    +0.000 C 
ATOM     23  C   UNL     1      11.100  11.364  18.642  0.00  0.00    +0.000 C 
ENDBRANCH  18  19
ENDBRANCH  17  18
ENDBRANCH  16  17
ENDBRANCH   4  16
TORSDOF 6
ENDMDL
MODEL 5
REMARK VINA RESULT:      -7.5      4.085      6.446
REMARK  Name = 
REMARK  6 active torsions:
REMARK  status: ('A' for Active; 'I' for Inactive)
REMARK    1  A    between atoms: C_4  and  O_5
REMARK    2  A    between atoms: C_8  and  C_9
REMARK    3  A    between atoms: C_12  and  O_13
REMARK    4  A    between atoms: O_13  and  C_14
REMARK    5  A    between atoms: C_14  and  C_15
REMARK    6  A    between atoms: C_15  and  C_16
REMARK                            x       y       z     vdW  Elec       q    Type
REMARK                         _______ _______ _______ _____ _____    ______ ____
ROOT
ATOM      1  C   UNL     1       4.941   5.241  17.928  0.00  0.00    +0.000 A 
ATOM      2  C   UNL     1       6.202   4.707  18.204  0.00  0.00    +0.000 A 
ATOM      3  C   UNL     1       7.126   4.589  17.194  0.00  0.00    +0.000 A 
ATOM      4  C   UNL     1       6.857   4.971  15.880  0.00  0.00    +0.000 A 
ATOM      5  C   UNL     1       5.606   5.560  15.600  0.00  0.00    +0.000 A 
ATOM      6  C   UNL     1       4.670   5.701  16.636  0.00  0.00    +0.000 A 
ENDROOT
BRANCH   1  13
ATOM      7  O   UNL     1       1.758   5.438  20.941  0.00  0.00    +0.000 OA
ATOM      8  C   UNL     1       1.818   4.551  20.074  0.00  0.00    +0.000 C 
ATOM      9  N   UNL     1       0.807   3.670  19.779  0.00  0.00    +0.000 NA
ATOM     10  C   UNL     1       1.195   2.806  18.904  0.00  0.00    +0.000 C 
ATOM     11  S   UNL     1       2.819   2.877  18.329  0.00  0.00    +0.000 S 
ATOM     12  C   UNL     1       2.994   4.369  19.172  0.00  0.00    +0.000 C 
ATOM     13  C   UNL     1       3.923   5.310  18.971  0.00  0.00    +0.000 C 
BRANCH  10  14
ATOM     14  O   UNL     1       0.335   1.907  18.413  0.00  0.00    +0.000 OA
ATOM     15  H   UNL     1      -0.453   1.900  18.981  0.00  0.00    +0.000 HD
ENDBRANCH  10  14
ENDBRANCH   1  13
BRANCH   4  16
ATOM     16  O   UNL     1       7.793   4.766  14.882  0.00  0.00    +0.000 OA
BRANCH  16  17
ATOM     17  C   UNL     1       7.480   5.524  13.688  0.00  0.00    +0.000 C 
BRANCH  17  18
ATOM     18  C   UNL     1       7.560   4.693  12.420  0.00  0.00    +0.000 C 
BRANCH  18  19
ATOM     19  C   UNL     1       6.542   3.537  12.388  0.00  0.00    +0.000 C 
ATOM     20  C   UNL     1       5.159   3.856  11.816  0.00  0.00    +0.000 C 
ATOM     21  C   UNL     1       4.555   2.493  11.500  0.00  0.00    +0.000 C 
ATOM     22  C   UNL     1       5.740   1.593  11.161  0.00  0.00    +0.000 C 
ATOM     23  C   UNL     1       7.003   2.385  11.497  0.00  0.00    +0.000 C 
ENDBRANCH  18  19
ENDBRANCH  17  18
ENDBRANCH  16  17
ENDBRANCH   4  16
TORSDOF 6
ENDMDL
MODEL 6
REMARK VINA RESULT:      -7.5      1.356      2.200
REMARK  Name = 
REMARK  6 active torsions:
REMARK  status: ('A' for Active; 'I' for Inactive)
REMARK    1  A    between atoms: C_4  and  O_5
REMARK    2  A    between atoms: C_8  and  C_9
REMARK    3  A    between atoms: C_12  and  O_13
REMARK    4  A    between atoms: O_13  and  C_14
REMARK    5  A    between atoms: C_14  and  C_15
REMARK    6  A    between atoms: C_15  and  C_16
REMARK                            x       y       z     vdW  Elec       q    Type
REMARK                         _______ _______ _______ _____ _____    ______ ____
ROOT
ATOM      1  C   UNL     1       5.705   5.692  17.578  0.00  0.00    +0.000 A 
ATOM      2  C   UNL     1       5.908   6.960  17.027  0.00  0.00    +0.000 A 
ATOM      3  C   UNL     1       6.987   7.710  17.427  0.00  0.00    +0.000 A 
ATOM      4  C   UNL     1       7.899   7.265  18.383  0.00  0.00    +0.000 A 
ATOM      5  C   UNL     1       7.735   5.966  18.908  0.00  0.00    +0.000 A 
ATOM      6  C   UNL     1       6.645   5.190  18.482  0.00  0.00    +0.000 A 
ENDROOT
BRANCH   1  13
ATOM      7  O   UNL     1       2.183   3.248  16.641  0.00  0.00    +0.000 OA
ATOM      8  C   UNL     1       2.327   3.847  17.719  0.00  0.00    +0.000 C 
ATOM      9  N   UNL     1       1.555   3.649  18.838  0.00  0.00    +0.000 NA
ATOM     10  C   UNL     1       1.879   4.481  19.769  0.00  0.00    +0.000 C 
ATOM     11  S   UNL     1       3.111   5.644  19.453  0.00  0.00    +0.000 S 
ATOM     12  C   UNL     1       3.425   4.827  17.970  0.00  0.00    +0.000 C 
ATOM     13  C   UNL     1       4.528   4.909  17.217  0.00  0.00    +0.000 C 
BRANCH  10  14
ATOM     14  O   UNL     1       1.305   4.403  20.975  0.00  0.00    +0.000 OA
ATOM     15  H   UNL     1       0.947   3.506  21.082  0.00  0.00    +0.000 HD
ENDBRANCH  10  14
ENDBRANCH   1  13
BRANCH   4  16
ATOM     16  O   UNL     1       8.929   8.085  18.809  0.00  0.00    +0.000 OA
BRANCH  16  17
ATOM     17  C   UNL     1       8.656   9.480  18.526  0.00  0.00    +0.000 C 
BRANCH  17  18
ATOM     18  C   UNL     1       9.072  10.407  19.655  0.00  0.00    +0.000 C 
BRANCH  18  19
ATOM     19  C   UNL     1       9.965  11.571  19.184  0.00  0.00    +0.000 C 
ATOM     20  C   UNL     1      11.231  11.838  20.001  0.00  0.00    +0.000 C 
ATOM     21  C   UNL     1      12.101  12.692  19.086  0.00  0.00    +0.000 C 
ATOM     22  C   UNL     1      11.739  12.262  17.666  0.00  0.00    +0.000 C 
ATOM     23  C   UNL     1      10.527  11.339  17.783  0.00  0.00    +0.000 C 
ENDBRANCH  18  19
ENDBRANCH  17  18
ENDBRANCH  16  17
ENDBRANCH   4  16
TORSDOF 6
ENDMDL
MODEL 7
REMARK VINA RESULT:      -7.5      5.365      8.045
REMARK  Name = 
REMARK  6 active torsions:
REMARK  status: ('A' for Active; 'I' for Inactive)
REMARK    1  A    between atoms: C_4  and  O_5
REMARK    2  A    between atoms: C_8  and  C_9
REMARK    3  A    between atoms: C_12  and  O_13
REMARK    4  A    between atoms: O_13  and  C_14
REMARK    5  A    between atoms: C_14  and  C_15
REMARK    6  A    between atoms: C_15  and  C_16
REMARK                            x       y       z     vdW  Elec       q    Type
REMARK                         _______ _______ _______ _____ _____    ______ ____
ROOT
ATOM      1  C   UNL     1       2.745   7.262  18.602  0.00  0.00    +0.000 A 
ATOM      2  C   UNL     1       2.225   7.376  19.893  0.00  0.00    +0.000 A 
ATOM      3  C   UNL     1       1.424   8.446  20.211  0.00  0.00    +0.000 A 
ATOM      4  C   UNL     1       1.110   9.449  19.294  0.00  0.00    +0.000 A 
ATOM      5  C   UNL     1       1.587   9.318  17.973  0.00  0.00    +0.000 A 
ATOM      6  C   UNL     1       2.387   8.213  17.642  0.00  0.00    +0.000 A 
ENDROOT
BRANCH   1  13
ATOM      7  O   UNL     1       5.415   3.891  17.727  0.00  0.00    +0.000 OA
ATOM      8  C   UNL     1       4.192   3.762  17.899  0.00  0.00    +0.000 C 
ATOM      9  N   UNL     1       3.546   2.564  18.078  0.00  0.00    +0.000 NA
ATOM     10  C   UNL     1       2.269   2.738  18.134  0.00  0.00    +0.000 C 
ATOM     11  S   UNL     1       1.638   4.331  17.943  0.00  0.00    +0.000 S 
ATOM     12  C   UNL     1       3.255   4.920  18.006  0.00  0.00    +0.000 C 
ATOM     13  C   UNL     1       3.653   6.171  18.265  0.00  0.00    +0.000 C 
BRANCH  10  14
ATOM     14  O   UNL     1       1.456   1.708  18.391  0.00  0.00    +0.000 OA
ATOM     15  H   UNL     1       2.005   0.921  18.549  0.00  0.00    +0.000 HD
ENDBRANCH  10  14
ENDBRANCH   1  13
BRANCH   4  16
ATOM     16  O   UNL     1       0.360  10.545  19.681  0.00  0.00    +0.000 OA
BRANCH  16  17
ATOM     17  C   UNL     1      -0.677  10.853  18.716  0.00  0.00    +0.000 C 
BRANCH  17  18
ATOM     18  C   UNL     1      -1.944  10.044  18.930  0.00  0.00    +0.000 C 
BRANCH  18  19
ATOM     19  C   UNL     1      -2.858  10.012  17.691  0.00  0.00    +0.000 C 
ATOM     20  C   UNL     1      -3.688  11.268  17.417  0.00  0.00    +0.000 C 
ATOM     21  C   UNL     1      -4.115  11.131  15.961  0.00  0.00    +0.000 C 
ATOM     22  C   UNL     1      -2.998  10.342  15.282  0.00  0.00    +0.000 C 
ATOM     23  C   UNL     1      -2.068   9.857  16.393  0.00  0.00    +0.000 C 
ENDBRANCH  18  19
ENDBRANCH  17  18
ENDBRANCH  16  17
ENDBRANCH   4  16
TORSDOF 6
ENDMDL
MODEL 8
REMARK VINA RESULT:      -7.4      5.223      7.763
REMARK  Name = 
REMARK  6 active torsions:
REMARK  status: ('A' for Active; 'I' for Inactive)
REMARK    1  A    between atoms: C_4  and  O_5
REMARK    2  A    between atoms: C_8  and  C_9
REMARK    3  A    between atoms: C_12  and  O_13
REMARK    4  A    between atoms: O_13  and  C_14
REMARK    5  A    between atoms: C_14  and  C_15
REMARK    6  A    between atoms: C_15  and  C_16
REMARK                            x       y       z     vdW  Elec       q    Type
REMARK                         _______ _______ _______ _____ _____    ______ ____
ROOT
ATOM      1  C   UNL     1       2.818   6.964  19.023  0.00  0.00    +0.000 A 
ATOM      2  C   UNL     1       2.041   7.455  20.075  0.00  0.00    +0.000 A 
ATOM      3  C   UNL     1       1.359   8.637  19.923  0.00  0.00    +0.000 A 
ATOM      4  C   UNL     1       1.415   9.392  18.752  0.00  0.00    +0.000 A 
ATOM      5  C   UNL     1       2.153   8.881  17.664  0.00  0.00    +0.000 A 
ATOM      6  C   UNL     1       2.832   7.661  17.811  0.00  0.00    +0.000 A 
ENDROOT
BRANCH   1  13
ATOM      7  O   UNL     1       5.055   3.238  19.626  0.00  0.00    +0.000 OA
ATOM      8  C   UNL     1       3.877   3.267  19.233  0.00  0.00    +0.000 C 
ATOM      9  N   UNL     1       3.044   2.177  19.164  0.00  0.00    +0.000 NA
ATOM     10  C   UNL     1       1.916   2.498  18.628  0.00  0.00    +0.000 C 
ATOM     11  S   UNL     1       1.683   4.119  18.090  0.00  0.00    +0.000 S 
ATOM     12  C   UNL     1       3.176   4.526  18.845  0.00  0.00    +0.000 C 
ATOM     13  C   UNL     1       3.604   5.746  19.190  0.00  0.00    +0.000 C 
BRANCH  10  14
ATOM     14  O   UNL     1       0.927   1.601  18.544  0.00  0.00    +0.000 OA
ATOM     15  H   UNL     1       1.325   0.717  18.483  0.00  0.00    +0.000 HD
ENDBRANCH  10  14
ENDBRANCH   1  13
BRANCH   4  16
ATOM     16  O   UNL     1       0.770  10.613  18.671  0.00  0.00    +0.000 OA
BRANCH  16  17
ATOM     17  C   UNL     1      -0.272  10.737  19.670  0.00  0.00    +0.000 C 
BRANCH  17  18
ATOM     18  C   UNL     1      -1.616  10.215  19.192  0.00  0.00    +0.000 C 
BRANCH  18  19
ATOM     19  C   UNL     1      -2.053  10.813  17.842  0.00  0.00    +0.000 C 
ATOM     20  C   UNL     1      -2.054   9.865  16.640  0.00  0.00    +0.000 C 
ATOM     21  C   UNL     1      -2.921  10.568  15.603  0.00  0.00    +0.000 C 
ATOM     22  C   UNL     1      -3.935  11.380  16.404  0.00  0.00    +0.000 C 
ATOM     23  C   UNL     1      -3.499  11.304  17.867  0.00  0.00    +0.000 C 
ENDBRANCH  18  19
ENDBRANCH  17  18
ENDBRANCH  16  17
ENDBRANCH   4  16
TORSDOF 6
ENDMDL
MODEL 9
REMARK VINA RESULT:      -7.4      5.215      7.760
REMARK  Name = 
REMARK  6 active torsions:
REMARK  status: ('A' for Active; 'I' for Inactive)
REMARK    1  A    between atoms: C_4  and  O_5
REMARK    2  A    between atoms: C_8  and  C_9
REMARK    3  A    between atoms: C_12  and  O_13
REMARK    4  A    between atoms: O_13  and  C_14
REMARK    5  A    between atoms: C_14  and  C_15
REMARK    6  A    between atoms: C_15  and  C_16
REMARK                            x       y       z     vdW  Elec       q    Type
REMARK                         _______ _______ _______ _____ _____    ______ ____
ROOT
ATOM      1  C   UNL     1       2.840   7.123  18.494  0.00  0.00    +0.000 A 
ATOM      2  C   UNL     1       2.479   8.228  17.719  0.00  0.00    +0.000 A 
ATOM      3  C   UNL     1       1.657   9.192  18.252  0.00  0.00    +0.000 A 
ATOM      4  C   UNL     1       1.147   9.113  19.547  0.00  0.00    +0.000 A 
ATOM      5  C   UNL     1       1.547   8.029  20.356  0.00  0.00    +0.000 A 
ATOM      6  C   UNL     1       2.404   7.056  19.820  0.00  0.00    +0.000 A 
ENDROOT
BRANCH   1  13
ATOM      7  O   UNL     1       5.264   3.820  16.924  0.00  0.00    +0.000 OA
ATOM      8  C   UNL     1       4.119   3.665  17.379  0.00  0.00    +0.000 C 
ATOM      9  N   UNL     1       3.549   2.452  17.678  0.00  0.00    +0.000 NA
ATOM     10  C   UNL     1       2.321   2.602  18.041  0.00  0.00    +0.000 C 
ATOM     11  S   UNL     1       1.643   4.187  18.046  0.00  0.00    +0.000 S 
ATOM     12  C   UNL     1       3.221   4.803  17.736  0.00  0.00    +0.000 C 
ATOM     13  C   UNL     1       3.654   6.055  17.923  0.00  0.00    +0.000 C 
BRANCH  10  14
ATOM     14  O   UNL     1       1.606   1.552  18.459  0.00  0.00    +0.000 OA
ATOM     15  H   UNL     1       1.001   1.294  17.743  0.00  0.00    +0.000 HD
ENDBRANCH  10  14
ENDBRANCH   1  13
BRANCH   4  16
ATOM     16  O   UNL     1       0.265  10.071  20.015  0.00  0.00    +0.000 OA
BRANCH  16  17
ATOM     17  C   UNL     1       0.542  11.377  19.450  0.00  0.00    +0.000 C 
BRANCH  17  18
ATOM     18  C   UNL     1      -0.676  12.014  18.805  0.00  0.00    +0.000 C 
BRANCH  18  19
ATOM     19  C   UNL     1      -1.823  11.015  18.558  0.00  0.00    +0.000 C 
ATOM     20  C   UNL     1      -3.235  11.600  18.475  0.00  0.00    +0.000 C 
ATOM     21  C   UNL     1      -4.059  10.508  17.802  0.00  0.00    +0.000 C 
ATOM     22  C   UNL     1      -3.084   9.769  16.889  0.00  0.00    +0.000 C 
ATOM     23  C   UNL     1      -1.689  10.301  17.214  0.00  0.00    +0.000 C 
ENDBRANCH  18  19
ENDBRANCH  17  18
ENDBRANCH  16  17
ENDBRANCH   4  16
TORSDOF 6
ENDMDL
