MODEL 1
REMARK VINA RESULT:      -8.3      0.000      0.000
REMARK  Name = 
REMARK  6 active torsions:
REMARK  status: ('A' for Active; 'I' for Inactive)
REMARK    1  A    between atoms: C_1  and  C_2
REMARK    2  A    between atoms: C_2  and  C_3
REMARK    3  A    between atoms: C_2  and  C_4
REMARK    4  A    between atoms: C_2  and  C_5
REMARK    5  A    between atoms: C_12  and  C_14
REMARK    6  A    between atoms: C_17  and  N_18
REMARK                            x       y       z     vdW  Elec       q    Type
REMARK                         _______ _______ _______ _____ _____    ______ ____
ROOT
ATOM      1  C   UNL     1       2.987   6.766  18.472  0.00  0.00    +0.000 A 
ATOM      2  C   UNL     1       2.908   7.794  17.521  0.00  0.00    +0.000 A 
ATOM      3  C   UNL     1       2.157   8.966  17.748  0.00  0.00    +0.000 A 
ATOM      4  C   UNL     1       1.469   9.139  18.964  0.00  0.00    +0.000 A 
ATOM      5  N   UNL     1       0.708  10.241  19.351  0.00  0.00    +0.000 NA
ATOM      6  C   UNL     1       0.296  10.078  20.591  0.00  0.00    +0.000 A 
ATOM      7  N   UNL     1      -0.440  11.024  21.267  0.00  0.00    +0.000 N 
ATOM      8  C   UNL     1      -0.649  11.042  22.632  0.00  0.00    +0.000 C 
ATOM      9  O   UNL     1      -0.171  10.267  23.451  0.00  0.00    +0.000 OA
ATOM     10  S   UNL     1       0.661   8.569  21.294  0.00  0.00    +0.000 S 
ATOM     11  C   UNL     1       1.549   8.116  19.903  0.00  0.00    +0.000 A 
ATOM     12  C   UNL     1       2.275   6.933  19.676  0.00  0.00    +0.000 A 
ATOM     13  H   UNL     1      -0.759  11.813  20.721  0.00  0.00    +0.000 HD
ENDROOT
BRANCH   8  14
ATOM     14  C   UNL     1      -1.515  12.142  23.080  0.00  0.00    +0.000 A 
ATOM     15  C   UNL     1      -1.066  13.448  23.150  0.00  0.00    +0.000 A 
ATOM     16  S   UNL     1      -2.276  14.462  23.789  0.00  0.00    +0.000 S 
ATOM     17  C   UNL     1      -3.342  13.108  23.927  0.00  0.00    +0.000 A 
ATOM     18  N   UNL     1      -2.839  11.964  23.485  0.00  0.00    +0.000 NA
BRANCH  17  19
ATOM     19  N   UNL     1      -4.555  13.321  24.497  0.00  0.00    +0.000 NA
ATOM     20  C   UNL     1      -5.609  12.969  23.842  0.00  0.00    +0.000 C 
ATOM     21  N   UNL     1      -5.713  12.450  22.592  0.00  0.00    +0.000 N 
ATOM     22  N   UNL     1      -6.839  13.104  24.384  0.00  0.00    +0.000 N 
ATOM     23  H   UNL     1      -4.818  12.104  22.255  0.00  0.00    +0.000 HD
ATOM     24  H   UNL     1      -6.426  11.736  22.516  0.00  0.00    +0.000 HD
ATOM     25  H   UNL     1      -6.837  13.732  25.182  0.00  0.00    +0.000 HD
ATOM     26  H   UNL     1      -7.568  13.338  23.718  0.00  0.00    +0.000 HD
ENDBRANCH  17  19
ENDBRANCH   8  14
BRANCH   1  28
ATOM     27  C   UNL     1       2.993   4.192  18.232  0.00  0.00    +0.000 C 
ATOM     28  C   UNL     1       3.830   5.490  18.267  0.00  0.00    +0.000 C 
ATOM     29  C   UNL     1       4.859   5.342  19.409  0.00  0.00    +0.000 C 
ATOM     30  C   UNL     1       4.589   5.581  16.923  0.00  0.00    +0.000 C 
ENDBRANCH   1  28
TORSDOF 3
ENDMDL
MODEL 2
REMARK VINA RESULT:      -8.2      0.746      1.009
REMARK  Name = 
REMARK  6 active torsions:
REMARK  status: ('A' for Active; 'I' for Inactive)
REMARK    1  A    between atoms: C_1  and  C_2
REMARK    2  A    between atoms: C_2  and  C_3
REMARK    3  A    between atoms: C_2  and  C_4
REMARK    4  A    between atoms: C_2  and  C_5
REMARK    5  A    between atoms: C_12  and  C_14
REMARK    6  A    between atoms: C_17  and  N_18
REMARK                            x       y       z     vdW  Elec       q    Type
REMARK                         _______ _______ _______ _____ _____    ______ ____
ROOT
ATOM      1  C   UNL     1       3.210   6.344  18.845  0.00  0.00    +0.000 A 
ATOM      2  C   UNL     1       3.198   7.278  17.799  0.00  0.00    +0.000 A 
ATOM      3  C   UNL     1       2.457   8.476  17.874  0.00  0.00    +0.000 A 
ATOM      4  C   UNL     1       1.710   8.772  19.031  0.00  0.00    +0.000 A 
ATOM      5  N   UNL     1       0.949   9.915  19.272  0.00  0.00    +0.000 NA
ATOM      6  C   UNL     1       0.471   9.875  20.497  0.00  0.00    +0.000 A 
ATOM      7  N   UNL     1      -0.282  10.889  21.041  0.00  0.00    +0.000 N 
ATOM      8  C   UNL     1      -0.562  11.040  22.386  0.00  0.00    +0.000 C 
ATOM      9  O   UNL     1      -0.141  10.339  23.299  0.00  0.00    +0.000 OA
ATOM     10  S   UNL     1       0.773   8.435  21.357  0.00  0.00    +0.000 S 
ATOM     11  C   UNL     1       1.723   7.841  20.064  0.00  0.00    +0.000 A 
ATOM     12  C   UNL     1       2.439   6.634  19.989  0.00  0.00    +0.000 A 
ATOM     13  H   UNL     1      -0.559  11.628  20.408  0.00  0.00    +0.000 HD
ENDROOT
BRANCH   8  14
ATOM     14  C   UNL     1      -1.430  12.187  22.682  0.00  0.00    +0.000 A 
ATOM     15  C   UNL     1      -0.923  13.402  23.103  0.00  0.00    +0.000 A 
ATOM     16  S   UNL     1      -2.187  14.491  23.447  0.00  0.00    +0.000 S 
ATOM     17  C   UNL     1      -3.348  13.288  23.004  0.00  0.00    +0.000 A 
ATOM     18  N   UNL     1      -2.822  12.145  22.583  0.00  0.00    +0.000 NA
BRANCH  17  19
ATOM     19  N   UNL     1      -4.660  13.597  23.158  0.00  0.00    +0.000 NA
ATOM     20  C   UNL     1      -5.316  13.022  24.108  0.00  0.00    +0.000 C 
ATOM     21  N   UNL     1      -4.906  12.070  24.984  0.00  0.00    +0.000 N 
ATOM     22  N   UNL     1      -6.608  13.335  24.345  0.00  0.00    +0.000 N 
ATOM     23  H   UNL     1      -3.892  11.992  25.005  0.00  0.00    +0.000 HD
ATOM     24  H   UNL     1      -5.276  12.202  25.918  0.00  0.00    +0.000 HD
ATOM     25  H   UNL     1      -7.033  13.821  23.561  0.00  0.00    +0.000 HD
ATOM     26  H   UNL     1      -7.177  12.557  24.663  0.00  0.00    +0.000 HD
ENDBRANCH  17  19
ENDBRANCH   8  14
BRANCH   1  28
ATOM     27  C   UNL     1       4.098   4.386  17.409  0.00  0.00    +0.000 C 
ATOM     28  C   UNL     1       4.040   5.044  18.806  0.00  0.00    +0.000 C 
ATOM     29  C   UNL     1       3.447   4.003  19.779  0.00  0.00    +0.000 C 
ATOM     30  C   UNL     1       5.496   5.346  19.229  0.00  0.00    +0.000 C 
ENDBRANCH   1  28
TORSDOF 3
ENDMDL
MODEL 3
REMARK VINA RESULT:      -8.1      4.101      9.978
REMARK  Name = 
REMARK  6 active torsions:
REMARK  status: ('A' for Active; 'I' for Inactive)
REMARK    1  A    between atoms: C_1  and  C_2
REMARK    2  A    between atoms: C_2  and  C_3
REMARK    3  A    between atoms: C_2  and  C_4
REMARK    4  A    between atoms: C_2  and  C_5
REMARK    5  A    between atoms: C_12  and  C_14
REMARK    6  A    between atoms: C_17  and  N_18
REMARK                            x       y       z     vdW  Elec       q    Type
REMARK                         _______ _______ _______ _____ _____    ______ ____
ROOT
ATOM      1  C   UNL     1      -1.265  11.610  22.175  0.00  0.00    +0.000 A 
ATOM      2  C   UNL     1      -0.947  10.719  23.211  0.00  0.00    +0.000 A 
ATOM      3  C   UNL     1      -0.176   9.558  22.989  0.00  0.00    +0.000 A 
ATOM      4  C   UNL     1       0.311   9.271  21.700  0.00  0.00    +0.000 A 
ATOM      5  N   UNL     1       1.101   8.187  21.321  0.00  0.00    +0.000 NA
ATOM      6  C   UNL     1       1.434   8.306  20.054  0.00  0.00    +0.000 A 
ATOM      7  N   UNL     1       2.251   7.409  19.405  0.00  0.00    +0.000 N 
ATOM      8  C   UNL     1       2.863   7.626  18.186  0.00  0.00    +0.000 C 
ATOM      9  O   UNL     1       2.823   8.658  17.527  0.00  0.00    +0.000 OA
ATOM     10  S   UNL     1       0.715   9.610  19.225  0.00  0.00    +0.000 S 
ATOM     11  C   UNL     1      -0.008  10.156  20.676  0.00  0.00    +0.000 A 
ATOM     12  C   UNL     1      -0.796  11.302  20.882  0.00  0.00    +0.000 A 
ATOM     13  H   UNL     1       2.494   6.573  19.921  0.00  0.00    +0.000 HD
ENDROOT
BRANCH   8  14
ATOM     14  C   UNL     1       3.643   6.478  17.705  0.00  0.00    +0.000 A 
ATOM     15  C   UNL     1       4.764   6.633  16.911  0.00  0.00    +0.000 A 
ATOM     16  S   UNL     1       5.385   5.114  16.450  0.00  0.00    +0.000 S 
ATOM     17  C   UNL     1       4.132   4.328  17.345  0.00  0.00    +0.000 A 
ATOM     18  N   UNL     1       3.314   5.151  17.988  0.00  0.00    +0.000 NA
BRANCH  17  19
ATOM     19  N   UNL     1       4.073   2.974  17.283  0.00  0.00    +0.000 NA
ATOM     20  C   UNL     1       3.932   2.316  18.384  0.00  0.00    +0.000 C 
ATOM     21  N   UNL     1       3.888   2.774  19.661  0.00  0.00    +0.000 N 
ATOM     22  N   UNL     1       3.809   0.971  18.377  0.00  0.00    +0.000 N 
ATOM     23  H   UNL     1       3.725   3.778  19.693  0.00  0.00    +0.000 HD
ATOM     24  H   UNL     1       3.217   2.283  20.238  0.00  0.00    +0.000 HD
ATOM     25  H   UNL     1       4.110   0.566  17.496  0.00  0.00    +0.000 HD
ATOM     26  H   UNL     1       4.232   0.507  19.174  0.00  0.00    +0.000 HD
ENDBRANCH  17  19
ENDBRANCH   8  14
BRANCH   1  28
ATOM     27  C   UNL     1      -1.406  13.894  23.376  0.00  0.00    +0.000 C 
ATOM     28  C   UNL     1      -2.073  12.905  22.395  0.00  0.00    +0.000 C 
ATOM     29  C   UNL     1      -3.471  12.572  22.959  0.00  0.00    +0.000 C 
ATOM     30  C   UNL     1      -2.245  13.644  21.047  0.00  0.00    +0.000 C 
ENDBRANCH   1  28
TORSDOF 3
ENDMDL
MODEL 4
REMARK VINA RESULT:      -7.8      4.088     10.376
REMARK  Name = 
REMARK  6 active torsions:
REMARK  status: ('A' for Active; 'I' for Inactive)
REMARK    1  A    between atoms: C_1  and  C_2
REMARK    2  A    between atoms: C_2  and  C_3
REMARK    3  A    between atoms: C_2  and  C_4
REMARK    4  A    between atoms: C_2  and  C_5
REMARK    5  A    between atoms: C_12  and  C_14
REMARK    6  A    between atoms: C_17  and  N_18
REMARK                            x       y       z     vdW  Elec       q    Type
REMARK                         _______ _______ _______ _____ _____    ______ ____
ROOT
ATOM      1  C   UNL     1      -1.443  11.749  22.115  0.00  0.00    +0.000 A 
ATOM      2  C   UNL     1      -1.152  10.965  23.241  0.00  0.00    +0.000 A 
ATOM      3  C   UNL     1      -0.358   9.802  23.158  0.00  0.00    +0.000 A 
ATOM      4  C   UNL     1       0.182   9.403  21.920  0.00  0.00    +0.000 A 
ATOM      5  N   UNL     1       1.000   8.301  21.674  0.00  0.00    +0.000 NA
ATOM      6  C   UNL     1       1.379   8.306  20.414  0.00  0.00    +0.000 A 
ATOM      7  N   UNL     1       2.232   7.366  19.883  0.00  0.00    +0.000 N 
ATOM      8  C   UNL     1       2.885   7.479  18.671  0.00  0.00    +0.000 C 
ATOM      9  O   UNL     1       2.856   8.444  17.917  0.00  0.00    +0.000 OA
ATOM     10  S   UNL     1       0.674   9.515  19.440  0.00  0.00    +0.000 S 
ATOM     11  C   UNL     1      -0.111  10.182  20.806  0.00  0.00    +0.000 A 
ATOM     12  C   UNL     1      -0.921  11.329  20.874  0.00  0.00    +0.000 A 
ATOM     13  H   UNL     1       2.466   6.587  20.484  0.00  0.00    +0.000 HD
ENDROOT
BRANCH   8  14
ATOM     14  C   UNL     1       3.698   6.304  18.329  0.00  0.00    +0.000 A 
ATOM     15  C   UNL     1       4.005   5.328  19.259  0.00  0.00    +0.000 A 
ATOM     16  S   UNL     1       5.032   4.153  18.576  0.00  0.00    +0.000 S 
ATOM     17  C   UNL     1       5.004   5.001  17.069  0.00  0.00    +0.000 A 
ATOM     18  N   UNL     1       4.238   6.083  17.061  0.00  0.00    +0.000 NA
BRANCH  17  19
ATOM     19  N   UNL     1       5.778   4.518  16.065  0.00  0.00    +0.000 NA
ATOM     20  C   UNL     1       6.841   5.173  15.744  0.00  0.00    +0.000 C 
ATOM     21  N   UNL     1       7.305   6.353  16.227  0.00  0.00    +0.000 N 
ATOM     22  N   UNL     1       7.680   4.709  14.792  0.00  0.00    +0.000 N 
ATOM     23  H   UNL     1       6.850   6.604  17.102  0.00  0.00    +0.000 HD
ATOM     24  H   UNL     1       8.312   6.375  16.327  0.00  0.00    +0.000 HD
ATOM     25  H   UNL     1       7.245   3.994  14.216  0.00  0.00    +0.000 HD
ATOM     26  H   UNL     1       8.121   5.431  14.232  0.00  0.00    +0.000 HD
ENDBRANCH  17  19
ENDBRANCH   8  14
BRANCH   1  28
ATOM     27  C   UNL     1      -1.435  14.332  22.033  0.00  0.00    +0.000 C 
ATOM     28  C   UNL     1      -2.276  13.045  22.182  0.00  0.00    +0.000 C 
ATOM     29  C   UNL     1      -3.015  13.134  23.534  0.00  0.00    +0.000 C 
ATOM     30  C   UNL     1      -3.322  13.048  21.043  0.00  0.00    +0.000 C 
ENDBRANCH   1  28
TORSDOF 3
ENDMDL
MODEL 5
REMARK VINA RESULT:      -7.8      4.106     10.309
REMARK  Name = 
REMARK  6 active torsions:
REMARK  status: ('A' for Active; 'I' for Inactive)
REMARK    1  A    between atoms: C_1  and  C_2
REMARK    2  A    between atoms: C_2  and  C_3
REMARK    3  A    between atoms: C_2  and  C_4
REMARK    4  A    between atoms: C_2  and  C_5
REMARK    5  A    between atoms: C_12  and  C_14
REMARK    6  A    between atoms: C_17  and  N_18
REMARK                            x       y       z     vdW  Elec       q    Type
REMARK                         _______ _______ _______ _____ _____    ______ ____
ROOT
ATOM      1  C   UNL     1      -1.218  11.728  22.250  0.00  0.00    +0.000 A 
ATOM      2  C   UNL     1      -0.991  10.818  23.292  0.00  0.00    +0.000 A 
ATOM      3  C   UNL     1      -0.299   9.606  23.090  0.00  0.00    +0.000 A 
ATOM      4  C   UNL     1       0.200   9.284  21.813  0.00  0.00    +0.000 A 
ATOM      5  N   UNL     1       0.921   8.146  21.454  0.00  0.00    +0.000 NA
ATOM      6  C   UNL     1       1.295   8.240  20.195  0.00  0.00    +0.000 A 
ATOM      7  N   UNL     1       2.063   7.287  19.568  0.00  0.00    +0.000 N 
ATOM      8  C   UNL     1       2.719   7.461  18.364  0.00  0.00    +0.000 C 
ATOM      9  O   UNL     1       2.770   8.493  17.706  0.00  0.00    +0.000 OA
ATOM     10  S   UNL     1       0.692   9.592  19.350  0.00  0.00    +0.000 S 
ATOM     11  C   UNL     1      -0.029  10.189  20.782  0.00  0.00    +0.000 A 
ATOM     12  C   UNL     1      -0.739  11.388  20.969  0.00  0.00    +0.000 A 
ATOM     13  H   UNL     1       2.232   6.437  20.089  0.00  0.00    +0.000 HD
ENDROOT
BRANCH   8  14
ATOM     14  C   UNL     1       3.429   6.259  17.903  0.00  0.00    +0.000 A 
ATOM     15  C   UNL     1       2.789   5.043  17.749  0.00  0.00    +0.000 A 
ATOM     16  S   UNL     1       3.901   3.837  17.290  0.00  0.00    +0.000 S 
ATOM     17  C   UNL     1       5.177   5.004  17.307  0.00  0.00    +0.000 A 
ATOM     18  N   UNL     1       4.791   6.238  17.601  0.00  0.00    +0.000 NA
BRANCH  17  19
ATOM     19  N   UNL     1       6.435   4.559  17.061  0.00  0.00    +0.000 NA
ATOM     20  C   UNL     1       7.310   4.645  18.006  0.00  0.00    +0.000 C 
ATOM     21  N   UNL     1       7.189   5.187  19.244  0.00  0.00    +0.000 N 
ATOM     22  N   UNL     1       8.561   4.164  17.838  0.00  0.00    +0.000 N 
ATOM     23  H   UNL     1       6.214   5.327  19.498  0.00  0.00    +0.000 HD
ATOM     24  H   UNL     1       7.673   4.659  19.959  0.00  0.00    +0.000 HD
ATOM     25  H   UNL     1       8.781   4.008  16.859  0.00  0.00    +0.000 HD
ATOM     26  H   UNL     1       9.283   4.699  18.309  0.00  0.00    +0.000 HD
ENDBRANCH  17  19
ENDBRANCH   8  14
BRANCH   1  28
ATOM     27  C   UNL     1      -2.100  13.894  21.148  0.00  0.00    +0.000 C 
ATOM     28  C   UNL     1      -1.939  13.078  22.450  0.00  0.00    +0.000 C 
ATOM     29  C   UNL     1      -1.156  13.957  23.449  0.00  0.00    +0.000 C 
ATOM     30  C   UNL     1      -3.358  12.829  23.013  0.00  0.00    +0.000 C 
ENDBRANCH   1  28
TORSDOF 3
ENDMDL
MODEL 6
REMARK VINA RESULT:      -7.8      1.008      1.403
REMARK  Name = 
REMARK  6 active torsions:
REMARK  status: ('A' for Active; 'I' for Inactive)
REMARK    1  A    between atoms: C_1  and  C_2
REMARK    2  A    between atoms: C_2  and  C_3
REMARK    3  A    between atoms: C_2  and  C_4
REMARK    4  A    between atoms: C_2  and  C_5
REMARK    5  A    between atoms: C_12  and  C_14
REMARK    6  A    between atoms: C_17  and  N_18
REMARK                            x       y       z     vdW  Elec       q    Type
REMARK                         _______ _______ _______ _____ _____    ______ ____
ROOT
ATOM      1  C   UNL     1       3.552   5.852  18.490  0.00  0.00    +0.000 A 
ATOM      2  C   UNL     1       3.516   6.805  17.461  0.00  0.00    +0.000 A 
ATOM      3  C   UNL     1       2.786   8.006  17.579  0.00  0.00    +0.000 A 
ATOM      4  C   UNL     1       2.075   8.286  18.761  0.00  0.00    +0.000 A 
ATOM      5  N   UNL     1       1.329   9.429  19.045  0.00  0.00    +0.000 NA
ATOM      6  C   UNL     1       0.887   9.371  20.283  0.00  0.00    +0.000 A 
ATOM      7  N   UNL     1       0.157  10.380  20.867  0.00  0.00    +0.000 N 
ATOM      8  C   UNL     1      -0.082  10.509  22.221  0.00  0.00    +0.000 C 
ATOM      9  O   UNL     1       0.361   9.789  23.109  0.00  0.00    +0.000 OA
ATOM     10  S   UNL     1       1.204   7.914  21.108  0.00  0.00    +0.000 S 
ATOM     11  C   UNL     1       2.112   7.337  19.778  0.00  0.00    +0.000 A 
ATOM     12  C   UNL     1       2.817   6.127  19.660  0.00  0.00    +0.000 A 
ATOM     13  H   UNL     1      -0.133  11.132  20.255  0.00  0.00    +0.000 HD
ENDROOT
BRANCH   8  14
ATOM     14  C   UNL     1      -0.934  11.656  22.563  0.00  0.00    +0.000 A 
ATOM     15  C   UNL     1      -0.616  12.946  22.179  0.00  0.00    +0.000 A 
ATOM     16  S   UNL     1      -1.750  14.053  22.804  0.00  0.00    +0.000 S 
ATOM     17  C   UNL     1      -2.615  12.751  23.546  0.00  0.00    +0.000 A 
ATOM     18  N   UNL     1      -2.108  11.548  23.309  0.00  0.00    +0.000 NA
BRANCH  17  19
ATOM     19  N   UNL     1      -3.685  13.069  24.317  0.00  0.00    +0.000 NA
ATOM     20  C   UNL     1      -4.865  12.918  23.817  0.00  0.00    +0.000 C 
ATOM     21  N   UNL     1      -5.228  12.531  22.568  0.00  0.00    +0.000 N 
ATOM     22  N   UNL     1      -5.967  13.163  24.558  0.00  0.00    +0.000 N 
ATOM     23  H   UNL     1      -4.453  12.102  22.069  0.00  0.00    +0.000 HD
ATOM     24  H   UNL     1      -6.040  11.926  22.559  0.00  0.00    +0.000 HD
ATOM     25  H   UNL     1      -5.756  13.711  25.386  0.00  0.00    +0.000 HD
ATOM     26  H   UNL     1      -6.747  13.549  24.036  0.00  0.00    +0.000 HD
ENDBRANCH  17  19
ENDBRANCH   8  14
BRANCH   1  28
ATOM     27  C   UNL     1       5.891   4.756  18.590  0.00  0.00    +0.000 C 
ATOM     28  C   UNL     1       4.372   4.548  18.403  0.00  0.00    +0.000 C 
ATOM     29  C   UNL     1       4.166   3.880  17.027  0.00  0.00    +0.000 C 
ATOM     30  C   UNL     1       3.906   3.569  19.505  0.00  0.00    +0.000 C 
ENDBRANCH   1  28
TORSDOF 3
ENDMDL
MODEL 7
REMARK VINA RESULT:      -7.8      4.009      9.910
REMARK  Name = 
REMARK  6 active torsions:
REMARK  status: ('A' for Active; 'I' for Inactive)
REMARK    1  A    between atoms: C_1  and  C_2
REMARK    2  A    between atoms: C_2  and  C_3
REMARK    3  A    between atoms: C_2  and  C_4
REMARK    4  A    between atoms: C_2  and  C_5
REMARK    5  A    between atoms: C_12  and  C_14
REMARK    6  A    between atoms: C_17  and  N_18
REMARK                            x       y       z     vdW  Elec       q    Type
REMARK                         _______ _______ _______ _____ _____    ______ ____
ROOT
ATOM      1  C   UNL     1      -1.594  11.840  21.981  0.00  0.00    +0.000 A 
ATOM      2  C   UNL     1      -1.185  11.076  23.084  0.00  0.00    +0.000 A 
ATOM      3  C   UNL     1      -0.331   9.962  22.947  0.00  0.00    +0.000 A 
ATOM      4  C   UNL     1       0.151   9.595  21.676  0.00  0.00    +0.000 A 
ATOM      5  N   UNL     1       1.015   8.543  21.375  0.00  0.00    +0.000 NA
ATOM      6  C   UNL     1       1.311   8.569  20.094  0.00  0.00    +0.000 A 
ATOM      7  N   UNL     1       2.182   7.681  19.507  0.00  0.00    +0.000 N 
ATOM      8  C   UNL     1       2.749   7.830  18.256  0.00  0.00    +0.000 C 
ATOM      9  O   UNL     1       2.615   8.791  17.507  0.00  0.00    +0.000 OA
ATOM     10  S   UNL     1       0.475   9.732  19.170  0.00  0.00    +0.000 S 
ATOM     11  C   UNL     1      -0.259  10.354  20.585  0.00  0.00    +0.000 A 
ATOM     12  C   UNL     1      -1.129  11.451  20.708  0.00  0.00    +0.000 A 
ATOM     13  H   UNL     1       2.500   6.917  20.090  0.00  0.00    +0.000 HD
ENDROOT
BRANCH   8  14
ATOM     14  C   UNL     1       3.607   6.705  17.860  0.00  0.00    +0.000 A 
ATOM     15  C   UNL     1       4.484   6.790  16.795  0.00  0.00    +0.000 A 
ATOM     16  S   UNL     1       5.262   5.296  16.539  0.00  0.00    +0.000 S 
ATOM     17  C   UNL     1       4.396   4.615  17.872  0.00  0.00    +0.000 A 
ATOM     18  N   UNL     1       3.597   5.466  18.502  0.00  0.00    +0.000 NA
BRANCH  17  19
ATOM     19  N   UNL     1       4.576   3.295  18.127  0.00  0.00    +0.000 NA
ATOM     20  C   UNL     1       3.563   2.505  18.008  0.00  0.00    +0.000 C 
ATOM     21  N   UNL     1       2.271   2.800  17.714  0.00  0.00    +0.000 N 
ATOM     22  N   UNL     1       3.697   1.174  18.192  0.00  0.00    +0.000 N 
ATOM     23  H   UNL     1       2.179   3.736  17.328  0.00  0.00    +0.000 HD
ATOM     24  H   UNL     1       1.835   2.117  17.108  0.00  0.00    +0.000 HD
ATOM     25  H   UNL     1       4.558   0.940  18.677  0.00  0.00    +0.000 HD
ATOM     26  H   UNL     1       2.890   0.724  18.612  0.00  0.00    +0.000 HD
ENDBRANCH  17  19
ENDBRANCH   8  14
BRANCH   1  28
ATOM     27  C   UNL     1      -3.453  13.280  20.907  0.00  0.00    +0.000 C 
ATOM     28  C   UNL     1      -2.497  13.085  22.104  0.00  0.00    +0.000 C 
ATOM     29  C   UNL     1      -1.634  14.360  22.215  0.00  0.00    +0.000 C 
ATOM     30  C   UNL     1      -3.372  12.966  23.374  0.00  0.00    +0.000 C 
ENDBRANCH   1  28
TORSDOF 3
ENDMDL
MODEL 8
REMARK VINA RESULT:      -7.7      4.069     10.023
REMARK  Name = 
REMARK  6 active torsions:
REMARK  status: ('A' for Active; 'I' for Inactive)
REMARK    1  A    between atoms: C_1  and  C_2
REMARK    2  A    between atoms: C_2  and  C_3
REMARK    3  A    between atoms: C_2  and  C_4
REMARK    4  A    between atoms: C_2  and  C_5
REMARK    5  A    between atoms: C_12  and  C_14
REMARK    6  A    between atoms: C_17  and  N_18
REMARK                            x       y       z     vdW  Elec       q    Type
REMARK                         _______ _______ _______ _____ _____    ______ ____
ROOT
ATOM      1  C   UNL     1      -1.182  12.160  21.530  0.00  0.00    +0.000 A 
ATOM      2  C   UNL     1      -0.962  12.578  20.209  0.00  0.00    +0.000 A 
ATOM      3  C   UNL     1      -0.173  11.832  19.310  0.00  0.00    +0.000 A 
ATOM      4  C   UNL     1       0.411  10.619  19.723  0.00  0.00    +0.000 A 
ATOM      5  N   UNL     1       1.192   9.757  18.955  0.00  0.00    +0.000 NA
ATOM      6  C   UNL     1       1.481   8.681  19.657  0.00  0.00    +0.000 A 
ATOM      7  N   UNL     1       2.203   7.626  19.150  0.00  0.00    +0.000 N 
ATOM      8  C   UNL     1       2.289   6.372  19.723  0.00  0.00    +0.000 C 
ATOM      9  O   UNL     1       1.698   5.989  20.726  0.00  0.00    +0.000 OA
ATOM     10  S   UNL     1       0.974   8.708  21.284  0.00  0.00    +0.000 S 
ATOM     11  C   UNL     1       0.192  10.209  21.034  0.00  0.00    +0.000 A 
ATOM     12  C   UNL     1      -0.573  10.959  21.945  0.00  0.00    +0.000 A 
ATOM     13  H   UNL     1       2.612   7.765  18.235  0.00  0.00    +0.000 HD
ENDROOT
BRANCH   8  14
ATOM     14  C   UNL     1       3.169   5.450  18.992  0.00  0.00    +0.000 A 
ATOM     15  C   UNL     1       2.931   4.088  18.948  0.00  0.00    +0.000 A 
ATOM     16  S   UNL     1       4.176   3.291  18.102  0.00  0.00    +0.000 S 
ATOM     17  C   UNL     1       4.962   4.806  17.826  0.00  0.00    +0.000 A 
ATOM     18  N   UNL     1       4.313   5.858  18.305  0.00  0.00    +0.000 NA
BRANCH  17  19
ATOM     19  N   UNL     1       6.162   4.783  17.193  0.00  0.00    +0.000 NA
ATOM     20  C   UNL     1       6.336   5.566  16.183  0.00  0.00    +0.000 C 
ATOM     21  N   UNL     1       5.456   6.406  15.583  0.00  0.00    +0.000 N 
ATOM     22  N   UNL     1       7.529   5.627  15.551  0.00  0.00    +0.000 N 
ATOM     23  H   UNL     1       4.642   6.576  16.169  0.00  0.00    +0.000 HD
ATOM     24  H   UNL     1       5.876   7.280  15.289  0.00  0.00    +0.000 HD
ATOM     25  H   UNL     1       8.121   4.834  15.777  0.00  0.00    +0.000 HD
ATOM     26  H   UNL     1       7.467   5.783  14.551  0.00  0.00    +0.000 HD
ENDBRANCH  17  19
ENDBRANCH   8  14
BRANCH   1  28
ATOM     27  C   UNL     1      -2.898  12.026  23.459  0.00  0.00    +0.000 C 
ATOM     28  C   UNL     1      -2.071  12.936  22.524  0.00  0.00    +0.000 C 
ATOM     29  C   UNL     1      -3.067  13.835  21.759  0.00  0.00    +0.000 C 
ATOM     30  C   UNL     1      -1.185  13.830  23.422  0.00  0.00    +0.000 C 
ENDBRANCH   1  28
TORSDOF 3
ENDMDL
MODEL 9
REMARK VINA RESULT:      -7.7      4.097     10.287
REMARK  Name = 
REMARK  6 active torsions:
REMARK  status: ('A' for Active; 'I' for Inactive)
REMARK    1  A    between atoms: C_1  and  C_2
REMARK    2  A    between atoms: C_2  and  C_3
REMARK    3  A    between atoms: C_2  and  C_4
REMARK    4  A    between atoms: C_2  and  C_5
REMARK    5  A    between atoms: C_12  and  C_14
REMARK    6  A    between atoms: C_17  and  N_18
REMARK                            x       y       z     vdW  Elec       q    Type
REMARK                         _______ _______ _______ _____ _____    ______ ____
ROOT
ATOM      1  C   UNL     1      -1.443  12.125  21.920  0.00  0.00    +0.000 A 
ATOM      2  C   UNL     1      -1.235  11.340  23.065  0.00  0.00    +0.000 A 
ATOM      3  C   UNL     1      -0.538  10.115  23.016  0.00  0.00    +0.000 A 
ATOM      4  C   UNL     1      -0.013   9.651  21.795  0.00  0.00    +0.000 A 
ATOM      5  N   UNL     1       0.715   8.482  21.582  0.00  0.00    +0.000 NA
ATOM      6  C   UNL     1       1.114   8.433  20.328  0.00  0.00    +0.000 A 
ATOM      7  N   UNL     1       1.895   7.416  19.829  0.00  0.00    +0.000 N 
ATOM      8  C   UNL     1       2.575   7.453  18.627  0.00  0.00    +0.000 C 
ATOM      9  O   UNL     1       2.638   8.403  17.856  0.00  0.00    +0.000 OA
ATOM     10  S   UNL     1       0.526   9.676  19.322  0.00  0.00    +0.000 S 
ATOM     11  C   UNL     1      -0.223  10.431  20.662  0.00  0.00    +0.000 A 
ATOM     12  C   UNL     1      -0.937  11.641  20.697  0.00  0.00    +0.000 A 
ATOM     13  H   UNL     1       2.054   6.632  20.447  0.00  0.00    +0.000 HD
ENDROOT
BRANCH   8  14
ATOM     14  C   UNL     1       3.294   6.209  18.320  0.00  0.00    +0.000 A 
ATOM     15  C   UNL     1       2.648   5.090  17.828  0.00  0.00    +0.000 A 
ATOM     16  S   UNL     1       3.740   3.793  17.662  0.00  0.00    +0.000 S 
ATOM     17  C   UNL     1       5.023   4.796  18.244  0.00  0.00    +0.000 A 
ATOM     18  N   UNL     1       4.667   6.045  18.512  0.00  0.00    +0.000 NA
BRANCH  17  19
ATOM     19  N   UNL     1       6.241   4.222  18.408  0.00  0.00    +0.000 NA
ATOM     20  C   UNL     1       7.236   4.696  17.736  0.00  0.00    +0.000 C 
ATOM     21  N   UNL     1       7.254   5.682  16.804  0.00  0.00    +0.000 N 
ATOM     22  N   UNL     1       8.482   4.202  17.903  0.00  0.00    +0.000 N 
ATOM     23  H   UNL     1       6.404   6.239  16.833  0.00  0.00    +0.000 HD
ATOM     24  H   UNL     1       8.073   6.273  16.866  0.00  0.00    +0.000 HD
ATOM     25  H   UNL     1       8.476   3.299  18.367  0.00  0.00    +0.000 HD
ATOM     26  H   UNL     1       9.046   4.192  17.059  0.00  0.00    +0.000 HD
ENDBRANCH  17  19
ENDBRANCH   8  14
BRANCH   1  28
ATOM     27  C   UNL     1      -2.087  14.202  23.317  0.00  0.00    +0.000 C 
ATOM     28  C   UNL     1      -2.168  13.486  21.951  0.00  0.00    +0.000 C 
ATOM     29  C   UNL     1      -3.664  13.300  21.618  0.00  0.00    +0.000 C 
ATOM     30  C   UNL     1      -1.539  14.432  20.901  0.00  0.00    +0.000 C 
ENDBRANCH   1  28
TORSDOF 3
ENDMDL
