MODEL 1
REMARK VINA RESULT:      -9.4      0.000      0.000
REMARK  Name = 
REMARK  7 active torsions:
REMARK  status: ('A' for Active; 'I' for Inactive)
REMARK    1  A    between atoms: C_1  and  C_2
REMARK    2  A    between atoms: C_4  and  C_5
REMARK    3  A    between atoms: C_12  and  C_13
REMARK    4  A    between atoms: C_13  and  C_14
REMARK    5  A    between atoms: C_14  and  C_15
REMARK    6  A    between atoms: N_22  and  C_23
REMARK    7  A    between atoms: C_30  and  C_31
REMARK                            x       y       z     vdW  Elec       q    Type
REMARK                         _______ _______ _______ _____ _____    ______ ____
ROOT
ATOM      1  C   UNL     1       1.523   8.819  19.187  0.00  0.00    +0.000 A 
ATOM      2  C   UNL     1       2.219   9.267  18.052  0.00  0.00    +0.000 A 
ATOM      3  F   UNL     1       1.997  10.493  17.552  0.00  0.00    +0.000 F 
ATOM      4  C   UNL     1       3.165   8.485  17.406  0.00  0.00    +0.000 A 
ATOM      5  C   UNL     1       3.463   7.216  17.904  0.00  0.00    +0.000 A 
ATOM      6  C   UNL     1       4.483   6.404  17.202  0.00  0.00    +0.000 A 
ATOM      7  O   UNL     1       5.056   6.847  16.213  0.00  0.00    +0.000 OA
ATOM      8  C   UNL     1       4.773   5.043  17.725  0.00  0.00    +0.000 A 
ATOM      9  C   UNL     1       4.081   4.657  18.806  0.00  0.00    +0.000 A 
ATOM     10  N   UNL     1       3.159   5.401  19.509  0.00  0.00    +0.000 N 
ATOM     11  C   UNL     1       2.813   6.703  19.040  0.00  0.00    +0.000 A 
ATOM     12  C   UNL     1       1.841   7.522  19.648  0.00  0.00    +0.000 A 
ATOM     13  F   UNL     1       1.163   7.044  20.706  0.00  0.00    +0.000 F 
ENDROOT
BRANCH   1  17
ATOM     14  C   UNL     1      -0.776  10.487  23.336  0.00  0.00    +0.000 C 
ATOM     15  C   UNL     1      -0.595  10.491  21.849  0.00  0.00    +0.000 A 
ATOM     16  C   UNL     1       0.384   9.703  21.250  0.00  0.00    +0.000 A 
ATOM     17  C   UNL     1       0.505   9.664  19.858  0.00  0.00    +0.000 A 
ATOM     18  C   UNL     1      -0.389  10.461  19.126  0.00  0.00    +0.000 A 
ATOM     19  C   UNL     1      -1.316  11.259  19.788  0.00  0.00    +0.000 A 
ATOM     20  C   UNL     1      -2.234  12.161  19.018  0.00  0.00    +0.000 C 
ATOM     21  N   UNL     1      -1.436  11.273  21.134  0.00  0.00    +0.000 NA
ENDBRANCH   1  17
BRANCH  10  22
ATOM     22  C   UNL     1       2.461   4.769  20.650  0.00  0.00    +0.000 C 
ATOM     23  C   UNL     1       1.249   3.874  20.533  0.00  0.00    +0.000 C 
ATOM     24  C   UNL     1       2.578   3.283  20.885  0.00  0.00    +0.000 C 
ENDBRANCH  10  22
BRANCH   8  25
ATOM     25  C   UNL     1       5.790   4.214  16.986  0.00  0.00    +0.000 C 
BRANCH  25  26
ATOM     26  C   UNL     1       5.250   3.559  15.710  0.00  0.00    +0.000 C 
BRANCH  26  27
ATOM     27  C   UNL     1       6.040   3.945  14.491  0.00  0.00    +0.000 A 
ATOM     28  C   UNL     1       5.729   3.381  13.247  0.00  0.00    +0.000 A 
ATOM     29  C   UNL     1       6.442   3.752  12.108  0.00  0.00    +0.000 A 
ATOM     30  C   UNL     1       7.474   4.683  12.208  0.00  0.00    +0.000 A 
ATOM     31  C   UNL     1       7.803   5.232  13.447  0.00  0.00    +0.000 A 
ATOM     32  C   UNL     1       7.091   4.864  14.587  0.00  0.00    +0.000 A 
ENDBRANCH  26  27
ENDBRANCH  25  26
ENDBRANCH   8  25
TORSDOF 5
ENDMDL
MODEL 2
REMARK VINA RESULT:      -9.4      0.022      1.471
REMARK  Name = 
REMARK  7 active torsions:
REMARK  status: ('A' for Active; 'I' for Inactive)
REMARK    1  A    between atoms: C_1  and  C_2
REMARK    2  A    between atoms: C_4  and  C_5
REMARK    3  A    between atoms: C_12  and  C_13
REMARK    4  A    between atoms: C_13  and  C_14
REMARK    5  A    between atoms: C_14  and  C_15
REMARK    6  A    between atoms: N_22  and  C_23
REMARK    7  A    between atoms: C_30  and  C_31
REMARK                            x       y       z     vdW  Elec       q    Type
REMARK                         _______ _______ _______ _____ _____    ______ ____
ROOT
ATOM      1  C   UNL     1       1.512   8.829  19.170  0.00  0.00    +0.000 A 
ATOM      2  C   UNL     1       2.211   9.279  18.037  0.00  0.00    +0.000 A 
ATOM      3  F   UNL     1       1.990  10.505  17.538  0.00  0.00    +0.000 F 
ATOM      4  C   UNL     1       3.159   8.498  17.392  0.00  0.00    +0.000 A 
ATOM      5  C   UNL     1       3.456   7.229  17.889  0.00  0.00    +0.000 A 
ATOM      6  C   UNL     1       4.477   6.418  17.188  0.00  0.00    +0.000 A 
ATOM      7  O   UNL     1       5.052   6.862  16.200  0.00  0.00    +0.000 OA
ATOM      8  C   UNL     1       4.767   5.056  17.709  0.00  0.00    +0.000 A 
ATOM      9  C   UNL     1       4.072   4.669  18.788  0.00  0.00    +0.000 A 
ATOM     10  N   UNL     1       3.149   5.412  19.490  0.00  0.00    +0.000 N 
ATOM     11  C   UNL     1       2.803   6.714  19.022  0.00  0.00    +0.000 A 
ATOM     12  C   UNL     1       1.830   7.532  19.630  0.00  0.00    +0.000 A 
ATOM     13  F   UNL     1       1.150   7.052  20.686  0.00  0.00    +0.000 F 
ENDROOT
BRANCH   1  17
ATOM     14  C   UNL     1      -2.250  12.161  19.000  0.00  0.00    +0.000 C 
ATOM     15  C   UNL     1      -1.334  11.260  19.770  0.00  0.00    +0.000 A 
ATOM     16  C   UNL     1      -0.402  10.463  19.111  0.00  0.00    +0.000 A 
ATOM     17  C   UNL     1       0.493   9.673  19.840  0.00  0.00    +0.000 A 
ATOM     18  C   UNL     1       0.379   9.721  21.238  0.00  0.00    +0.000 A 
ATOM     19  C   UNL     1      -0.604  10.505  21.833  0.00  0.00    +0.000 A 
ATOM     20  C   UNL     1      -0.773  10.516  23.323  0.00  0.00    +0.000 C 
ATOM     21  N   UNL     1      -1.449  11.280  21.118  0.00  0.00    +0.000 NA
ENDBRANCH   1  17
BRANCH  10  22
ATOM     22  C   UNL     1       2.449   4.778  20.629  0.00  0.00    +0.000 C 
ATOM     23  C   UNL     1       1.250   3.866  20.506  0.00  0.00    +0.000 C 
ATOM     24  C   UNL     1       2.584   3.295  20.875  0.00  0.00    +0.000 C 
ENDBRANCH  10  22
BRANCH   8  25
ATOM     25  C   UNL     1       5.785   4.229  16.971  0.00  0.00    +0.000 C 
BRANCH  25  26
ATOM     26  C   UNL     1       5.245   3.569  15.697  0.00  0.00    +0.000 C 
BRANCH  26  27
ATOM     27  C   UNL     1       6.035   3.951  14.477  0.00  0.00    +0.000 A 
ATOM     28  C   UNL     1       5.728   3.378  13.236  0.00  0.00    +0.000 A 
ATOM     29  C   UNL     1       6.440   3.746  12.096  0.00  0.00    +0.000 A 
ATOM     30  C   UNL     1       7.468   4.682  12.192  0.00  0.00    +0.000 A 
ATOM     31  C   UNL     1       7.793   5.241  13.427  0.00  0.00    +0.000 A 
ATOM     32  C   UNL     1       7.082   4.876  14.568  0.00  0.00    +0.000 A 
ENDBRANCH  26  27
ENDBRANCH  25  26
ENDBRANCH   8  25
TORSDOF 5
ENDMDL
MODEL 3
REMARK VINA RESULT:      -8.4      3.086     10.412
REMARK  Name = 
REMARK  7 active torsions:
REMARK  status: ('A' for Active; 'I' for Inactive)
REMARK    1  A    between atoms: C_1  and  C_2
REMARK    2  A    between atoms: C_4  and  C_5
REMARK    3  A    between atoms: C_12  and  C_13
REMARK    4  A    between atoms: C_13  and  C_14
REMARK    5  A    between atoms: C_14  and  C_15
REMARK    6  A    between atoms: N_22  and  C_23
REMARK    7  A    between atoms: C_30  and  C_31
REMARK                            x       y       z     vdW  Elec       q    Type
REMARK                         _______ _______ _______ _____ _____    ______ ____
ROOT
ATOM      1  C   UNL     1       1.989   7.488  19.542  0.00  0.00    +0.000 A 
ATOM      2  C   UNL     1       1.528   7.034  20.788  0.00  0.00    +0.000 A 
ATOM      3  F   UNL     1       1.758   5.773  21.186  0.00  0.00    +0.000 F 
ATOM      4  C   UNL     1       0.832   7.854  21.665  0.00  0.00    +0.000 A 
ATOM      5  C   UNL     1       0.596   9.184  21.319  0.00  0.00    +0.000 A 
ATOM      6  C   UNL     1      -0.142  10.041  22.276  0.00  0.00    +0.000 A 
ATOM      7  O   UNL     1      -0.524   9.588  23.348  0.00  0.00    +0.000 OA
ATOM      8  C   UNL     1      -0.411  11.451  21.886  0.00  0.00    +0.000 A 
ATOM      9  C   UNL     1       0.043  11.837  20.686  0.00  0.00    +0.000 A 
ATOM     10  N   UNL     1       0.769  11.081  19.792  0.00  0.00    +0.000 N 
ATOM     11  C   UNL     1       1.034   9.712  20.093  0.00  0.00    +0.000 A 
ATOM     12  C   UNL     1       1.714   8.837  19.223  0.00  0.00    +0.000 A 
ATOM     13  F   UNL     1       2.103   9.293  18.020  0.00  0.00    +0.000 F 
ENDROOT
BRANCH   1  17
ATOM     14  C   UNL     1       5.738   6.617  16.306  0.00  0.00    +0.000 C 
ATOM     15  C   UNL     1       4.533   6.155  17.068  0.00  0.00    +0.000 A 
ATOM     16  C   UNL     1       3.881   7.011  17.951  0.00  0.00    +0.000 A 
ATOM     17  C   UNL     1       2.721   6.594  18.611  0.00  0.00    +0.000 A 
ATOM     18  C   UNL     1       2.281   5.288  18.346  0.00  0.00    +0.000 A 
ATOM     19  C   UNL     1       3.004   4.468  17.486  0.00  0.00    +0.000 A 
ATOM     20  C   UNL     1       2.578   3.051  17.244  0.00  0.00    +0.000 C 
ATOM     21  N   UNL     1       4.113   4.890  16.838  0.00  0.00    +0.000 NA
ENDBRANCH   1  17
BRANCH  10  22
ATOM     22  C   UNL     1       1.133  11.681  18.489  0.00  0.00    +0.000 C 
ATOM     23  C   UNL     1       1.098  13.160  18.179  0.00  0.00    +0.000 C 
ATOM     24  C   UNL     1       2.414  12.465  18.344  0.00  0.00    +0.000 C 
ENDBRANCH  10  22
BRANCH   8  25
ATOM     25  C   UNL     1      -1.189  12.304  22.852  0.00  0.00    +0.000 C 
BRANCH  25  26
ATOM     26  C   UNL     1      -2.288  13.146  22.194  0.00  0.00    +0.000 C 
BRANCH  26  27
ATOM     27  C   UNL     1      -3.627  12.950  22.850  0.00  0.00    +0.000 A 
ATOM     28  C   UNL     1      -3.699  12.482  24.167  0.00  0.00    +0.000 A 
ATOM     29  C   UNL     1      -4.936  12.321  24.790  0.00  0.00    +0.000 A 
ATOM     30  C   UNL     1      -6.107  12.620  24.094  0.00  0.00    +0.000 A 
ATOM     31  C   UNL     1      -6.043  13.066  22.775  0.00  0.00    +0.000 A 
ATOM     32  C   UNL     1      -4.808  13.230  22.151  0.00  0.00    +0.000 A 
ENDBRANCH  26  27
ENDBRANCH  25  26
ENDBRANCH   8  25
TORSDOF 5
ENDMDL
MODEL 4
REMARK VINA RESULT:      -8.4      1.552      2.943
REMARK  Name = 
REMARK  7 active torsions:
REMARK  status: ('A' for Active; 'I' for Inactive)
REMARK    1  A    between atoms: C_1  and  C_2
REMARK    2  A    between atoms: C_4  and  C_5
REMARK    3  A    between atoms: C_12  and  C_13
REMARK    4  A    between atoms: C_13  and  C_14
REMARK    5  A    between atoms: C_14  and  C_15
REMARK    6  A    between atoms: N_22  and  C_23
REMARK    7  A    between atoms: C_30  and  C_31
REMARK                            x       y       z     vdW  Elec       q    Type
REMARK                         _______ _______ _______ _____ _____    ______ ____
ROOT
ATOM      1  C   UNL     1       1.790   8.369  19.252  0.00  0.00    +0.000 A 
ATOM      2  C   UNL     1       2.310   8.879  18.051  0.00  0.00    +0.000 A 
ATOM      3  F   UNL     1       2.047  10.138  17.670  0.00  0.00    +0.000 F 
ATOM      4  C   UNL     1       3.121   8.124  17.216  0.00  0.00    +0.000 A 
ATOM      5  C   UNL     1       3.458   6.821  17.580  0.00  0.00    +0.000 A 
ATOM      6  C   UNL     1       4.332   6.039  16.675  0.00  0.00    +0.000 A 
ATOM      7  O   UNL     1       4.754   6.535  15.637  0.00  0.00    +0.000 OA
ATOM      8  C   UNL     1       4.663   4.642  17.060  0.00  0.00    +0.000 A 
ATOM      9  C   UNL     1       4.140   4.197  18.211  0.00  0.00    +0.000 A 
ATOM     10  N   UNL     1       3.361   4.910  19.096  0.00  0.00    +0.000 N 
ATOM     11  C   UNL     1       2.982   6.245  18.770  0.00  0.00    +0.000 A 
ATOM     12  C   UNL     1       2.141   7.039  19.576  0.00  0.00    +0.000 A 
ATOM     13  F   UNL     1       1.625   6.505  20.696  0.00  0.00    +0.000 F 
ENDROOT
BRANCH   1  17
ATOM     14  C   UNL     1      -1.606  12.017  19.914  0.00  0.00    +0.000 C 
ATOM     15  C   UNL     1      -0.737  10.925  20.457  0.00  0.00    +0.000 A 
ATOM     16  C   UNL     1       0.058  10.161  19.607  0.00  0.00    +0.000 A 
ATOM     17  C   UNL     1       0.914   9.186  20.128  0.00  0.00    +0.000 A 
ATOM     18  C   UNL     1       0.906   9.020  21.522  0.00  0.00    +0.000 A 
ATOM     19  C   UNL     1       0.055   9.787  22.311  0.00  0.00    +0.000 A 
ATOM     20  C   UNL     1      -0.006   9.576  23.795  0.00  0.00    +0.000 C 
ATOM     21  N   UNL     1      -0.753  10.741  21.798  0.00  0.00    +0.000 NA
ENDBRANCH   1  17
BRANCH  10  22
ATOM     22  C   UNL     1       2.835   4.216  20.292  0.00  0.00    +0.000 C 
ATOM     23  C   UNL     1       1.593   3.355  20.315  0.00  0.00    +0.000 C 
ATOM     24  C   UNL     1       2.943   2.715  20.411  0.00  0.00    +0.000 C 
ENDBRANCH  10  22
BRANCH   8  25
ATOM     25  C   UNL     1       5.527   3.846  16.118  0.00  0.00    +0.000 C 
BRANCH  25  26
ATOM     26  C   UNL     1       6.910   4.460  15.872  0.00  0.00    +0.000 C 
BRANCH  26  27
ATOM     27  C   UNL     1       7.378   5.296  17.030  0.00  0.00    +0.000 A 
ATOM     28  C   UNL     1       7.485   6.686  16.892  0.00  0.00    +0.000 A 
ATOM     29  C   UNL     1       7.896   7.470  17.969  0.00  0.00    +0.000 A 
ATOM     30  C   UNL     1       8.209   6.867  19.187  0.00  0.00    +0.000 A 
ATOM     31  C   UNL     1       8.125   5.482  19.324  0.00  0.00    +0.000 A 
ATOM     32  C   UNL     1       7.713   4.697  18.250  0.00  0.00    +0.000 A 
ENDBRANCH  26  27
ENDBRANCH  25  26
ENDBRANCH   8  25
TORSDOF 5
ENDMDL
MODEL 5
REMARK VINA RESULT:      -8.4      3.109     10.400
REMARK  Name = 
REMARK  7 active torsions:
REMARK  status: ('A' for Active; 'I' for Inactive)
REMARK    1  A    between atoms: C_1  and  C_2
REMARK    2  A    between atoms: C_4  and  C_5
REMARK    3  A    between atoms: C_12  and  C_13
REMARK    4  A    between atoms: C_13  and  C_14
REMARK    5  A    between atoms: C_14  and  C_15
REMARK    6  A    between atoms: N_22  and  C_23
REMARK    7  A    between atoms: C_30  and  C_31
REMARK                            x       y       z     vdW  Elec       q    Type
REMARK                         _______ _______ _______ _____ _____    ______ ____
ROOT
ATOM      1  C   UNL     1       1.953   7.560  19.565  0.00  0.00    +0.000 A 
ATOM      2  C   UNL     1       1.445   7.118  20.798  0.00  0.00    +0.000 A 
ATOM      3  F   UNL     1       1.633   5.852  21.203  0.00  0.00    +0.000 F 
ATOM      4  C   UNL     1       0.745   7.956  21.654  0.00  0.00    +0.000 A 
ATOM      5  C   UNL     1       0.551   9.291  21.302  0.00  0.00    +0.000 A 
ATOM      6  C   UNL     1      -0.192  10.167  22.237  0.00  0.00    +0.000 A 
ATOM      7  O   UNL     1      -0.616   9.724  23.299  0.00  0.00    +0.000 OA
ATOM      8  C   UNL     1      -0.416  11.582  21.840  0.00  0.00    +0.000 A 
ATOM      9  C   UNL     1       0.081  11.956  20.653  0.00  0.00    +0.000 A 
ATOM     10  N   UNL     1       0.814  11.182  19.780  0.00  0.00    +0.000 N 
ATOM     11  C   UNL     1       1.036   9.808  20.088  0.00  0.00    +0.000 A 
ATOM     12  C   UNL     1       1.719   8.915  19.238  0.00  0.00    +0.000 A 
ATOM     13  F   UNL     1       2.153   9.361  18.047  0.00  0.00    +0.000 F 
ENDROOT
BRANCH   1  17
ATOM     14  C   UNL     1       2.555   3.080  17.363  0.00  0.00    +0.000 C 
ATOM     15  C   UNL     1       2.977   4.503  17.573  0.00  0.00    +0.000 A 
ATOM     16  C   UNL     1       2.253   5.341  18.416  0.00  0.00    +0.000 A 
ATOM     17  C   UNL     1       2.688   6.648  18.656  0.00  0.00    +0.000 A 
ATOM     18  C   UNL     1       3.859   7.053  17.995  0.00  0.00    +0.000 A 
ATOM     19  C   UNL     1       4.511   6.179  17.131  0.00  0.00    +0.000 A 
ATOM     20  C   UNL     1       5.728   6.622  16.374  0.00  0.00    +0.000 C 
ATOM     21  N   UNL     1       4.092   4.911  16.924  0.00  0.00    +0.000 NA
ENDBRANCH   1  17
BRANCH  10  22
ATOM     22  C   UNL     1       1.229  11.772  18.488  0.00  0.00    +0.000 C 
ATOM     23  C   UNL     1       1.166  13.244  18.151  0.00  0.00    +0.000 C 
ATOM     24  C   UNL     1       2.492  12.594  18.397  0.00  0.00    +0.000 C 
ENDBRANCH  10  22
BRANCH   8  25
ATOM     25  C   UNL     1      -1.199  12.455  22.784  0.00  0.00    +0.000 C 
BRANCH  25  26
ATOM     26  C   UNL     1      -2.362  13.203  22.121  0.00  0.00    +0.000 C 
BRANCH  26  27
ATOM     27  C   UNL     1      -3.659  13.011  22.857  0.00  0.00    +0.000 A 
ATOM     28  C   UNL     1      -4.868  13.372  22.250  0.00  0.00    +0.000 A 
ATOM     29  C   UNL     1      -6.076  13.174  22.918  0.00  0.00    +0.000 A 
ATOM     30  C   UNL     1      -6.080  12.622  24.197  0.00  0.00    +0.000 A 
ATOM     31  C   UNL     1      -4.878  12.280  24.815  0.00  0.00    +0.000 A 
ATOM     32  C   UNL     1      -3.669  12.475  24.150  0.00  0.00    +0.000 A 
ENDBRANCH  26  27
ENDBRANCH  25  26
ENDBRANCH   8  25
TORSDOF 5
ENDMDL
MODEL 6
REMARK VINA RESULT:      -8.3      0.985      2.052
REMARK  Name = 
REMARK  7 active torsions:
REMARK  status: ('A' for Active; 'I' for Inactive)
REMARK    1  A    between atoms: C_1  and  C_2
REMARK    2  A    between atoms: C_4  and  C_5
REMARK    3  A    between atoms: C_12  and  C_13
REMARK    4  A    between atoms: C_13  and  C_14
REMARK    5  A    between atoms: C_14  and  C_15
REMARK    6  A    between atoms: N_22  and  C_23
REMARK    7  A    between atoms: C_30  and  C_31
REMARK                            x       y       z     vdW  Elec       q    Type
REMARK                         _______ _______ _______ _____ _____    ______ ____
ROOT
ATOM      1  C   UNL     1       2.015   8.256  19.022  0.00  0.00    +0.000 A 
ATOM      2  C   UNL     1       2.671   8.839  17.925  0.00  0.00    +0.000 A 
ATOM      3  F   UNL     1       2.456  10.124  17.601  0.00  0.00    +0.000 F 
ATOM      4  C   UNL     1       3.569   8.133  17.137  0.00  0.00    +0.000 A 
ATOM      5  C   UNL     1       3.858   6.805  17.448  0.00  0.00    +0.000 A 
ATOM      6  C   UNL     1       4.826   6.075  16.598  0.00  0.00    +0.000 A 
ATOM      7  O   UNL     1       5.365   6.635  15.650  0.00  0.00    +0.000 OA
ATOM      8  C   UNL     1       5.107   4.652  16.923  0.00  0.00    +0.000 A 
ATOM      9  C   UNL     1       4.454   4.138  17.974  0.00  0.00    +0.000 A 
ATOM     10  N   UNL     1       3.582   4.798  18.812  0.00  0.00    +0.000 N 
ATOM     11  C   UNL     1       3.247   6.156  18.536  0.00  0.00    +0.000 A 
ATOM     12  C   UNL     1       2.323   6.904  19.292  0.00  0.00    +0.000 A 
ATOM     13  F   UNL     1       1.681   6.302  20.308  0.00  0.00    +0.000 F 
ENDROOT
BRANCH   1  17
ATOM     14  C   UNL     1      -1.736  11.576  19.463  0.00  0.00    +0.000 C 
ATOM     15  C   UNL     1      -0.772  10.602  20.069  0.00  0.00    +0.000 A 
ATOM     16  C   UNL     1       0.109   9.881  19.267  0.00  0.00    +0.000 A 
ATOM     17  C   UNL     1       1.048   9.022  19.846  0.00  0.00    +0.000 A 
ATOM     18  C   UNL     1       1.033   8.923  21.246  0.00  0.00    +0.000 A 
ATOM     19  C   UNL     1       0.097   9.639  21.986  0.00  0.00    +0.000 A 
ATOM     20  C   UNL     1       0.032   9.493  23.478  0.00  0.00    +0.000 C 
ATOM     21  N   UNL     1      -0.792  10.481  21.417  0.00  0.00    +0.000 NA
ENDBRANCH   1  17
BRANCH  10  22
ATOM     22  C   UNL     1       2.921   4.032  19.891  0.00  0.00    +0.000 C 
ATOM     23  C   UNL     1       1.695   3.167  19.710  0.00  0.00    +0.000 C 
ATOM     24  C   UNL     1       3.030   2.527  19.934  0.00  0.00    +0.000 C 
ENDBRANCH  10  22
BRANCH   8  25
ATOM     25  C   UNL     1       6.070   3.911  16.033  0.00  0.00    +0.000 C 
BRANCH  25  26
ATOM     26  C   UNL     1       6.496   4.695  14.787  0.00  0.00    +0.000 C 
BRANCH  26  27
ATOM     27  C   UNL     1       6.135   3.984  13.513  0.00  0.00    +0.000 A 
ATOM     28  C   UNL     1       7.144   3.459  12.695  0.00  0.00    +0.000 A 
ATOM     29  C   UNL     1       6.816   2.777  11.524  0.00  0.00    +0.000 A 
ATOM     30  C   UNL     1       5.479   2.624  11.161  0.00  0.00    +0.000 A 
ATOM     31  C   UNL     1       4.471   3.162  11.960  0.00  0.00    +0.000 A 
ATOM     32  C   UNL     1       4.796   3.843  13.132  0.00  0.00    +0.000 A 
ENDBRANCH  26  27
ENDBRANCH  25  26
ENDBRANCH   8  25
TORSDOF 5
ENDMDL
MODEL 7
REMARK VINA RESULT:      -8.3      3.258      9.000
REMARK  Name = 
REMARK  7 active torsions:
REMARK  status: ('A' for Active; 'I' for Inactive)
REMARK    1  A    between atoms: C_1  and  C_2
REMARK    2  A    between atoms: C_4  and  C_5
REMARK    3  A    between atoms: C_12  and  C_13
REMARK    4  A    between atoms: C_13  and  C_14
REMARK    5  A    between atoms: C_14  and  C_15
REMARK    6  A    between atoms: N_22  and  C_23
REMARK    7  A    between atoms: C_30  and  C_31
REMARK                            x       y       z     vdW  Elec       q    Type
REMARK                         _______ _______ _______ _____ _____    ______ ____
ROOT
ATOM      1  C   UNL     1       2.151   7.689  18.919  0.00  0.00    +0.000 A 
ATOM      2  C   UNL     1       2.500   8.548  17.864  0.00  0.00    +0.000 A 
ATOM      3  F   UNL     1       3.245   8.107  16.839  0.00  0.00    +0.000 F 
ATOM      4  C   UNL     1       2.090   9.873  17.821  0.00  0.00    +0.000 A 
ATOM      5  C   UNL     1       1.283  10.376  18.841  0.00  0.00    +0.000 A 
ATOM      6  C   UNL     1       0.851  11.791  18.767  0.00  0.00    +0.000 A 
ATOM      7  O   UNL     1       1.191  12.494  17.823  0.00  0.00    +0.000 OA
ATOM      8  C   UNL     1       0.014  12.324  19.874  0.00  0.00    +0.000 A 
ATOM      9  C   UNL     1      -0.289  11.469  20.861  0.00  0.00    +0.000 A 
ATOM     10  N   UNL     1       0.058  10.138  20.940  0.00  0.00    +0.000 N 
ATOM     11  C   UNL     1       0.887   9.574  19.926  0.00  0.00    +0.000 A 
ATOM     12  C   UNL     1       1.348   8.242  19.942  0.00  0.00    +0.000 A 
ATOM     13  F   UNL     1       1.031   7.461  20.988  0.00  0.00    +0.000 F 
ENDROOT
BRANCH   1  17
ATOM     14  C   UNL     1       5.813   4.252  19.160  0.00  0.00    +0.000 C 
ATOM     15  C   UNL     1       4.361   4.615  19.094  0.00  0.00    +0.000 A 
ATOM     16  C   UNL     1       3.961   5.948  19.082  0.00  0.00    +0.000 A 
ATOM     17  C   UNL     1       2.608   6.278  18.956  0.00  0.00    +0.000 A 
ATOM     18  C   UNL     1       1.705   5.208  18.864  0.00  0.00    +0.000 A 
ATOM     19  C   UNL     1       2.166   3.897  18.925  0.00  0.00    +0.000 A 
ATOM     20  C   UNL     1       1.204   2.747  18.888  0.00  0.00    +0.000 C 
ATOM     21  N   UNL     1       3.478   3.591  19.026  0.00  0.00    +0.000 NA
ENDBRANCH   1  17
BRANCH  10  22
ATOM     22  C   UNL     1      -0.332   9.375  22.146  0.00  0.00    +0.000 C 
ATOM     23  C   UNL     1       0.386   9.433  23.474  0.00  0.00    +0.000 C 
ATOM     24  C   UNL     1      -0.954  10.082  23.325  0.00  0.00    +0.000 C 
ENDBRANCH  10  22
BRANCH   8  25
ATOM     25  C   UNL     1      -0.394  13.771  19.804  0.00  0.00    +0.000 C 
BRANCH  25  26
ATOM     26  C   UNL     1       0.761  14.755  20.026  0.00  0.00    +0.000 C 
BRANCH  26  27
ATOM     27  C   UNL     1       0.734  15.899  19.052  0.00  0.00    +0.000 A 
ATOM     28  C   UNL     1      -0.485  16.502  18.715  0.00  0.00    +0.000 A 
ATOM     29  C   UNL     1      -0.515  17.579  17.830  0.00  0.00    +0.000 A 
ATOM     30  C   UNL     1       0.671  18.053  17.272  0.00  0.00    +0.000 A 
ATOM     31  C   UNL     1       1.885  17.443  17.587  0.00  0.00    +0.000 A 
ATOM     32  C   UNL     1       1.919  16.368  18.472  0.00  0.00    +0.000 A 
ENDBRANCH  26  27
ENDBRANCH  25  26
ENDBRANCH   8  25
TORSDOF 5
ENDMDL
MODEL 8
REMARK VINA RESULT:      -8.3      3.265      8.924
REMARK  Name = 
REMARK  7 active torsions:
REMARK  status: ('A' for Active; 'I' for Inactive)
REMARK    1  A    between atoms: C_1  and  C_2
REMARK    2  A    between atoms: C_4  and  C_5
REMARK    3  A    between atoms: C_12  and  C_13
REMARK    4  A    between atoms: C_13  and  C_14
REMARK    5  A    between atoms: C_14  and  C_15
REMARK    6  A    between atoms: N_22  and  C_23
REMARK    7  A    between atoms: C_30  and  C_31
REMARK                            x       y       z     vdW  Elec       q    Type
REMARK                         _______ _______ _______ _____ _____    ______ ____
ROOT
ATOM      1  C   UNL     1       2.146   7.699  18.948  0.00  0.00    +0.000 A 
ATOM      2  C   UNL     1       2.510   8.545  17.887  0.00  0.00    +0.000 A 
ATOM      3  F   UNL     1       3.266   8.089  16.876  0.00  0.00    +0.000 F 
ATOM      4  C   UNL     1       2.105   9.870  17.823  0.00  0.00    +0.000 A 
ATOM      5  C   UNL     1       1.287  10.388  18.828  0.00  0.00    +0.000 A 
ATOM      6  C   UNL     1       0.861  11.803  18.732  0.00  0.00    +0.000 A 
ATOM      7  O   UNL     1       1.214  12.494  17.784  0.00  0.00    +0.000 OA
ATOM      8  C   UNL     1       0.012  12.352  19.822  0.00  0.00    +0.000 A 
ATOM      9  C   UNL     1      -0.305  11.510  20.815  0.00  0.00    +0.000 A 
ATOM     10  N   UNL     1       0.036  10.179  20.914  0.00  0.00    +0.000 N 
ATOM     11  C   UNL     1       0.875   9.600  19.917  0.00  0.00    +0.000 A 
ATOM     12  C   UNL     1       1.332   8.267  19.954  0.00  0.00    +0.000 A 
ATOM     13  F   UNL     1       1.000   7.499  21.006  0.00  0.00    +0.000 F 
ENDROOT
BRANCH   1  17
ATOM     14  C   UNL     1       1.181   2.766  19.062  0.00  0.00    +0.000 C 
ATOM     15  C   UNL     1       2.148   3.910  19.041  0.00  0.00    +0.000 A 
ATOM     16  C   UNL     1       1.693   5.223  18.962  0.00  0.00    +0.000 A 
ATOM     17  C   UNL     1       2.598   6.288  19.008  0.00  0.00    +0.000 A 
ATOM     18  C   UNL     1       3.958   5.954  19.116  0.00  0.00    +0.000 A 
ATOM     19  C   UNL     1       4.349   4.620  19.146  0.00  0.00    +0.000 A 
ATOM     20  C   UNL     1       5.802   4.252  19.199  0.00  0.00    +0.000 C 
ATOM     21  N   UNL     1       3.463   3.600  19.122  0.00  0.00    +0.000 NA
ENDBRANCH   1  17
BRANCH  10  22
ATOM     22  C   UNL     1      -0.371   9.432  22.124  0.00  0.00    +0.000 C 
ATOM     23  C   UNL     1       0.341   9.492  23.456  0.00  0.00    +0.000 C 
ATOM     24  C   UNL     1      -0.990  10.157  23.294  0.00  0.00    +0.000 C 
ENDBRANCH  10  22
BRANCH   8  25
ATOM     25  C   UNL     1      -0.390  13.800  19.730  0.00  0.00    +0.000 C 
BRANCH  25  26
ATOM     26  C   UNL     1       0.711  14.779  20.153  0.00  0.00    +0.000 C 
BRANCH  26  27
ATOM     27  C   UNL     1       0.977  15.826  19.107  0.00  0.00    +0.000 A 
ATOM     28  C   UNL     1      -0.054  16.675  18.688  0.00  0.00    +0.000 A 
ATOM     29  C   UNL     1       0.192  17.664  17.736  0.00  0.00    +0.000 A 
ATOM     30  C   UNL     1       1.468  17.802  17.193  0.00  0.00    +0.000 A 
ATOM     31  C   UNL     1       2.494  16.945  17.590  0.00  0.00    +0.000 A 
ATOM     32  C   UNL     1       2.252  15.958  18.543  0.00  0.00    +0.000 A 
ENDBRANCH  26  27
ENDBRANCH  25  26
ENDBRANCH   8  25
TORSDOF 5
ENDMDL
MODEL 9
REMARK VINA RESULT:      -8.1      2.930      9.981
REMARK  Name = 
REMARK  7 active torsions:
REMARK  status: ('A' for Active; 'I' for Inactive)
REMARK    1  A    between atoms: C_1  and  C_2
REMARK    2  A    between atoms: C_4  and  C_5
REMARK    3  A    between atoms: C_12  and  C_13
REMARK    4  A    between atoms: C_13  and  C_14
REMARK    5  A    between atoms: C_14  and  C_15
REMARK    6  A    between atoms: N_22  and  C_23
REMARK    7  A    between atoms: C_30  and  C_31
REMARK                            x       y       z     vdW  Elec       q    Type
REMARK                         _______ _______ _______ _____ _____    ______ ____
ROOT
ATOM      1  C   UNL     1       1.982   7.523  19.554  0.00  0.00    +0.000 A 
ATOM      2  C   UNL     1       1.518   7.070  20.800  0.00  0.00    +0.000 A 
ATOM      3  F   UNL     1       1.738   5.807  21.196  0.00  0.00    +0.000 F 
ATOM      4  C   UNL     1       0.828   7.895  21.678  0.00  0.00    +0.000 A 
ATOM      5  C   UNL     1       0.602   9.227  21.335  0.00  0.00    +0.000 A 
ATOM      6  C   UNL     1      -0.128  10.089  22.292  0.00  0.00    +0.000 A 
ATOM      7  O   UNL     1      -0.513   9.637  23.364  0.00  0.00    +0.000 OA
ATOM      8  C   UNL     1      -0.387  11.501  21.905  0.00  0.00    +0.000 A 
ATOM      9  C   UNL     1       0.071  11.885  20.705  0.00  0.00    +0.000 A 
ATOM     10  N   UNL     1       0.790  11.125  19.810  0.00  0.00    +0.000 N 
ATOM     11  C   UNL     1       1.044   9.754  20.109  0.00  0.00    +0.000 A 
ATOM     12  C   UNL     1       1.717   8.874  19.237  0.00  0.00    +0.000 A 
ATOM     13  F   UNL     1       2.110   9.329  18.035  0.00  0.00    +0.000 F 
ENDROOT
BRANCH   1  17
ATOM     14  C   UNL     1       2.544   3.084  17.259  0.00  0.00    +0.000 C 
ATOM     15  C   UNL     1       2.975   4.500  17.495  0.00  0.00    +0.000 A 
ATOM     16  C   UNL     1       2.262   5.325  18.359  0.00  0.00    +0.000 A 
ATOM     17  C   UNL     1       2.707   6.625  18.622  0.00  0.00    +0.000 A 
ATOM     18  C   UNL     1       3.876   7.035  17.962  0.00  0.00    +0.000 A 
ATOM     19  C   UNL     1       4.517   6.175  17.077  0.00  0.00    +0.000 A 
ATOM     20  C   UNL     1       5.731   6.626  16.320  0.00  0.00    +0.000 C 
ATOM     21  N   UNL     1       4.088   4.915  16.847  0.00  0.00    +0.000 NA
ENDBRANCH   1  17
BRANCH  10  22
ATOM     22  C   UNL     1       1.158  11.724  18.508  0.00  0.00    +0.000 C 
ATOM     23  C   UNL     1       1.086  13.198  18.184  0.00  0.00    +0.000 C 
ATOM     24  C   UNL     1       2.418  12.545  18.377  0.00  0.00    +0.000 C 
ENDBRANCH  10  22
BRANCH   8  25
ATOM     25  C   UNL     1      -1.157  12.359  22.873  0.00  0.00    +0.000 C 
BRANCH  25  26
ATOM     26  C   UNL     1      -1.882  13.540  22.217  0.00  0.00    +0.000 C 
BRANCH  26  27
ATOM     27  C   UNL     1      -3.287  13.194  21.812  0.00  0.00    +0.000 A 
ATOM     28  C   UNL     1      -3.576  12.889  20.476  0.00  0.00    +0.000 A 
ATOM     29  C   UNL     1      -4.873  12.544  20.098  0.00  0.00    +0.000 A 
ATOM     30  C   UNL     1      -5.888  12.510  21.052  0.00  0.00    +0.000 A 
ATOM     31  C   UNL     1      -5.612  12.833  22.380  0.00  0.00    +0.000 A 
ATOM     32  C   UNL     1      -4.316  13.176  22.761  0.00  0.00    +0.000 A 
ENDBRANCH  26  27
ENDBRANCH  25  26
ENDBRANCH   8  25
TORSDOF 5
ENDMDL
