MODEL 1
REMARK VINA RESULT:      -8.6      0.000      0.000
REMARK  Name = 
REMARK  5 active torsions:
REMARK  status: ('A' for Active; 'I' for Inactive)
REMARK    1  A    between atoms: C_1  and  C_2
REMARK    2  A    between atoms: C_2  and  C_3
REMARK    3  A    between atoms: C_6  and  C_7
REMARK    4  A    between atoms: C_15  and  N_16
REMARK    5  A    between atoms: C_17  and  C_19
REMARK                            x       y       z     vdW  Elec       q    Type
REMARK                         _______ _______ _______ _____ _____    ______ ____
ROOT
ATOM      1  C   UNL     1       2.009   2.808  18.941  0.00  0.00    +0.000 A 
ATOM      2  N   UNL     1       2.677   1.683  18.538  0.00  0.00    +0.000 N 
ATOM      3  N   UNL     1       3.665   1.912  17.663  0.00  0.00    +0.000 NA
ATOM      4  C   UNL     1       3.687   3.244  17.525  0.00  0.00    +0.000 A 
ATOM      5  C   UNL     1       2.625   3.849  18.275  0.00  0.00    +0.000 A 
ATOM      6  H   UNL     1       2.493   0.723  18.809  0.00  0.00    +0.000 HD
ENDROOT
BRANCH   4   7
ATOM      7  C   UNL     1       4.766   3.878  16.751  0.00  0.00    +0.000 A 
ATOM      8  C   UNL     1       5.815   4.562  17.391  0.00  0.00    +0.000 A 
ATOM      9  C   UNL     1       6.876   5.096  16.652  0.00  0.00    +0.000 A 
ATOM     10  C   UNL     1       6.902   4.929  15.273  0.00  0.00    +0.000 A 
ATOM     11  F   UNL     1       7.933   5.421  14.574  0.00  0.00    +0.000 F 
ATOM     12  C   UNL     1       5.882   4.241  14.632  0.00  0.00    +0.000 A 
ATOM     13  F   UNL     1       5.926   4.058  13.305  0.00  0.00    +0.000 F 
ATOM     14  C   UNL     1       4.816   3.719  15.358  0.00  0.00    +0.000 A 
ENDBRANCH   4   7
BRANCH   5  15
ATOM     15  N   UNL     1       2.258   5.191  18.290  0.00  0.00    +0.000 N 
ATOM     16  C   UNL     1       2.617   6.041  19.321  0.00  0.00    +0.000 C 
ATOM     17  O   UNL     1       3.301   5.735  20.294  0.00  0.00    +0.000 OA
ATOM     18  H   UNL     1       2.145   5.619  17.379  0.00  0.00    +0.000 HD
BRANCH  16  19
ATOM     19  C   UNL     1       2.215   7.468  19.151  0.00  0.00    +0.000 A 
ATOM     20  C   UNL     1       2.402   8.148  17.941  0.00  0.00    +0.000 A 
ATOM     21  C   UNL     1       1.938   9.461  17.798  0.00  0.00    +0.000 A 
ATOM     22  C   UNL     1       1.291  10.093  18.860  0.00  0.00    +0.000 A 
ATOM     23 CL   UNL     1       0.684  11.691  18.664  0.00  0.00    +0.000 Cl
ATOM     24  C   UNL     1       1.117   9.431  20.074  0.00  0.00    +0.000 A 
ATOM     25  C   UNL     1       1.578   8.118  20.218  0.00  0.00    +0.000 A 
ENDBRANCH  16  19
ENDBRANCH   5  15
BRANCH   1  27
ATOM     26  C   UNL     1       1.265   2.841  21.326  0.00  0.00    +0.000 C 
ATOM     27  C   UNL     1       0.850   2.692  19.870  0.00  0.00    +0.000 C 
ENDBRANCH   1  27
TORSDOF 4
ENDMDL
MODEL 2
REMARK VINA RESULT:      -8.5      0.588      1.370
REMARK  Name = 
REMARK  5 active torsions:
REMARK  status: ('A' for Active; 'I' for Inactive)
REMARK    1  A    between atoms: C_1  and  C_2
REMARK    2  A    between atoms: C_2  and  C_3
REMARK    3  A    between atoms: C_6  and  C_7
REMARK    4  A    between atoms: C_15  and  N_16
REMARK    5  A    between atoms: C_17  and  C_19
REMARK                            x       y       z     vdW  Elec       q    Type
REMARK                         _______ _______ _______ _____ _____    ______ ____
ROOT
ATOM      1  C   UNL     1       2.051   2.717  18.999  0.00  0.00    +0.000 A 
ATOM      2  N   UNL     1       2.716   1.585  18.613  0.00  0.00    +0.000 N 
ATOM      3  N   UNL     1       3.711   1.799  17.742  0.00  0.00    +0.000 NA
ATOM      4  C   UNL     1       3.740   3.129  17.589  0.00  0.00    +0.000 A 
ATOM      5  C   UNL     1       2.676   3.748  18.325  0.00  0.00    +0.000 A 
ATOM      6  H   UNL     1       2.525   0.629  18.893  0.00  0.00    +0.000 HD
ENDROOT
BRANCH   4   7
ATOM      7  C   UNL     1       4.828   3.749  16.815  0.00  0.00    +0.000 A 
ATOM      8  C   UNL     1       4.850   3.682  15.410  0.00  0.00    +0.000 A 
ATOM      9  C   UNL     1       5.847   4.337  14.680  0.00  0.00    +0.000 A 
ATOM     10  C   UNL     1       6.812   5.079  15.350  0.00  0.00    +0.000 A 
ATOM     11  F   UNL     1       7.749   5.724  14.644  0.00  0.00    +0.000 F 
ATOM     12  C   UNL     1       6.791   5.166  16.734  0.00  0.00    +0.000 A 
ATOM     13  F   UNL     1       7.707   5.906  17.376  0.00  0.00    +0.000 F 
ATOM     14  C   UNL     1       5.811   4.506  17.470  0.00  0.00    +0.000 A 
ENDBRANCH   4   7
BRANCH   5  15
ATOM     15  N   UNL     1       2.317   5.092  18.323  0.00  0.00    +0.000 N 
ATOM     16  C   UNL     1       2.602   5.932  19.384  0.00  0.00    +0.000 C 
ATOM     17  O   UNL     1       3.209   5.615  20.404  0.00  0.00    +0.000 OA
ATOM     18  H   UNL     1       2.275   5.527  17.409  0.00  0.00    +0.000 HD
BRANCH  16  19
ATOM     19  C   UNL     1       2.220   7.363  19.196  0.00  0.00    +0.000 A 
ATOM     20  C   UNL     1       2.426   8.027  17.980  0.00  0.00    +0.000 A 
ATOM     21  C   UNL     1       1.982   9.344  17.819  0.00  0.00    +0.000 A 
ATOM     22  C   UNL     1       1.336   9.997  18.869  0.00  0.00    +0.000 A 
ATOM     23 CL   UNL     1       0.753  11.601  18.651  0.00  0.00    +0.000 Cl
ATOM     24  C   UNL     1       1.144   9.351  20.088  0.00  0.00    +0.000 A 
ATOM     25  C   UNL     1       1.585   8.034  20.251  0.00  0.00    +0.000 A 
ENDBRANCH  16  19
ENDBRANCH   5  15
BRANCH   1  27
ATOM     26  C   UNL     1       1.295   2.762  21.379  0.00  0.00    +0.000 C 
ATOM     27  C   UNL     1       0.885   2.618  19.921  0.00  0.00    +0.000 C 
ENDBRANCH   1  27
TORSDOF 4
ENDMDL
MODEL 3
REMARK VINA RESULT:      -8.3      2.302      2.929
REMARK  Name = 
REMARK  5 active torsions:
REMARK  status: ('A' for Active; 'I' for Inactive)
REMARK    1  A    between atoms: C_1  and  C_2
REMARK    2  A    between atoms: C_2  and  C_3
REMARK    3  A    between atoms: C_6  and  C_7
REMARK    4  A    between atoms: C_15  and  N_16
REMARK    5  A    between atoms: C_17  and  C_19
REMARK                            x       y       z     vdW  Elec       q    Type
REMARK                         _______ _______ _______ _____ _____    ______ ____
ROOT
ATOM      1  C   UNL     1       3.176   3.404  20.397  0.00  0.00    +0.000 A 
ATOM      2  N   UNL     1       4.014   2.499  19.803  0.00  0.00    +0.000 N 
ATOM      3  N   UNL     1       4.950   3.047  19.017  0.00  0.00    +0.000 NA
ATOM      4  C   UNL     1       4.758   4.367  19.139  0.00  0.00    +0.000 A 
ATOM      5  C   UNL     1       3.615   4.639  19.962  0.00  0.00    +0.000 A 
ATOM      6  H   UNL     1       3.988   1.488  19.878  0.00  0.00    +0.000 HD
ENDROOT
BRANCH   4   7
ATOM      7  C   UNL     1       5.719   5.302  18.533  0.00  0.00    +0.000 A 
ATOM      8  C   UNL     1       5.428   5.962  17.325  0.00  0.00    +0.000 A 
ATOM      9  C   UNL     1       6.315   6.905  16.795  0.00  0.00    +0.000 A 
ATOM     10  C   UNL     1       7.485   7.206  17.481  0.00  0.00    +0.000 A 
ATOM     11  F   UNL     1       8.318   8.128  16.980  0.00  0.00    +0.000 F 
ATOM     12  C   UNL     1       7.775   6.574  18.681  0.00  0.00    +0.000 A 
ATOM     13  F   UNL     1       8.891   6.888  19.354  0.00  0.00    +0.000 F 
ATOM     14  C   UNL     1       6.905   5.624  19.209  0.00  0.00    +0.000 A 
ENDBRANCH   4   7
BRANCH   5  15
ATOM     15  N   UNL     1       3.038   5.877  20.226  0.00  0.00    +0.000 N 
ATOM     16  C   UNL     1       2.363   6.597  19.257  0.00  0.00    +0.000 C 
ATOM     17  O   UNL     1       2.172   6.232  18.100  0.00  0.00    +0.000 OA
ATOM     18  H   UNL     1       2.727   6.015  21.181  0.00  0.00    +0.000 HD
BRANCH  16  19
ATOM     19  C   UNL     1       1.734   7.870  19.718  0.00  0.00    +0.000 A 
ATOM     20  C   UNL     1       1.353   8.063  21.052  0.00  0.00    +0.000 A 
ATOM     21  C   UNL     1       0.841   9.300  21.459  0.00  0.00    +0.000 A 
ATOM     22  C   UNL     1       0.707  10.339  20.539  0.00  0.00    +0.000 A 
ATOM     23 CL   UNL     1       0.117  11.870  21.055  0.00  0.00    +0.000 Cl
ATOM     24  C   UNL     1       1.066  10.150  19.206  0.00  0.00    +0.000 A 
ATOM     25  C   UNL     1       1.581   8.916  18.796  0.00  0.00    +0.000 A 
ENDBRANCH  16  19
ENDBRANCH   5  15
BRANCH   1  27
ATOM     26  C   UNL     1       0.705   3.078  20.566  0.00  0.00    +0.000 C 
ATOM     27  C   UNL     1       2.054   2.928  21.254  0.00  0.00    +0.000 C 
ENDBRANCH   1  27
TORSDOF 4
ENDMDL
MODEL 4
REMARK VINA RESULT:      -8.3      2.274      2.692
REMARK  Name = 
REMARK  5 active torsions:
REMARK  status: ('A' for Active; 'I' for Inactive)
REMARK    1  A    between atoms: C_1  and  C_2
REMARK    2  A    between atoms: C_2  and  C_3
REMARK    3  A    between atoms: C_6  and  C_7
REMARK    4  A    between atoms: C_15  and  N_16
REMARK    5  A    between atoms: C_17  and  C_19
REMARK                            x       y       z     vdW  Elec       q    Type
REMARK                         _______ _______ _______ _____ _____    ______ ____
ROOT
ATOM      1  C   UNL     1       2.451   3.448  19.707  0.00  0.00    +0.000 A 
ATOM      2  N   UNL     1       3.183   2.559  18.968  0.00  0.00    +0.000 N 
ATOM      3  N   UNL     1       4.206   3.106  18.299  0.00  0.00    +0.000 NA
ATOM      4  C   UNL     1       4.183   4.398  18.653  0.00  0.00    +0.000 A 
ATOM      5  C   UNL     1       3.060   4.671  19.502  0.00  0.00    +0.000 A 
ATOM      6  H   UNL     1       3.023   1.563  18.861  0.00  0.00    +0.000 HD
ENDROOT
BRANCH   4   7
ATOM      7  C   UNL     1       5.276   5.288  18.230  0.00  0.00    +0.000 A 
ATOM      8  C   UNL     1       5.120   6.163  17.140  0.00  0.00    +0.000 A 
ATOM      9  C   UNL     1       6.137   7.058  16.792  0.00  0.00    +0.000 A 
ATOM     10  C   UNL     1       7.304   7.096  17.546  0.00  0.00    +0.000 A 
ATOM     11  F   UNL     1       8.264   7.973  17.223  0.00  0.00    +0.000 F 
ATOM     12  C   UNL     1       7.462   6.250  18.634  0.00  0.00    +0.000 A 
ATOM     13  F   UNL     1       8.577   6.310  19.376  0.00  0.00    +0.000 F 
ATOM     14  C   UNL     1       6.461   5.347  18.979  0.00  0.00    +0.000 A 
ENDBRANCH   4   7
BRANCH   5  15
ATOM     15  N   UNL     1       2.640   5.909  19.978  0.00  0.00    +0.000 N 
ATOM     16  C   UNL     1       2.145   6.891  19.139  0.00  0.00    +0.000 C 
ATOM     17  O   UNL     1       1.993   6.784  17.925  0.00  0.00    +0.000 OA
ATOM     18  H   UNL     1       2.281   5.910  20.925  0.00  0.00    +0.000 HD
BRANCH  16  19
ATOM     19  C   UNL     1       1.665   8.134  19.812  0.00  0.00    +0.000 A 
ATOM     20  C   UNL     1       1.367   9.296  19.089  0.00  0.00    +0.000 A 
ATOM     21  C   UNL     1       0.843  10.414  19.749  0.00  0.00    +0.000 A 
ATOM     22  C   UNL     1       0.619  10.372  21.125  0.00  0.00    +0.000 A 
ATOM     23 CL   UNL     1      -0.065  11.734  21.922  0.00  0.00    +0.000 Cl
ATOM     24  C   UNL     1       0.930   9.227  21.855  0.00  0.00    +0.000 A 
ATOM     25  C   UNL     1       1.451   8.108  21.198  0.00  0.00    +0.000 A 
ENDBRANCH  16  19
ENDBRANCH   5  15
BRANCH   1  27
ATOM     26  C   UNL     1       1.585   2.581  21.884  0.00  0.00    +0.000 C 
ATOM     27  C   UNL     1       1.250   2.983  20.456  0.00  0.00    +0.000 C 
ENDBRANCH   1  27
TORSDOF 4
ENDMDL
MODEL 5
REMARK VINA RESULT:      -8.2      1.224      1.299
REMARK  Name = 
REMARK  5 active torsions:
REMARK  status: ('A' for Active; 'I' for Inactive)
REMARK    1  A    between atoms: C_1  and  C_2
REMARK    2  A    between atoms: C_2  and  C_3
REMARK    3  A    between atoms: C_6  and  C_7
REMARK    4  A    between atoms: C_15  and  N_16
REMARK    5  A    between atoms: C_17  and  C_19
REMARK                            x       y       z     vdW  Elec       q    Type
REMARK                         _______ _______ _______ _____ _____    ______ ____
ROOT
ATOM      1  C   UNL     1       3.234   3.457  20.605  0.00  0.00    +0.000 A 
ATOM      2  N   UNL     1       3.759   2.269  20.173  0.00  0.00    +0.000 N 
ATOM      3  N   UNL     1       4.460   2.357  19.035  0.00  0.00    +0.000 NA
ATOM      4  C   UNL     1       4.444   3.662  18.733  0.00  0.00    +0.000 A 
ATOM      5  C   UNL     1       3.638   4.389  19.670  0.00  0.00    +0.000 A 
ATOM      6  H   UNL     1       3.657   1.355  20.601  0.00  0.00    +0.000 HD
ENDROOT
BRANCH   4   7
ATOM      7  C   UNL     1       5.262   4.160  17.616  0.00  0.00    +0.000 A 
ATOM      8  C   UNL     1       6.562   4.653  17.829  0.00  0.00    +0.000 A 
ATOM      9  C   UNL     1       7.360   5.053  16.752  0.00  0.00    +0.000 A 
ATOM     10  C   UNL     1       6.868   4.943  15.457  0.00  0.00    +0.000 A 
ATOM     11  F   UNL     1       7.647   5.305  14.429  0.00  0.00    +0.000 F 
ATOM     12  C   UNL     1       5.595   4.442  15.233  0.00  0.00    +0.000 A 
ATOM     13  F   UNL     1       5.135   4.310  13.980  0.00  0.00    +0.000 F 
ATOM     14  C   UNL     1       4.789   4.054  16.299  0.00  0.00    +0.000 A 
ENDBRANCH   4   7
BRANCH   5  15
ATOM     15  N   UNL     1       3.293   5.736  19.621  0.00  0.00    +0.000 N 
ATOM     16  C   UNL     1       2.443   6.244  18.656  0.00  0.00    +0.000 C 
ATOM     17  O   UNL     1       1.887   5.590  17.777  0.00  0.00    +0.000 OA
ATOM     18  H   UNL     1       3.289   6.215  20.514  0.00  0.00    +0.000 HD
BRANCH  16  19
ATOM     19  C   UNL     1       2.109   7.693  18.786  0.00  0.00    +0.000 A 
ATOM     20  C   UNL     1       2.296   8.591  17.727  0.00  0.00    +0.000 A 
ATOM     21  C   UNL     1       1.895   9.925  17.865  0.00  0.00    +0.000 A 
ATOM     22  C   UNL     1       1.314  10.362  19.055  0.00  0.00    +0.000 A 
ATOM     23 CL   UNL     1       0.785  11.992  19.201  0.00  0.00    +0.000 Cl
ATOM     24  C   UNL     1       1.142   9.480  20.120  0.00  0.00    +0.000 A 
ATOM     25  C   UNL     1       1.539   8.146  19.985  0.00  0.00    +0.000 A 
ENDBRANCH  16  19
ENDBRANCH   5  15
BRANCH   1  27
ATOM     26  C   UNL     1       1.155   2.607  21.698  0.00  0.00    +0.000 C 
ATOM     27  C   UNL     1       2.384   3.494  21.828  0.00  0.00    +0.000 C 
ENDBRANCH   1  27
TORSDOF 4
ENDMDL
MODEL 6
REMARK VINA RESULT:      -8.0      2.071      2.630
REMARK  Name = 
REMARK  5 active torsions:
REMARK  status: ('A' for Active; 'I' for Inactive)
REMARK    1  A    between atoms: C_1  and  C_2
REMARK    2  A    between atoms: C_2  and  C_3
REMARK    3  A    between atoms: C_6  and  C_7
REMARK    4  A    between atoms: C_15  and  N_16
REMARK    5  A    between atoms: C_17  and  C_19
REMARK                            x       y       z     vdW  Elec       q    Type
REMARK                         _______ _______ _______ _____ _____    ______ ____
ROOT
ATOM      1  C   UNL     1       2.299   3.287  18.155  0.00  0.00    +0.000 A 
ATOM      2  N   UNL     1       3.269   2.429  17.712  0.00  0.00    +0.000 N 
ATOM      3  N   UNL     1       4.441   3.016  17.438  0.00  0.00    +0.000 NA
ATOM      4  C   UNL     1       4.255   4.302  17.764  0.00  0.00    +0.000 A 
ATOM      5  C   UNL     1       2.900   4.530  18.174  0.00  0.00    +0.000 A 
ATOM      6  H   UNL     1       3.188   1.430  17.556  0.00  0.00    +0.000 HD
ENDROOT
BRANCH   4   7
ATOM      7  C   UNL     1       5.397   5.230  17.745  0.00  0.00    +0.000 A 
ATOM      8  C   UNL     1       5.380   6.388  16.946  0.00  0.00    +0.000 A 
ATOM      9  C   UNL     1       6.437   7.302  16.991  0.00  0.00    +0.000 A 
ATOM     10  C   UNL     1       7.505   7.072  17.850  0.00  0.00    +0.000 A 
ATOM     11  F   UNL     1       8.503   7.964  17.907  0.00  0.00    +0.000 F 
ATOM     12  C   UNL     1       7.526   5.943  18.654  0.00  0.00    +0.000 A 
ATOM     13  F   UNL     1       8.545   5.739  19.502  0.00  0.00    +0.000 F 
ATOM     14  C   UNL     1       6.485   5.021  18.606  0.00  0.00    +0.000 A 
ENDBRANCH   4   7
BRANCH   5  15
ATOM     15  N   UNL     1       2.303   5.749  18.478  0.00  0.00    +0.000 N 
ATOM     16  C   UNL     1       2.345   6.294  19.749  0.00  0.00    +0.000 C 
ATOM     17  O   UNL     1       2.918   5.803  20.718  0.00  0.00    +0.000 OA
ATOM     18  H   UNL     1       2.254   6.410  17.711  0.00  0.00    +0.000 HD
BRANCH  16  19
ATOM     19  C   UNL     1       1.725   7.644  19.894  0.00  0.00    +0.000 A 
ATOM     20  C   UNL     1       1.149   8.065  21.099  0.00  0.00    +0.000 A 
ATOM     21  C   UNL     1       0.650   9.368  21.217  0.00  0.00    +0.000 A 
ATOM     22  C   UNL     1       0.723  10.245  20.136  0.00  0.00    +0.000 A 
ATOM     23 CL   UNL     1       0.148  11.858  20.301  0.00  0.00    +0.000 Cl
ATOM     24  C   UNL     1       1.277   9.829  18.927  0.00  0.00    +0.000 A 
ATOM     25  C   UNL     1       1.779   8.529  18.807  0.00  0.00    +0.000 A 
ENDBRANCH  16  19
ENDBRANCH   5  15
BRANCH   1  27
ATOM     26  C   UNL     1       0.557   2.933  19.910  0.00  0.00    +0.000 C 
ATOM     27  C   UNL     1       0.929   2.777  18.443  0.00  0.00    +0.000 C 
ENDBRANCH   1  27
TORSDOF 4
ENDMDL
MODEL 7
REMARK VINA RESULT:      -7.8      3.914      6.459
REMARK  Name = 
REMARK  5 active torsions:
REMARK  status: ('A' for Active; 'I' for Inactive)
REMARK    1  A    between atoms: C_1  and  C_2
REMARK    2  A    between atoms: C_2  and  C_3
REMARK    3  A    between atoms: C_6  and  C_7
REMARK    4  A    between atoms: C_15  and  N_16
REMARK    5  A    between atoms: C_17  and  C_19
REMARK                            x       y       z     vdW  Elec       q    Type
REMARK                         _______ _______ _______ _____ _____    ______ ____
ROOT
ATOM      1  C   UNL     1       3.031   3.442  20.049  0.00  0.00    +0.000 A 
ATOM      2  N   UNL     1       2.354   3.885  21.153  0.00  0.00    +0.000 N 
ATOM      3  N   UNL     1       2.065   5.192  21.135  0.00  0.00    +0.000 NA
ATOM      4  C   UNL     1       2.519   5.619  19.949  0.00  0.00    +0.000 A 
ATOM      5  C   UNL     1       3.183   4.557  19.249  0.00  0.00    +0.000 A 
ATOM      6  H   UNL     1       2.077   3.346  21.967  0.00  0.00    +0.000 HD
ENDROOT
BRANCH   4   7
ATOM      7  C   UNL     1       2.227   6.992  19.510  0.00  0.00    +0.000 A 
ATOM      8  C   UNL     1       2.480   7.402  18.188  0.00  0.00    +0.000 A 
ATOM      9  C   UNL     1       2.130   8.687  17.760  0.00  0.00    +0.000 A 
ATOM     10  C   UNL     1       1.506   9.558  18.645  0.00  0.00    +0.000 A 
ATOM     11  F   UNL     1       1.151  10.778  18.221  0.00  0.00    +0.000 F 
ATOM     12  C   UNL     1       1.236   9.159  19.945  0.00  0.00    +0.000 A 
ATOM     13  F   UNL     1       0.608   9.993  20.787  0.00  0.00    +0.000 F 
ATOM     14  C   UNL     1       1.594   7.889  20.384  0.00  0.00    +0.000 A 
ENDBRANCH   4   7
BRANCH   5  15
ATOM     15  N   UNL     1       3.876   4.642  18.047  0.00  0.00    +0.000 N 
ATOM     16  C   UNL     1       5.252   4.509  17.978  0.00  0.00    +0.000 C 
ATOM     17  O   UNL     1       5.995   4.280  18.928  0.00  0.00    +0.000 OA
ATOM     18  H   UNL     1       3.359   4.347  17.227  0.00  0.00    +0.000 HD
BRANCH  16  19
ATOM     19  C   UNL     1       5.837   4.547  16.606  0.00  0.00    +0.000 A 
ATOM     20  C   UNL     1       5.123   4.098  15.487  0.00  0.00    +0.000 A 
ATOM     21  C   UNL     1       5.678   4.224  14.208  0.00  0.00    +0.000 A 
ATOM     22  C   UNL     1       6.940   4.794  14.047  0.00  0.00    +0.000 A 
ATOM     23 CL   UNL     1       7.597   4.986  12.469  0.00  0.00    +0.000 Cl
ATOM     24  C   UNL     1       7.665   5.226  15.155  0.00  0.00    +0.000 A 
ATOM     25  C   UNL     1       7.113   5.104  16.434  0.00  0.00    +0.000 A 
ENDBRANCH  16  19
ENDBRANCH   5  15
BRANCH   1  27
ATOM     26  C   UNL     1       3.341   1.466  18.551  0.00  0.00    +0.000 C 
ATOM     27  C   UNL     1       3.466   2.019  19.963  0.00  0.00    +0.000 C 
ENDBRANCH   1  27
TORSDOF 4
ENDMDL
MODEL 8
REMARK VINA RESULT:      -7.8      2.178      2.587
REMARK  Name = 
REMARK  5 active torsions:
REMARK  status: ('A' for Active; 'I' for Inactive)
REMARK    1  A    between atoms: C_1  and  C_2
REMARK    2  A    between atoms: C_2  and  C_3
REMARK    3  A    between atoms: C_6  and  C_7
REMARK    4  A    between atoms: C_15  and  N_16
REMARK    5  A    between atoms: C_17  and  C_19
REMARK                            x       y       z     vdW  Elec       q    Type
REMARK                         _______ _______ _______ _____ _____    ______ ____
ROOT
ATOM      1  C   UNL     1       3.180   3.332  20.594  0.00  0.00    +0.000 A 
ATOM      2  N   UNL     1       4.049   2.461  19.994  0.00  0.00    +0.000 N 
ATOM      3  N   UNL     1       4.970   3.047  19.218  0.00  0.00    +0.000 NA
ATOM      4  C   UNL     1       4.736   4.358  19.354  0.00  0.00    +0.000 A 
ATOM      5  C   UNL     1       3.581   4.585  20.175  0.00  0.00    +0.000 A 
ATOM      6  H   UNL     1       4.054   1.448  20.058  0.00  0.00    +0.000 HD
ENDROOT
BRANCH   4   7
ATOM      7  C   UNL     1       5.669   5.329  18.762  0.00  0.00    +0.000 A 
ATOM      8  C   UNL     1       6.930   5.570  19.338  0.00  0.00    +0.000 A 
ATOM      9  C   UNL     1       7.841   6.438  18.726  0.00  0.00    +0.000 A 
ATOM     10  C   UNL     1       7.501   7.052  17.527  0.00  0.00    +0.000 A 
ATOM     11  F   UNL     1       8.387   7.864  16.934  0.00  0.00    +0.000 F 
ATOM     12  C   UNL     1       6.268   6.810  16.941  0.00  0.00    +0.000 A 
ATOM     13  F   UNL     1       5.956   7.383  15.770  0.00  0.00    +0.000 F 
ATOM     14  C   UNL     1       5.351   5.959  17.550  0.00  0.00    +0.000 A 
ENDBRANCH   4   7
BRANCH   5  15
ATOM     15  N   UNL     1       2.965   5.801  20.449  0.00  0.00    +0.000 N 
ATOM     16  C   UNL     1       2.326   6.541  19.470  0.00  0.00    +0.000 C 
ATOM     17  O   UNL     1       2.204   6.213  18.293  0.00  0.00    +0.000 OA
ATOM     18  H   UNL     1       2.601   5.899  21.390  0.00  0.00    +0.000 HD
BRANCH  16  19
ATOM     19  C   UNL     1       1.646   7.783  19.940  0.00  0.00    +0.000 A 
ATOM     20  C   UNL     1       1.197   7.925  21.259  0.00  0.00    +0.000 A 
ATOM     21  C   UNL     1       0.636   9.136  21.680  0.00  0.00    +0.000 A 
ATOM     22  C   UNL     1       0.522  10.201  20.787  0.00  0.00    +0.000 A 
ATOM     23 CL   UNL     1      -0.127  11.702  21.323  0.00  0.00    +0.000 Cl
ATOM     24  C   UNL     1       0.949  10.064  19.468  0.00  0.00    +0.000 A 
ATOM     25  C   UNL     1       1.512   8.855  19.045  0.00  0.00    +0.000 A 
ENDBRANCH  16  19
ENDBRANCH   5  15
BRANCH   1  27
ATOM     26  C   UNL     1       0.716   2.953  20.759  0.00  0.00    +0.000 C 
ATOM     27  C   UNL     1       2.069   2.811  21.439  0.00  0.00    +0.000 C 
ENDBRANCH   1  27
TORSDOF 4
ENDMDL
MODEL 9
REMARK VINA RESULT:      -7.7      1.284      1.842
REMARK  Name = 
REMARK  5 active torsions:
REMARK  status: ('A' for Active; 'I' for Inactive)
REMARK    1  A    between atoms: C_1  and  C_2
REMARK    2  A    between atoms: C_2  and  C_3
REMARK    3  A    between atoms: C_6  and  C_7
REMARK    4  A    between atoms: C_15  and  N_16
REMARK    5  A    between atoms: C_17  and  C_19
REMARK                            x       y       z     vdW  Elec       q    Type
REMARK                         _______ _______ _______ _____ _____    ______ ____
ROOT
ATOM      1  C   UNL     1       3.267   3.349  20.488  0.00  0.00    +0.000 A 
ATOM      2  N   UNL     1       3.809   2.171  20.051  0.00  0.00    +0.000 N 
ATOM      3  N   UNL     1       4.535   2.279  18.930  0.00  0.00    +0.000 NA
ATOM      4  C   UNL     1       4.517   3.588  18.646  0.00  0.00    +0.000 A 
ATOM      5  C   UNL     1       3.685   4.297  19.575  0.00  0.00    +0.000 A 
ATOM      6  H   UNL     1       3.704   1.250  20.464  0.00  0.00    +0.000 HD
ENDROOT
BRANCH   4   7
ATOM      7  C   UNL     1       5.356   4.107  17.555  0.00  0.00    +0.000 A 
ATOM      8  C   UNL     1       5.249   3.595  16.249  0.00  0.00    +0.000 A 
ATOM      9  C   UNL     1       5.997   4.145  15.203  0.00  0.00    +0.000 A 
ATOM     10  C   UNL     1       6.838   5.222  15.454  0.00  0.00    +0.000 A 
ATOM     11  F   UNL     1       7.532   5.760  14.443  0.00  0.00    +0.000 F 
ATOM     12  C   UNL     1       6.939   5.747  16.734  0.00  0.00    +0.000 A 
ATOM     13  F   UNL     1       7.730   6.804  16.967  0.00  0.00    +0.000 F 
ATOM     14  C   UNL     1       6.210   5.197  17.784  0.00  0.00    +0.000 A 
ENDBRANCH   4   7
BRANCH   5  15
ATOM     15  N   UNL     1       3.333   5.642  19.537  0.00  0.00    +0.000 N 
ATOM     16  C   UNL     1       2.445   6.145  18.603  0.00  0.00    +0.000 C 
ATOM     17  O   UNL     1       1.860   5.487  17.747  0.00  0.00    +0.000 OA
ATOM     18  H   UNL     1       3.359   6.122  20.430  0.00  0.00    +0.000 HD
BRANCH  16  19
ATOM     19  C   UNL     1       2.110   7.593  18.745  0.00  0.00    +0.000 A 
ATOM     20  C   UNL     1       2.270   8.494  17.684  0.00  0.00    +0.000 A 
ATOM     21  C   UNL     1       1.868   9.826  17.833  0.00  0.00    +0.000 A 
ATOM     22  C   UNL     1       1.312  10.258  19.037  0.00  0.00    +0.000 A 
ATOM     23 CL   UNL     1       0.781  11.886  19.199  0.00  0.00    +0.000 Cl
ATOM     24  C   UNL     1       1.166   9.374  20.103  0.00  0.00    +0.000 A 
ATOM     25  C   UNL     1       1.564   8.041  19.956  0.00  0.00    +0.000 A 
ENDBRANCH  16  19
ENDBRANCH   5  15
BRANCH   1  27
ATOM     26  C   UNL     1       1.011   2.789  21.403  0.00  0.00    +0.000 C 
ATOM     27  C   UNL     1       2.389   3.364  21.692  0.00  0.00    +0.000 C 
ENDBRANCH   1  27
TORSDOF 4
ENDMDL
