MODEL 1
REMARK VINA RESULT:      -7.1      0.000      0.000
REMARK  Name = 
REMARK  6 active torsions:
REMARK  status: ('A' for Active; 'I' for Inactive)
REMARK    1  A    between atoms: C_1  and  C_2
REMARK    2  A    between atoms: C_5  and  C_6
REMARK    3  A    between atoms: C_8  and  C_9
REMARK    4  A    between atoms: C_9  and  S_10
REMARK    5  A    between atoms: S_10  and  C_11
REMARK    6  A    between atoms: C_11  and  C_12
REMARK                            x       y       z     vdW  Elec       q    Type
REMARK                         _______ _______ _______ _____ _____    ______ ____
ROOT
ATOM      1  C   UNL     1       1.491   2.778  21.631  0.00  0.00    +0.000 C 
ATOM      2  C   UNL     1       1.973   3.826  20.659  0.00  0.00    +0.000 A 
ATOM      3  C   UNL     1       1.805   5.131  20.953  0.00  0.00    +0.000 A 
ATOM      4  C   UNL     1       2.235   6.186  20.062  0.00  0.00    +0.000 A 
ATOM      5  C   UNL     1       2.833   5.896  18.887  0.00  0.00    +0.000 A 
ATOM      6  C   UNL     1       3.246   7.014  17.985  0.00  0.00    +0.000 C 
ATOM      7  N   UNL     1       3.028   4.534  18.548  0.00  0.00    +0.000 N 
ATOM      8  C   UNL     1       3.612   3.895  17.447  0.00  0.00    +0.000 A 
ATOM      9  C   UNL     1       3.491   2.544  17.719  0.00  0.00    +0.000 A 
ATOM     10  N   UNL     1       2.889   2.309  18.914  0.00  0.00    +0.000 NA
ATOM     11  C   UNL     1       2.612   3.497  19.407  0.00  0.00    +0.000 A 
ENDROOT
BRANCH   8  12
ATOM     12  C   UNL     1       4.294   4.507  16.264  0.00  0.00    +0.000 C 
BRANCH  12  13
ATOM     13  S   UNL     1       5.567   3.403  15.553  0.00  0.00    +0.000 S 
BRANCH  13  14
ATOM     14  C   UNL     1       6.912   4.615  15.299  0.00  0.00    +0.000 C 
BRANCH  14  15
ATOM     15  C   UNL     1       7.309   5.350  16.562  0.00  0.00    +0.000 A 
ATOM     16  C   UNL     1       7.297   6.753  16.608  0.00  0.00    +0.000 A 
ATOM     17  C   UNL     1       7.605   7.437  17.791  0.00  0.00    +0.000 A 
ATOM     18  C   UNL     1       7.941   6.733  18.941  0.00  0.00    +0.000 A 
ATOM     19  C   UNL     1       7.976   5.340  18.909  0.00  0.00    +0.000 A 
ATOM     20  C   UNL     1       7.666   4.653  17.731  0.00  0.00    +0.000 A 
ENDBRANCH  14  15
ENDBRANCH  13  14
ENDBRANCH  12  13
ENDBRANCH   8  12
TORSDOF 4
ENDMDL
MODEL 2
REMARK VINA RESULT:      -6.9      0.885      2.532
REMARK  Name = 
REMARK  6 active torsions:
REMARK  status: ('A' for Active; 'I' for Inactive)
REMARK    1  A    between atoms: C_1  and  C_2
REMARK    2  A    between atoms: C_5  and  C_6
REMARK    3  A    between atoms: C_8  and  C_9
REMARK    4  A    between atoms: C_9  and  S_10
REMARK    5  A    between atoms: S_10  and  C_11
REMARK    6  A    between atoms: C_11  and  C_12
REMARK                            x       y       z     vdW  Elec       q    Type
REMARK                         _______ _______ _______ _____ _____    ______ ____
ROOT
ATOM      1  C   UNL     1       1.462   6.900  20.953  0.00  0.00    +0.000 C 
ATOM      2  C   UNL     1       1.871   5.609  20.288  0.00  0.00    +0.000 A 
ATOM      3  C   UNL     1       1.454   4.435  20.805  0.00  0.00    +0.000 A 
ATOM      4  C   UNL     1       1.816   3.162  20.224  0.00  0.00    +0.000 A 
ATOM      5  C   UNL     1       2.594   3.103  19.122  0.00  0.00    +0.000 A 
ATOM      6  C   UNL     1       2.962   1.767  18.561  0.00  0.00    +0.000 C 
ATOM      7  N   UNL     1       3.047   4.318  18.550  0.00  0.00    +0.000 N 
ATOM      8  C   UNL     1       3.833   4.616  17.430  0.00  0.00    +0.000 A 
ATOM      9  C   UNL     1       3.910   5.997  17.410  0.00  0.00    +0.000 A 
ATOM     10  N   UNL     1       3.215   6.568  18.429  0.00  0.00    +0.000 NA
ATOM     11  C   UNL     1       2.702   5.565  19.109  0.00  0.00    +0.000 A 
ENDROOT
BRANCH   8  12
ATOM     12  C   UNL     1       4.409   3.678  16.416  0.00  0.00    +0.000 C 
BRANCH  12  13
ATOM     13  S   UNL     1       5.259   4.564  15.060  0.00  0.00    +0.000 S 
BRANCH  13  14
ATOM     14  C   UNL     1       6.987   4.405  15.631  0.00  0.00    +0.000 C 
BRANCH  14  15
ATOM     15  C   UNL     1       7.331   5.327  16.783  0.00  0.00    +0.000 A 
ATOM     16  C   UNL     1       7.684   4.805  18.037  0.00  0.00    +0.000 A 
ATOM     17  C   UNL     1       8.061   5.650  19.088  0.00  0.00    +0.000 A 
ATOM     18  C   UNL     1       8.081   7.028  18.907  0.00  0.00    +0.000 A 
ATOM     19  C   UNL     1       7.715   7.566  17.674  0.00  0.00    +0.000 A 
ATOM     20  C   UNL     1       7.341   6.724  16.621  0.00  0.00    +0.000 A 
ENDBRANCH  14  15
ENDBRANCH  13  14
ENDBRANCH  12  13
ENDBRANCH   8  12
TORSDOF 4
ENDMDL
MODEL 3
REMARK VINA RESULT:      -6.7      0.566      1.215
REMARK  Name = 
REMARK  6 active torsions:
REMARK  status: ('A' for Active; 'I' for Inactive)
REMARK    1  A    between atoms: C_1  and  C_2
REMARK    2  A    between atoms: C_5  and  C_6
REMARK    3  A    between atoms: C_8  and  C_9
REMARK    4  A    between atoms: C_9  and  S_10
REMARK    5  A    between atoms: S_10  and  C_11
REMARK    6  A    between atoms: C_11  and  C_12
REMARK                            x       y       z     vdW  Elec       q    Type
REMARK                         _______ _______ _______ _____ _____    ______ ____
ROOT
ATOM      1  C   UNL     1       1.952   3.418  21.723  0.00  0.00    +0.000 C 
ATOM      2  C   UNL     1       2.265   4.449  20.667  0.00  0.00    +0.000 A 
ATOM      3  C   UNL     1       1.893   5.730  20.858  0.00  0.00    +0.000 A 
ATOM      4  C   UNL     1       2.153   6.765  19.883  0.00  0.00    +0.000 A 
ATOM      5  C   UNL     1       2.793   6.481  18.729  0.00  0.00    +0.000 A 
ATOM      6  C   UNL     1       3.027   7.574  17.737  0.00  0.00    +0.000 C 
ATOM      7  N   UNL     1       3.202   5.144  18.496  0.00  0.00    +0.000 N 
ATOM      8  C   UNL     1       3.883   4.519  17.444  0.00  0.00    +0.000 A 
ATOM      9  C   UNL     1       3.976   3.192  17.822  0.00  0.00    +0.000 A 
ATOM     10  N   UNL     1       3.414   2.960  19.039  0.00  0.00    +0.000 NA
ATOM     11  C   UNL     1       2.952   4.126  19.439  0.00  0.00    +0.000 A 
ENDROOT
BRANCH   8  12
ATOM     12  C   UNL     1       4.462   5.135  16.210  0.00  0.00    +0.000 C 
BRANCH  12  13
ATOM     13  S   UNL     1       5.433   3.934  15.229  0.00  0.00    +0.000 S 
BRANCH  13  14
ATOM     14  C   UNL     1       7.071   4.741  15.296  0.00  0.00    +0.000 C 
BRANCH  14  15
ATOM     15  C   UNL     1       7.365   5.405  16.626  0.00  0.00    +0.000 A 
ATOM     16  C   UNL     1       7.658   4.634  17.762  0.00  0.00    +0.000 A 
ATOM     17  C   UNL     1       7.989   5.242  18.979  0.00  0.00    +0.000 A 
ATOM     18  C   UNL     1       8.022   6.628  19.084  0.00  0.00    +0.000 A 
ATOM     19  C   UNL     1       7.716   7.410  17.972  0.00  0.00    +0.000 A 
ATOM     20  C   UNL     1       7.387   6.805  16.754  0.00  0.00    +0.000 A 
ENDBRANCH  14  15
ENDBRANCH  13  14
ENDBRANCH  12  13
ENDBRANCH   8  12
TORSDOF 4
ENDMDL
MODEL 4
REMARK VINA RESULT:      -6.7      1.614      3.072
REMARK  Name = 
REMARK  6 active torsions:
REMARK  status: ('A' for Active; 'I' for Inactive)
REMARK    1  A    between atoms: C_1  and  C_2
REMARK    2  A    between atoms: C_5  and  C_6
REMARK    3  A    between atoms: C_8  and  C_9
REMARK    4  A    between atoms: C_9  and  S_10
REMARK    5  A    between atoms: S_10  and  C_11
REMARK    6  A    between atoms: C_11  and  C_12
REMARK                            x       y       z     vdW  Elec       q    Type
REMARK                         _______ _______ _______ _____ _____    ______ ____
ROOT
ATOM      1  C   UNL     1       1.581   2.617  21.132  0.00  0.00    +0.000 C 
ATOM      2  C   UNL     1       1.952   3.877  20.389  0.00  0.00    +0.000 A 
ATOM      3  C   UNL     1       1.528   5.070  20.853  0.00  0.00    +0.000 A 
ATOM      4  C   UNL     1       1.840   6.314  20.186  0.00  0.00    +0.000 A 
ATOM      5  C   UNL     1       2.582   6.325  19.059  0.00  0.00    +0.000 A 
ATOM      6  C   UNL     1       2.868   7.630  18.387  0.00  0.00    +0.000 C 
ATOM      7  N   UNL     1       3.047   5.089  18.545  0.00  0.00    +0.000 N 
ATOM      8  C   UNL     1       3.832   4.746  17.437  0.00  0.00    +0.000 A 
ATOM      9  C   UNL     1       3.931   3.367  17.488  0.00  0.00    +0.000 A 
ATOM     10  N   UNL     1       3.276   2.841  18.557  0.00  0.00    +0.000 NA
ATOM     11  C   UNL     1       2.748   3.870  19.186  0.00  0.00    +0.000 A 
ENDROOT
BRANCH   8  12
ATOM     12  C   UNL     1       4.496   5.649  16.446  0.00  0.00    +0.000 C 
BRANCH  12  13
ATOM     13  S   UNL     1       6.186   6.121  16.965  0.00  0.00    +0.000 S 
BRANCH  13  14
ATOM     14  C   UNL     1       7.110   4.676  16.334  0.00  0.00    +0.000 C 
BRANCH  14  15
ATOM     15  C   UNL     1       7.045   4.527  14.828  0.00  0.00    +0.000 A 
ATOM     16  C   UNL     1       6.148   3.625  14.236  0.00  0.00    +0.000 A 
ATOM     17  C   UNL     1       6.040   3.526  12.843  0.00  0.00    +0.000 A 
ATOM     18  C   UNL     1       6.835   4.318  12.021  0.00  0.00    +0.000 A 
ATOM     19  C   UNL     1       7.745   5.206  12.591  0.00  0.00    +0.000 A 
ATOM     20  C   UNL     1       7.852   5.309  13.982  0.00  0.00    +0.000 A 
ENDBRANCH  14  15
ENDBRANCH  13  14
ENDBRANCH  12  13
ENDBRANCH   8  12
TORSDOF 4
ENDMDL
MODEL 5
REMARK VINA RESULT:      -6.7      1.962      3.334
REMARK  Name = 
REMARK  6 active torsions:
REMARK  status: ('A' for Active; 'I' for Inactive)
REMARK    1  A    between atoms: C_1  and  C_2
REMARK    2  A    between atoms: C_5  and  C_6
REMARK    3  A    between atoms: C_8  and  C_9
REMARK    4  A    between atoms: C_9  and  S_10
REMARK    5  A    between atoms: S_10  and  C_11
REMARK    6  A    between atoms: C_11  and  C_12
REMARK                            x       y       z     vdW  Elec       q    Type
REMARK                         _______ _______ _______ _____ _____    ______ ____
ROOT
ATOM      1  C   UNL     1       1.613   2.490  21.553  0.00  0.00    +0.000 C 
ATOM      2  C   UNL     1       1.991   3.744  20.804  0.00  0.00    +0.000 A 
ATOM      3  C   UNL     1       1.146   4.794  20.798  0.00  0.00    +0.000 A 
ATOM      4  C   UNL     1       1.442   6.021  20.095  0.00  0.00    +0.000 A 
ATOM      5  C   UNL     1       2.597   6.164  19.411  0.00  0.00    +0.000 A 
ATOM      6  C   UNL     1       2.859   7.441  18.680  0.00  0.00    +0.000 C 
ATOM      7  N   UNL     1       3.511   5.081  19.399  0.00  0.00    +0.000 N 
ATOM      8  C   UNL     1       4.773   4.898  18.820  0.00  0.00    +0.000 A 
ATOM      9  C   UNL     1       5.144   3.615  19.179  0.00  0.00    +0.000 A 
ATOM     10  N   UNL     1       4.207   3.003  19.951  0.00  0.00    +0.000 NA
ATOM     11  C   UNL     1       3.232   3.878  20.080  0.00  0.00    +0.000 A 
ENDROOT
BRANCH   8  12
ATOM     12  C   UNL     1       5.597   5.878  18.047  0.00  0.00    +0.000 C 
BRANCH  12  13
ATOM     13  S   UNL     1       5.133   5.928  16.278  0.00  0.00    +0.000 S 
BRANCH  13  14
ATOM     14  C   UNL     1       5.820   4.321  15.740  0.00  0.00    +0.000 C 
BRANCH  14  15
ATOM     15  C   UNL     1       6.291   4.316  14.300  0.00  0.00    +0.000 A 
ATOM     16  C   UNL     1       7.360   5.129  13.893  0.00  0.00    +0.000 A 
ATOM     17  C   UNL     1       7.839   5.084  12.578  0.00  0.00    +0.000 A 
ATOM     18  C   UNL     1       7.252   4.235  11.648  0.00  0.00    +0.000 A 
ATOM     19  C   UNL     1       6.177   3.434  12.028  0.00  0.00    +0.000 A 
ATOM     20  C   UNL     1       5.699   3.474  13.342  0.00  0.00    +0.000 A 
ENDBRANCH  14  15
ENDBRANCH  13  14
ENDBRANCH  12  13
ENDBRANCH   8  12
TORSDOF 4
ENDMDL
MODEL 6
REMARK VINA RESULT:      -6.5      1.815      3.345
REMARK  Name = 
REMARK  6 active torsions:
REMARK  status: ('A' for Active; 'I' for Inactive)
REMARK    1  A    between atoms: C_1  and  C_2
REMARK    2  A    between atoms: C_5  and  C_6
REMARK    3  A    between atoms: C_8  and  C_9
REMARK    4  A    between atoms: C_9  and  S_10
REMARK    5  A    between atoms: S_10  and  C_11
REMARK    6  A    between atoms: C_11  and  C_12
REMARK                            x       y       z     vdW  Elec       q    Type
REMARK                         _______ _______ _______ _____ _____    ______ ____
ROOT
ATOM      1  C   UNL     1       1.758   2.606  21.771  0.00  0.00    +0.000 C 
ATOM      2  C   UNL     1       2.109   3.769  20.876  0.00  0.00    +0.000 A 
ATOM      3  C   UNL     1       1.362   4.890  20.921  0.00  0.00    +0.000 A 
ATOM      4  C   UNL     1       1.637   6.037  20.085  0.00  0.00    +0.000 A 
ATOM      5  C   UNL     1       2.673   6.027  19.219  0.00  0.00    +0.000 A 
ATOM      6  C   UNL     1       2.914   7.225  18.358  0.00  0.00    +0.000 C 
ATOM      7  N   UNL     1       3.481   4.866  19.148  0.00  0.00    +0.000 N 
ATOM      8  C   UNL     1       4.613   4.530  18.394  0.00  0.00    +0.000 A 
ATOM      9  C   UNL     1       4.932   3.243  18.791  0.00  0.00    +0.000 A 
ATOM     10  N   UNL     1       4.087   2.772  19.746  0.00  0.00    +0.000 NA
ATOM     11  C   UNL     1       3.222   3.741  19.957  0.00  0.00    +0.000 A 
ENDROOT
BRANCH   8  12
ATOM     12  C   UNL     1       5.376   5.378  17.426  0.00  0.00    +0.000 C 
BRANCH  12  13
ATOM     13  S   UNL     1       7.006   4.656  17.011  0.00  0.00    +0.000 S 
BRANCH  13  14
ATOM     14  C   UNL     1       7.360   5.576  15.472  0.00  0.00    +0.000 C 
BRANCH  14  15
ATOM     15  C   UNL     1       6.956   4.832  14.216  0.00  0.00    +0.000 A 
ATOM     16  C   UNL     1       5.796   4.042  14.193  0.00  0.00    +0.000 A 
ATOM     17  C   UNL     1       5.385   3.400  13.019  0.00  0.00    +0.000 A 
ATOM     18  C   UNL     1       6.130   3.530  11.852  0.00  0.00    +0.000 A 
ATOM     19  C   UNL     1       7.294   4.295  11.860  0.00  0.00    +0.000 A 
ATOM     20  C   UNL     1       7.706   4.939  13.031  0.00  0.00    +0.000 A 
ENDBRANCH  14  15
ENDBRANCH  13  14
ENDBRANCH  12  13
ENDBRANCH   8  12
TORSDOF 4
ENDMDL
MODEL 7
REMARK VINA RESULT:      -6.4      1.843      3.280
REMARK  Name = 
REMARK  6 active torsions:
REMARK  status: ('A' for Active; 'I' for Inactive)
REMARK    1  A    between atoms: C_1  and  C_2
REMARK    2  A    between atoms: C_5  and  C_6
REMARK    3  A    between atoms: C_8  and  C_9
REMARK    4  A    between atoms: C_9  and  S_10
REMARK    5  A    between atoms: S_10  and  C_11
REMARK    6  A    between atoms: C_11  and  C_12
REMARK                            x       y       z     vdW  Elec       q    Type
REMARK                         _______ _______ _______ _____ _____    ______ ____
ROOT
ATOM      1  C   UNL     1       1.815   2.280  21.708  0.00  0.00    +0.000 C 
ATOM      2  C   UNL     1       2.166   3.516  20.916  0.00  0.00    +0.000 A 
ATOM      3  C   UNL     1       1.389   4.613  21.018  0.00  0.00    +0.000 A 
ATOM      4  C   UNL     1       1.664   5.826  20.282  0.00  0.00    +0.000 A 
ATOM      5  C   UNL     1       2.728   5.906  19.455  0.00  0.00    +0.000 A 
ATOM      6  C   UNL     1       2.968   7.171  18.696  0.00  0.00    +0.000 C 
ATOM      7  N   UNL     1       3.568   4.772  19.327  0.00  0.00    +0.000 N 
ATOM      8  C   UNL     1       4.733   4.521  18.591  0.00  0.00    +0.000 A 
ATOM      9  C   UNL     1       5.072   3.216  18.901  0.00  0.00    +0.000 A 
ATOM     10  N   UNL     1       4.207   2.654  19.786  0.00  0.00    +0.000 NA
ATOM     11  C   UNL     1       3.310   3.583  20.039  0.00  0.00    +0.000 A 
ENDROOT
BRANCH   8  12
ATOM     12  C   UNL     1       5.507   5.457  17.718  0.00  0.00    +0.000 C 
BRANCH  12  13
ATOM     13  S   UNL     1       7.057   4.705  17.101  0.00  0.00    +0.000 S 
BRANCH  13  14
ATOM     14  C   UNL     1       7.241   5.632  15.537  0.00  0.00    +0.000 C 
BRANCH  14  15
ATOM     15  C   UNL     1       6.741   4.876  14.323  0.00  0.00    +0.000 A 
ATOM     16  C   UNL     1       7.525   4.786  13.162  0.00  0.00    +0.000 A 
ATOM     17  C   UNL     1       7.095   4.039  12.059  0.00  0.00    +0.000 A 
ATOM     18  C   UNL     1       5.872   3.378  12.094  0.00  0.00    +0.000 A 
ATOM     19  C   UNL     1       5.072   3.471  13.231  0.00  0.00    +0.000 A 
ATOM     20  C   UNL     1       5.501   4.214  14.336  0.00  0.00    +0.000 A 
ENDBRANCH  14  15
ENDBRANCH  13  14
ENDBRANCH  12  13
ENDBRANCH   8  12
TORSDOF 4
ENDMDL
MODEL 8
REMARK VINA RESULT:      -6.3      1.624      3.149
REMARK  Name = 
REMARK  6 active torsions:
REMARK  status: ('A' for Active; 'I' for Inactive)
REMARK    1  A    between atoms: C_1  and  C_2
REMARK    2  A    between atoms: C_5  and  C_6
REMARK    3  A    between atoms: C_8  and  C_9
REMARK    4  A    between atoms: C_9  and  S_10
REMARK    5  A    between atoms: S_10  and  C_11
REMARK    6  A    between atoms: C_11  and  C_12
REMARK                            x       y       z     vdW  Elec       q    Type
REMARK                         _______ _______ _______ _____ _____    ______ ____
ROOT
ATOM      1  C   UNL     1       0.956   2.746  21.297  0.00  0.00    +0.000 C 
ATOM      2  C   UNL     1       1.660   3.739  20.405  0.00  0.00    +0.000 A 
ATOM      3  C   UNL     1       1.579   5.056  20.685  0.00  0.00    +0.000 A 
ATOM      4  C   UNL     1       2.221   6.060  19.868  0.00  0.00    +0.000 A 
ATOM      5  C   UNL     1       2.940   5.710  18.780  0.00  0.00    +0.000 A 
ATOM      6  C   UNL     1       3.574   6.779  17.949  0.00  0.00    +0.000 C 
ATOM      7  N   UNL     1       3.049   4.334  18.459  0.00  0.00    +0.000 N 
ATOM      8  C   UNL     1       3.710   3.636  17.440  0.00  0.00    +0.000 A 
ATOM      9  C   UNL     1       3.427   2.304  17.682  0.00  0.00    +0.000 A 
ATOM     10  N   UNL     1       2.651   2.133  18.786  0.00  0.00    +0.000 NA
ATOM     11  C   UNL     1       2.426   3.345  19.247  0.00  0.00    +0.000 A 
ENDROOT
BRANCH   8  12
ATOM     12  C   UNL     1       4.598   4.175  16.363  0.00  0.00    +0.000 C 
BRANCH  12  13
ATOM     13  S   UNL     1       6.352   4.239  16.880  0.00  0.00    +0.000 S 
BRANCH  13  14
ATOM     14  C   UNL     1       7.000   5.383  15.611  0.00  0.00    +0.000 C 
BRANCH  14  15
ATOM     15  C   UNL     1       6.870   4.855  14.197  0.00  0.00    +0.000 A 
ATOM     16  C   UNL     1       7.693   5.344  13.171  0.00  0.00    +0.000 A 
ATOM     17  C   UNL     1       7.619   4.817  11.875  0.00  0.00    +0.000 A 
ATOM     18  C   UNL     1       6.715   3.802  11.583  0.00  0.00    +0.000 A 
ATOM     19  C   UNL     1       5.876   3.317  12.584  0.00  0.00    +0.000 A 
ATOM     20  C   UNL     1       5.950   3.839  13.880  0.00  0.00    +0.000 A 
ENDBRANCH  14  15
ENDBRANCH  13  14
ENDBRANCH  12  13
ENDBRANCH   8  12
TORSDOF 4
ENDMDL
MODEL 9
REMARK VINA RESULT:      -6.3      2.224      6.607
REMARK  Name = 
REMARK  6 active torsions:
REMARK  status: ('A' for Active; 'I' for Inactive)
REMARK    1  A    between atoms: C_1  and  C_2
REMARK    2  A    between atoms: C_5  and  C_6
REMARK    3  A    between atoms: C_8  and  C_9
REMARK    4  A    between atoms: C_9  and  S_10
REMARK    5  A    between atoms: S_10  and  C_11
REMARK    6  A    between atoms: C_11  and  C_12
REMARK                            x       y       z     vdW  Elec       q    Type
REMARK                         _______ _______ _______ _____ _____    ______ ____
ROOT
ATOM      1  C   UNL     1       8.297   5.470  13.595  0.00  0.00    +0.000 C 
ATOM      2  C   UNL     1       7.130   5.026  14.443  0.00  0.00    +0.000 A 
ATOM      3  C   UNL     1       6.333   4.030  14.006  0.00  0.00    +0.000 A 
ATOM      4  C   UNL     1       5.195   3.562  14.764  0.00  0.00    +0.000 A 
ATOM      5  C   UNL     1       4.887   4.112  15.958  0.00  0.00    +0.000 A 
ATOM      6  C   UNL     1       3.691   3.613  16.704  0.00  0.00    +0.000 C 
ATOM      7  N   UNL     1       5.706   5.159  16.449  0.00  0.00    +0.000 N 
ATOM      8  C   UNL     1       5.685   5.922  17.623  0.00  0.00    +0.000 A 
ATOM      9  C   UNL     1       6.761   6.784  17.503  0.00  0.00    +0.000 A 
ATOM     10  N   UNL     1       7.449   6.594  16.346  0.00  0.00    +0.000 NA
ATOM     11  C   UNL     1       6.818   5.625  15.718  0.00  0.00    +0.000 A 
ENDROOT
BRANCH   8  12
ATOM     12  C   UNL     1       4.768   5.803  18.799  0.00  0.00    +0.000 C 
BRANCH  12  13
ATOM     13  S   UNL     1       3.222   6.753  18.568  0.00  0.00    +0.000 S 
BRANCH  13  14
ATOM     14  C   UNL     1       2.388   6.364  20.147  0.00  0.00    +0.000 C 
BRANCH  14  15
ATOM     15  C   UNL     1       2.000   4.906  20.284  0.00  0.00    +0.000 A 
ATOM     16  C   UNL     1       2.262   4.204  21.470  0.00  0.00    +0.000 A 
ATOM     17  C   UNL     1       1.852   2.874  21.625  0.00  0.00    +0.000 A 
ATOM     18  C   UNL     1       1.185   2.222  20.594  0.00  0.00    +0.000 A 
ATOM     19  C   UNL     1       0.933   2.898  19.401  0.00  0.00    +0.000 A 
ATOM     20  C   UNL     1       1.338   4.228  19.245  0.00  0.00    +0.000 A 
ENDBRANCH  14  15
ENDBRANCH  13  14
ENDBRANCH  12  13
ENDBRANCH   8  12
TORSDOF 4
ENDMDL
