MODEL 1
REMARK VINA RESULT:      -6.5      0.000      0.000
REMARK  Name = 
REMARK  9 active torsions:
REMARK  status: ('A' for Active; 'I' for Inactive)
REMARK    1  A    between atoms: C_1  and  C_2
REMARK    2  A    between atoms: C_5  and  C_6
REMARK    3  A    between atoms: C_7  and  C_8
REMARK    4  A    between atoms: C_10  and  C_11
REMARK    5  A    between atoms: N_17  and  N_18
REMARK    6  A    between atoms: N_18  and  S_19
REMARK    7  A    between atoms: S_19  and  C_22
REMARK    8  A    between atoms: C_25  and  C_26
REMARK    9  A    between atoms: C_31  and  C_32
REMARK                            x       y       z     vdW  Elec       q    Type
REMARK                         _______ _______ _______ _____ _____    ______ ____
ROOT
ATOM      1  C   UNL     1      -1.527  14.207  22.788  0.00  0.00    +0.000 A 
ATOM      2  C   UNL     1      -0.382  14.683  22.062  0.00  0.00    +0.000 A 
ATOM      3  C   UNL     1       0.498  13.812  21.459  0.00  0.00    +0.000 A 
ATOM      4  N   UNL     1       0.295  12.419  21.621  0.00  0.00    +0.000 N 
ATOM      5  C   UNL     1      -0.812  11.885  22.283  0.00  0.00    +0.000 A 
ATOM      6  O   UNL     1      -1.109  10.697  22.336  0.00  0.00    +0.000 OA
ATOM      7  C   UNL     1      -1.710  12.875  22.880  0.00  0.00    +0.000 A 
ENDROOT
BRANCH   1  12
ATOM      8  C   UNL     1      -5.337  17.866  25.170  0.00  0.00    +0.000 C 
ATOM      9  C   UNL     1      -4.353  16.918  24.559  0.00  0.00    +0.000 A 
ATOM     10  C   UNL     1      -3.241  16.476  25.285  0.00  0.00    +0.000 A 
ATOM     11  C   UNL     1      -2.319  15.590  24.712  0.00  0.00    +0.000 A 
ATOM     12  C   UNL     1      -2.502  15.137  23.401  0.00  0.00    +0.000 A 
ATOM     13  C   UNL     1      -3.604  15.588  22.663  0.00  0.00    +0.000 A 
ATOM     14  C   UNL     1      -4.526  16.473  23.240  0.00  0.00    +0.000 A 
ENDBRANCH   1  12
BRANCH   3  15
ATOM     15  C   UNL     1       1.695  14.292  20.664  0.00  0.00    +0.000 A 
ATOM     16  C   UNL     1       1.565  14.776  19.350  0.00  0.00    +0.000 A 
ATOM     17  C   UNL     1       2.650  15.300  18.635  0.00  0.00    +0.000 A 
ATOM     18  C   UNL     1       3.929  15.231  19.170  0.00  0.00    +0.000 A 
ATOM     19  C   UNL     1       4.106  14.692  20.437  0.00  0.00    +0.000 A 
ATOM     20  C   UNL     1       2.999  14.287  21.194  0.00  0.00    +0.000 A 
ENDBRANCH   3  15
BRANCH   2  21
ATOM     21  C   UNL     1      -0.134  16.175  21.915  0.00  0.00    +0.000 C 
ATOM     22  N   UNL     1       0.070  17.414  21.793  0.00  0.00    +0.000 NA
ENDBRANCH   2  21
BRANCH   4  23
ATOM     23  N   UNL     1       1.165  11.403  20.968  0.00  0.00    +0.000 N 
ATOM     24  H   UNL     1       1.410  10.573  21.506  0.00  0.00    +0.000 HD
BRANCH  23  25
ATOM     25  S   UNL     1       0.767  11.009  19.325  0.00  0.00    +0.000 S 
ATOM     26  O   UNL     1      -0.680  10.947  19.246  0.00  0.00    +0.000 OA
ATOM     27  O   UNL     1       1.545  11.777  18.385  0.00  0.00    +0.000 OA
BRANCH  25  28
ATOM     28  C   UNL     1       1.386   9.341  19.252  0.00  0.00    +0.000 A 
ATOM     29  C   UNL     1       1.322   8.499  20.365  0.00  0.00    +0.000 A 
ATOM     30  C   UNL     1       1.883   7.222  20.287  0.00  0.00    +0.000 A 
ATOM     31  C   UNL     1       2.482   6.780  19.098  0.00  0.00    +0.000 A 
ATOM     32  C   UNL     1       3.126   5.427  19.009  0.00  0.00    +0.000 C 
ATOM     33  C   UNL     1       2.486   7.618  17.975  0.00  0.00    +0.000 A 
ATOM     34  C   UNL     1       1.937   8.896  18.048  0.00  0.00    +0.000 A 
ENDBRANCH  25  28
ENDBRANCH  23  25
ENDBRANCH   4  23
BRANCH   7  35
ATOM     35  C   UNL     1      -2.924  12.349  23.627  0.00  0.00    +0.000 C 
ATOM     36  N   UNL     1      -3.932  11.912  24.247  0.00  0.00    +0.000 NA
ENDBRANCH   7  35
TORSDOF 7
ENDMDL
MODEL 2
REMARK VINA RESULT:      -6.5      4.040      8.383
REMARK  Name = 
REMARK  9 active torsions:
REMARK  status: ('A' for Active; 'I' for Inactive)
REMARK    1  A    between atoms: C_1  and  C_2
REMARK    2  A    between atoms: C_5  and  C_6
REMARK    3  A    between atoms: C_7  and  C_8
REMARK    4  A    between atoms: C_10  and  C_11
REMARK    5  A    between atoms: N_17  and  N_18
REMARK    6  A    between atoms: N_18  and  S_19
REMARK    7  A    between atoms: S_19  and  C_22
REMARK    8  A    between atoms: C_25  and  C_26
REMARK    9  A    between atoms: C_31  and  C_32
REMARK                            x       y       z     vdW  Elec       q    Type
REMARK                         _______ _______ _______ _____ _____    ______ ____
ROOT
ATOM      1  C   UNL     1       2.086  15.863  19.085  0.00  0.00    +0.000 A 
ATOM      2  C   UNL     1       1.492  15.017  20.082  0.00  0.00    +0.000 A 
ATOM      3  C   UNL     1       0.130  14.992  20.284  0.00  0.00    +0.000 A 
ATOM      4  N   UNL     1      -0.686  15.872  19.531  0.00  0.00    +0.000 N 
ATOM      5  C   UNL     1      -0.183  16.696  18.522  0.00  0.00    +0.000 A 
ATOM      6  O   UNL     1      -0.854  17.373  17.751  0.00  0.00    +0.000 OA
ATOM      7  C   UNL     1       1.271  16.652  18.357  0.00  0.00    +0.000 A 
ENDROOT
BRANCH   1  12
ATOM      8  C   UNL     1       7.797  15.841  18.105  0.00  0.00    +0.000 C 
ATOM      9  C   UNL     1       6.321  15.852  18.357  0.00  0.00    +0.000 A 
ATOM     10  C   UNL     1       5.744  16.825  19.180  0.00  0.00    +0.000 A 
ATOM     11  C   UNL     1       4.364  16.834  19.417  0.00  0.00    +0.000 A 
ATOM     12  C   UNL     1       3.544  15.863  18.831  0.00  0.00    +0.000 A 
ATOM     13  C   UNL     1       4.117  14.876  18.019  0.00  0.00    +0.000 A 
ATOM     14  C   UNL     1       5.500  14.872  17.782  0.00  0.00    +0.000 A 
ENDBRANCH   1  12
BRANCH   3  15
ATOM     15  C   UNL     1      -0.519  14.085  21.309  0.00  0.00    +0.000 A 
ATOM     16  C   UNL     1      -1.041  12.826  20.961  0.00  0.00    +0.000 A 
ATOM     17  C   UNL     1      -1.569  11.945  21.914  0.00  0.00    +0.000 A 
ATOM     18  C   UNL     1      -1.712  12.356  23.232  0.00  0.00    +0.000 A 
ATOM     19  C   UNL     1      -1.275  13.622  23.599  0.00  0.00    +0.000 A 
ATOM     20  C   UNL     1      -0.634  14.447  22.665  0.00  0.00    +0.000 A 
ENDBRANCH   3  15
BRANCH   2  21
ATOM     21  C   UNL     1       2.362  14.096  20.922  0.00  0.00    +0.000 C 
ATOM     22  N   UNL     1       3.084  13.332  21.619  0.00  0.00    +0.000 NA
ENDBRANCH   2  21
BRANCH   4  23
ATOM     23  N   UNL     1      -2.169  15.882  19.645  0.00  0.00    +0.000 N 
ATOM     24  H   UNL     1      -2.650  14.983  19.657  0.00  0.00    +0.000 HD
BRANCH  23  25
ATOM     25  S   UNL     1      -2.832  16.979  20.815  0.00  0.00    +0.000 S 
ATOM     26  O   UNL     1      -1.723  17.458  21.618  0.00  0.00    +0.000 OA
ATOM     27  O   UNL     1      -3.785  17.885  20.222  0.00  0.00    +0.000 OA
BRANCH  25  28
ATOM     28  C   UNL     1      -3.769  15.838  21.810  0.00  0.00    +0.000 A 
ATOM     29  C   UNL     1      -4.019  16.096  23.159  0.00  0.00    +0.000 A 
ATOM     30  C   UNL     1      -4.697  15.142  23.922  0.00  0.00    +0.000 A 
ATOM     31  C   UNL     1      -5.143  13.948  23.334  0.00  0.00    +0.000 A 
ATOM     32  C   UNL     1      -5.837  12.894  24.147  0.00  0.00    +0.000 C 
ATOM     33  C   UNL     1      -4.932  13.733  21.966  0.00  0.00    +0.000 A 
ATOM     34  C   UNL     1      -4.250  14.676  21.201  0.00  0.00    +0.000 A 
ENDBRANCH  25  28
ENDBRANCH  23  25
ENDBRANCH   4  23
BRANCH   7  35
ATOM     35  C   UNL     1       1.874  17.542  17.284  0.00  0.00    +0.000 C 
ATOM     36  N   UNL     1       2.375  18.281  16.393  0.00  0.00    +0.000 NA
ENDBRANCH   7  35
TORSDOF 7
ENDMDL
MODEL 3
REMARK VINA RESULT:      -6.5      2.803      8.355
REMARK  Name = 
REMARK  9 active torsions:
REMARK  status: ('A' for Active; 'I' for Inactive)
REMARK    1  A    between atoms: C_1  and  C_2
REMARK    2  A    between atoms: C_5  and  C_6
REMARK    3  A    between atoms: C_7  and  C_8
REMARK    4  A    between atoms: C_10  and  C_11
REMARK    5  A    between atoms: N_17  and  N_18
REMARK    6  A    between atoms: N_18  and  S_19
REMARK    7  A    between atoms: S_19  and  C_22
REMARK    8  A    between atoms: C_25  and  C_26
REMARK    9  A    between atoms: C_31  and  C_32
REMARK                            x       y       z     vdW  Elec       q    Type
REMARK                         _______ _______ _______ _____ _____    ______ ____
ROOT
ATOM      1  C   UNL     1      -0.840  11.383  19.425  0.00  0.00    +0.000 A 
ATOM      2  C   UNL     1      -0.518  12.493  20.279  0.00  0.00    +0.000 A 
ATOM      3  C   UNL     1      -1.462  13.439  20.612  0.00  0.00    +0.000 A 
ATOM      4  N   UNL     1      -2.754  13.342  20.041  0.00  0.00    +0.000 N 
ATOM      5  C   UNL     1      -3.148  12.275  19.232  0.00  0.00    +0.000 A 
ATOM      6  O   UNL     1      -4.286  12.068  18.824  0.00  0.00    +0.000 OA
ATOM      7  C   UNL     1      -2.095  11.301  18.939  0.00  0.00    +0.000 A 
ENDROOT
BRANCH   1  12
ATOM      8  C   UNL     1       3.072   7.299  18.164  0.00  0.00    +0.000 C 
ATOM      9  C   UNL     1       2.059   8.353  18.485  0.00  0.00    +0.000 A 
ATOM     10  C   UNL     1       1.753   9.356  17.558  0.00  0.00    +0.000 A 
ATOM     11  C   UNL     1       0.806  10.344  17.860  0.00  0.00    +0.000 A 
ATOM     12  C   UNL     1       0.155  10.338  19.098  0.00  0.00    +0.000 A 
ATOM     13  C   UNL     1       0.468   9.347  20.037  0.00  0.00    +0.000 A 
ATOM     14  C   UNL     1       1.415   8.358  19.731  0.00  0.00    +0.000 A 
ENDBRANCH   1  12
BRANCH   3  15
ATOM     15  C   UNL     1      -1.152  14.600  21.534  0.00  0.00    +0.000 A 
ATOM     16  C   UNL     1      -0.975  15.908  21.046  0.00  0.00    +0.000 A 
ATOM     17  C   UNL     1      -0.770  17.002  21.896  0.00  0.00    +0.000 A 
ATOM     18  C   UNL     1      -0.601  16.799  23.258  0.00  0.00    +0.000 A 
ATOM     19  C   UNL     1      -0.695  15.511  23.768  0.00  0.00    +0.000 A 
ATOM     20  C   UNL     1      -1.026  14.440  22.927  0.00  0.00    +0.000 A 
ENDBRANCH   3  15
BRANCH   2  21
ATOM     21  C   UNL     1       0.877  12.628  20.866  0.00  0.00    +0.000 C 
ATOM     22  N   UNL     1       2.035  12.739  21.353  0.00  0.00    +0.000 NA
ENDBRANCH   2  21
BRANCH   4  23
ATOM     23  N   UNL     1      -3.851  14.289  20.380  0.00  0.00    +0.000 N 
ATOM     24  H   UNL     1      -4.418  14.652  19.614  0.00  0.00    +0.000 HD
BRANCH  23  25
ATOM     25  S   UNL     1      -4.826  13.862  21.751  0.00  0.00    +0.000 S 
ATOM     26  O   UNL     1      -6.208  13.887  21.309  0.00  0.00    +0.000 OA
ATOM     27  O   UNL     1      -4.280  12.736  22.467  0.00  0.00    +0.000 OA
BRANCH  25  28
ATOM     28  C   UNL     1      -4.558  15.293  22.775  0.00  0.00    +0.000 A 
ATOM     29  C   UNL     1      -4.533  16.577  22.227  0.00  0.00    +0.000 A 
ATOM     30  C   UNL     1      -4.249  17.667  23.054  0.00  0.00    +0.000 A 
ATOM     31  C   UNL     1      -4.015  17.478  24.424  0.00  0.00    +0.000 A 
ATOM     32  C   UNL     1      -3.669  18.631  25.320  0.00  0.00    +0.000 C 
ATOM     33  C   UNL     1      -4.101  16.188  24.966  0.00  0.00    +0.000 A 
ATOM     34  C   UNL     1      -4.375  15.096  24.146  0.00  0.00    +0.000 A 
ENDBRANCH  25  28
ENDBRANCH  23  25
ENDBRANCH   4  23
BRANCH   7  35
ATOM     35  C   UNL     1      -2.463  10.127  18.049  0.00  0.00    +0.000 C 
ATOM     36  N   UNL     1      -2.769   9.152  17.309  0.00  0.00    +0.000 NA
ENDBRANCH   7  35
TORSDOF 7
ENDMDL
MODEL 4
REMARK VINA RESULT:      -6.5      4.384      8.592
REMARK  Name = 
REMARK  9 active torsions:
REMARK  status: ('A' for Active; 'I' for Inactive)
REMARK    1  A    between atoms: C_1  and  C_2
REMARK    2  A    between atoms: C_5  and  C_6
REMARK    3  A    between atoms: C_7  and  C_8
REMARK    4  A    between atoms: C_10  and  C_11
REMARK    5  A    between atoms: N_17  and  N_18
REMARK    6  A    between atoms: N_18  and  S_19
REMARK    7  A    between atoms: S_19  and  C_22
REMARK    8  A    between atoms: C_25  and  C_26
REMARK    9  A    between atoms: C_31  and  C_32
REMARK                            x       y       z     vdW  Elec       q    Type
REMARK                         _______ _______ _______ _____ _____    ______ ____
ROOT
ATOM      1  C   UNL     1      -3.979  11.985  19.171  0.00  0.00    +0.000 A 
ATOM      2  C   UNL     1      -3.032  12.858  19.808  0.00  0.00    +0.000 A 
ATOM      3  C   UNL     1      -3.293  13.429  21.033  0.00  0.00    +0.000 A 
ATOM      4  N   UNL     1      -4.552  13.196  21.638  0.00  0.00    +0.000 N 
ATOM      5  C   UNL     1      -5.507  12.333  21.096  0.00  0.00    +0.000 A 
ATOM      6  O   UNL     1      -6.550  11.989  21.639  0.00  0.00    +0.000 OA
ATOM      7  C   UNL     1      -5.147  11.751  19.801  0.00  0.00    +0.000 A 
ENDROOT
BRANCH   1  12
ATOM      8  C   UNL     1      -2.861   9.417  14.099  0.00  0.00    +0.000 C 
ATOM      9  C   UNL     1      -3.144  10.081  15.410  0.00  0.00    +0.000 A 
ATOM     10  C   UNL     1      -2.499   9.660  16.578  0.00  0.00    +0.000 A 
ATOM     11  C   UNL     1      -2.766  10.280  17.806  0.00  0.00    +0.000 A 
ATOM     12  C   UNL     1      -3.687  11.331  17.876  0.00  0.00    +0.000 A 
ATOM     13  C   UNL     1      -4.349  11.747  16.714  0.00  0.00    +0.000 A 
ATOM     14  C   UNL     1      -4.077  11.125  15.486  0.00  0.00    +0.000 A 
ENDBRANCH   1  12
BRANCH   3  15
ATOM     15  C   UNL     1      -2.296  14.329  21.735  0.00  0.00    +0.000 A 
ATOM     16  C   UNL     1      -1.455  13.849  22.755  0.00  0.00    +0.000 A 
ATOM     17  C   UNL     1      -0.474  14.649  23.353  0.00  0.00    +0.000 A 
ATOM     18  C   UNL     1      -0.395  15.999  23.039  0.00  0.00    +0.000 A 
ATOM     19  C   UNL     1      -1.259  16.526  22.089  0.00  0.00    +0.000 A 
ATOM     20  C   UNL     1      -2.152  15.690  21.406  0.00  0.00    +0.000 A 
ENDBRANCH   3  15
BRANCH   2  21
ATOM     21  C   UNL     1      -1.693  13.146  19.148  0.00  0.00    +0.000 C 
ATOM     22  N   UNL     1      -0.581  13.384  18.602  0.00  0.00    +0.000 NA
ENDBRANCH   2  21
BRANCH   4  23
ATOM     23  N   UNL     1      -4.906  13.731  22.981  0.00  0.00    +0.000 N 
ATOM     24  H   UNL     1      -4.182  13.727  23.699  0.00  0.00    +0.000 HD
BRANCH  23  25
ATOM     25  S   UNL     1      -5.812  15.211  22.993  0.00  0.00    +0.000 S 
ATOM     26  O   UNL     1      -5.867  15.682  21.622  0.00  0.00    +0.000 OA
ATOM     27  O   UNL     1      -6.998  15.108  23.806  0.00  0.00    +0.000 OA
BRANCH  25  28
ATOM     28  C   UNL     1      -4.678  16.258  23.881  0.00  0.00    +0.000 A 
ATOM     29  C   UNL     1      -4.602  17.627  23.616  0.00  0.00    +0.000 A 
ATOM     30  C   UNL     1      -3.650  18.400  24.284  0.00  0.00    +0.000 A 
ATOM     31  C   UNL     1      -2.794  17.814  25.229  0.00  0.00    +0.000 A 
ATOM     32  C   UNL     1      -1.738  18.620  25.926  0.00  0.00    +0.000 C 
ATOM     33  C   UNL     1      -2.924  16.450  25.522  0.00  0.00    +0.000 A 
ATOM     34  C   UNL     1      -3.865  15.671  24.854  0.00  0.00    +0.000 A 
ENDBRANCH  25  28
ENDBRANCH  23  25
ENDBRANCH   4  23
BRANCH   7  35
ATOM     35  C   UNL     1      -6.157  10.816  19.157  0.00  0.00    +0.000 C 
ATOM     36  N   UNL     1      -6.994  10.040  18.622  0.00  0.00    +0.000 NA
ENDBRANCH   7  35
TORSDOF 7
ENDMDL
MODEL 5
REMARK VINA RESULT:      -6.5      0.298      1.187
REMARK  Name = 
REMARK  9 active torsions:
REMARK  status: ('A' for Active; 'I' for Inactive)
REMARK    1  A    between atoms: C_1  and  C_2
REMARK    2  A    between atoms: C_5  and  C_6
REMARK    3  A    between atoms: C_7  and  C_8
REMARK    4  A    between atoms: C_10  and  C_11
REMARK    5  A    between atoms: N_17  and  N_18
REMARK    6  A    between atoms: N_18  and  S_19
REMARK    7  A    between atoms: S_19  and  C_22
REMARK    8  A    between atoms: C_25  and  C_26
REMARK    9  A    between atoms: C_31  and  C_32
REMARK                            x       y       z     vdW  Elec       q    Type
REMARK                         _______ _______ _______ _____ _____    ______ ____
ROOT
ATOM      1  C   UNL     1      -1.610  14.237  22.526  0.00  0.00    +0.000 A 
ATOM      2  C   UNL     1      -0.478  14.715  21.782  0.00  0.00    +0.000 A 
ATOM      3  C   UNL     1       0.442  13.846  21.238  0.00  0.00    +0.000 A 
ATOM      4  N   UNL     1       0.294  12.458  21.480  0.00  0.00    +0.000 N 
ATOM      5  C   UNL     1      -0.798  11.920  22.164  0.00  0.00    +0.000 A 
ATOM      6  O   UNL     1      -1.049  10.726  22.284  0.00  0.00    +0.000 OA
ATOM      7  C   UNL     1      -1.741  12.906  22.695  0.00  0.00    +0.000 A 
ENDROOT
BRANCH   1  12
ATOM      8  C   UNL     1      -5.599  17.838  24.692  0.00  0.00    +0.000 C 
ATOM      9  C   UNL     1      -4.568  16.911  24.128  0.00  0.00    +0.000 A 
ATOM     10  C   UNL     1      -4.682  16.427  22.820  0.00  0.00    +0.000 A 
ATOM     11  C   UNL     1      -3.719  15.557  22.294  0.00  0.00    +0.000 A 
ATOM     12  C   UNL     1      -2.627  15.161  23.075  0.00  0.00    +0.000 A 
ATOM     13  C   UNL     1      -2.515  15.630  24.390  0.00  0.00    +0.000 A 
ATOM     14  C   UNL     1      -3.481  16.502  24.914  0.00  0.00    +0.000 A 
ENDBRANCH   1  12
BRANCH   3  15
ATOM     15  C   UNL     1       1.627  14.327  20.426  0.00  0.00    +0.000 A 
ATOM     16  C   UNL     1       2.926  14.369  20.964  0.00  0.00    +0.000 A 
ATOM     17  C   UNL     1       4.041  14.734  20.199  0.00  0.00    +0.000 A 
ATOM     18  C   UNL     1       3.869  15.197  18.902  0.00  0.00    +0.000 A 
ATOM     19  C   UNL     1       2.591  15.240  18.361  0.00  0.00    +0.000 A 
ATOM     20  C   UNL     1       1.498  14.754  19.091  0.00  0.00    +0.000 A 
ENDBRANCH   3  15
BRANCH   2  21
ATOM     21  C   UNL     1      -0.288  16.205  21.549  0.00  0.00    +0.000 C 
ATOM     22  N   UNL     1      -0.130  17.441  21.355  0.00  0.00    +0.000 NA
ENDBRANCH   2  21
BRANCH   4  23
ATOM     23  N   UNL     1       1.209  11.442  20.895  0.00  0.00    +0.000 N 
ATOM     24  H   UNL     1       1.469  10.647  21.477  0.00  0.00    +0.000 HD
BRANCH  23  25
ATOM     25  S   UNL     1       0.860  10.956  19.265  0.00  0.00    +0.000 S 
ATOM     26  O   UNL     1      -0.585  10.945  19.130  0.00  0.00    +0.000 OA
ATOM     27  O   UNL     1       1.705  11.632  18.312  0.00  0.00    +0.000 OA
BRANCH  25  28
ATOM     28  C   UNL     1       1.413   9.265  19.324  0.00  0.00    +0.000 A 
ATOM     29  C   UNL     1       1.300   8.510  20.494  0.00  0.00    +0.000 A 
ATOM     30  C   UNL     1       1.811   7.211  20.519  0.00  0.00    +0.000 A 
ATOM     31  C   UNL     1       2.408   6.659  19.375  0.00  0.00    +0.000 A 
ATOM     32  C   UNL     1       2.998   5.279  19.396  0.00  0.00    +0.000 C 
ATOM     33  C   UNL     1       2.460   7.412  18.195  0.00  0.00    +0.000 A 
ATOM     34  C   UNL     1       1.961   8.711  18.165  0.00  0.00    +0.000 A 
ENDBRANCH  25  28
ENDBRANCH  23  25
ENDBRANCH   4  23
BRANCH   7  35
ATOM     35  C   UNL     1      -2.941  12.377  23.462  0.00  0.00    +0.000 C 
ATOM     36  N   UNL     1      -3.937  11.937  24.099  0.00  0.00    +0.000 NA
ENDBRANCH   7  35
TORSDOF 7
ENDMDL
MODEL 6
REMARK VINA RESULT:      -6.5      2.770      8.206
REMARK  Name = 
REMARK  9 active torsions:
REMARK  status: ('A' for Active; 'I' for Inactive)
REMARK    1  A    between atoms: C_1  and  C_2
REMARK    2  A    between atoms: C_5  and  C_6
REMARK    3  A    between atoms: C_7  and  C_8
REMARK    4  A    between atoms: C_10  and  C_11
REMARK    5  A    between atoms: N_17  and  N_18
REMARK    6  A    between atoms: N_18  and  S_19
REMARK    7  A    between atoms: S_19  and  C_22
REMARK    8  A    between atoms: C_25  and  C_26
REMARK    9  A    between atoms: C_31  and  C_32
REMARK                            x       y       z     vdW  Elec       q    Type
REMARK                         _______ _______ _______ _____ _____    ______ ____
ROOT
ATOM      1  C   UNL     1      -0.690  11.541  19.498  0.00  0.00    +0.000 A 
ATOM      2  C   UNL     1      -0.316  12.674  20.298  0.00  0.00    +0.000 A 
ATOM      3  C   UNL     1      -1.227  13.654  20.626  0.00  0.00    +0.000 A 
ATOM      4  N   UNL     1      -2.540  13.564  20.102  0.00  0.00    +0.000 N 
ATOM      5  C   UNL     1      -2.984  12.477  19.348  0.00  0.00    +0.000 A 
ATOM      6  O   UNL     1      -4.139  12.281  18.986  0.00  0.00    +0.000 OA
ATOM      7  C   UNL     1      -1.962  11.469  19.057  0.00  0.00    +0.000 A 
ENDROOT
BRANCH   1  12
ATOM      8  C   UNL     1       3.057   7.308  18.230  0.00  0.00    +0.000 C 
ATOM      9  C   UNL     1       2.092   8.402  18.562  0.00  0.00    +0.000 A 
ATOM     10  C   UNL     1       1.421   8.415  19.790  0.00  0.00    +0.000 A 
ATOM     11  C   UNL     1       0.515   9.438  20.100  0.00  0.00    +0.000 A 
ATOM     12  C   UNL     1       0.271  10.462  19.178  0.00  0.00    +0.000 A 
ATOM     13  C   UNL     1       0.926  10.447  17.941  0.00  0.00    +0.000 A 
ATOM     14  C   UNL     1       1.834   9.422  17.635  0.00  0.00    +0.000 A 
ENDBRANCH   1  12
BRANCH   3  15
ATOM     15  C   UNL     1      -0.861  14.841  21.492  0.00  0.00    +0.000 A 
ATOM     16  C   UNL     1      -0.580  16.103  20.940  0.00  0.00    +0.000 A 
ATOM     17  C   UNL     1      -0.321  17.228  21.734  0.00  0.00    +0.000 A 
ATOM     18  C   UNL     1      -0.204  17.090  23.110  0.00  0.00    +0.000 A 
ATOM     19  C   UNL     1      -0.402  15.843  23.687  0.00  0.00    +0.000 A 
ATOM     20  C   UNL     1      -0.784  14.751  22.895  0.00  0.00    +0.000 A 
ENDBRANCH   3  15
BRANCH   2  21
ATOM     21  C   UNL     1       1.101  12.800  20.833  0.00  0.00    +0.000 C 
ATOM     22  N   UNL     1       2.277  12.903  21.276  0.00  0.00    +0.000 NA
ENDBRANCH   2  21
BRANCH   4  23
ATOM     23  N   UNL     1      -3.605  14.548  20.440  0.00  0.00    +0.000 N 
ATOM     24  H   UNL     1      -4.128  14.964  19.671  0.00  0.00    +0.000 HD
BRANCH  23  25
ATOM     25  S   UNL     1      -4.643  14.117  21.763  0.00  0.00    +0.000 S 
ATOM     26  O   UNL     1      -6.005  14.353  21.322  0.00  0.00    +0.000 OA
ATOM     27  O   UNL     1      -4.248  12.870  22.370  0.00  0.00    +0.000 OA
BRANCH  25  28
ATOM     28  C   UNL     1      -4.217  15.402  22.919  0.00  0.00    +0.000 A 
ATOM     29  C   UNL     1      -4.048  15.122  24.277  0.00  0.00    +0.000 A 
ATOM     30  C   UNL     1      -3.784  16.170  25.161  0.00  0.00    +0.000 A 
ATOM     31  C   UNL     1      -3.665  17.486  24.689  0.00  0.00    +0.000 A 
ATOM     32  C   UNL     1      -3.422  18.630  25.630  0.00  0.00    +0.000 C 
ATOM     33  C   UNL     1      -3.781  17.738  23.316  0.00  0.00    +0.000 A 
ATOM     34  C   UNL     1      -4.053  16.700  22.429  0.00  0.00    +0.000 A 
ENDBRANCH  25  28
ENDBRANCH  23  25
ENDBRANCH   4  23
BRANCH   7  35
ATOM     35  C   UNL     1      -2.386  10.271  18.225  0.00  0.00    +0.000 C 
ATOM     36  N   UNL     1      -2.738   9.277  17.534  0.00  0.00    +0.000 NA
ENDBRANCH   7  35
TORSDOF 7
ENDMDL
MODEL 7
REMARK VINA RESULT:      -6.5      2.766      8.237
REMARK  Name = 
REMARK  9 active torsions:
REMARK  status: ('A' for Active; 'I' for Inactive)
REMARK    1  A    between atoms: C_1  and  C_2
REMARK    2  A    between atoms: C_5  and  C_6
REMARK    3  A    between atoms: C_7  and  C_8
REMARK    4  A    between atoms: C_10  and  C_11
REMARK    5  A    between atoms: N_17  and  N_18
REMARK    6  A    between atoms: N_18  and  S_19
REMARK    7  A    between atoms: S_19  and  C_22
REMARK    8  A    between atoms: C_25  and  C_26
REMARK    9  A    between atoms: C_31  and  C_32
REMARK                            x       y       z     vdW  Elec       q    Type
REMARK                         _______ _______ _______ _____ _____    ______ ____
ROOT
ATOM      1  C   UNL     1      -0.689  11.545  19.550  0.00  0.00    +0.000 A 
ATOM      2  C   UNL     1      -0.275  12.691  20.313  0.00  0.00    +0.000 A 
ATOM      3  C   UNL     1      -1.158  13.698  20.631  0.00  0.00    +0.000 A 
ATOM      4  N   UNL     1      -2.483  13.624  20.135  0.00  0.00    +0.000 N 
ATOM      5  C   UNL     1      -2.964  12.527  19.418  0.00  0.00    +0.000 A 
ATOM      6  O   UNL     1      -4.129  12.347  19.083  0.00  0.00    +0.000 OA
ATOM      7  C   UNL     1      -1.970  11.490  19.135  0.00  0.00    +0.000 A 
ENDROOT
BRANCH   1  12
ATOM      8  C   UNL     1       2.943   7.200  18.323  0.00  0.00    +0.000 C 
ATOM      9  C   UNL     1       2.008   8.324  18.645  0.00  0.00    +0.000 A 
ATOM     10  C   UNL     1       1.333   8.363  19.871  0.00  0.00    +0.000 A 
ATOM     11  C   UNL     1       0.455   9.413  20.170  0.00  0.00    +0.000 A 
ATOM     12  C   UNL     1       0.243  10.437  19.241  0.00  0.00    +0.000 A 
ATOM     13  C   UNL     1       0.902  10.396  18.006  0.00  0.00    +0.000 A 
ATOM     14  C   UNL     1       1.782   9.344  17.710  0.00  0.00    +0.000 A 
ENDBRANCH   1  12
BRANCH   3  15
ATOM     15  C   UNL     1      -0.750  14.899  21.459  0.00  0.00    +0.000 A 
ATOM     16  C   UNL     1      -0.664  14.837  22.862  0.00  0.00    +0.000 A 
ATOM     17  C   UNL     1      -0.209  15.915  23.632  0.00  0.00    +0.000 A 
ATOM     18  C   UNL     1       0.047  17.138  23.027  0.00  0.00    +0.000 A 
ATOM     19  C   UNL     1      -0.098  17.258  21.652  0.00  0.00    +0.000 A 
ATOM     20  C   UNL     1      -0.432  16.140  20.876  0.00  0.00    +0.000 A 
ENDBRANCH   3  15
BRANCH   2  21
ATOM     21  C   UNL     1       1.155  12.799  20.817  0.00  0.00    +0.000 C 
ATOM     22  N   UNL     1       2.341  12.889  21.237  0.00  0.00    +0.000 NA
ENDBRANCH   2  21
BRANCH   4  23
ATOM     23  N   UNL     1      -3.519  14.639  20.467  0.00  0.00    +0.000 N 
ATOM     24  H   UNL     1      -4.037  15.058  19.696  0.00  0.00    +0.000 HD
BRANCH  23  25
ATOM     25  S   UNL     1      -4.560  14.252  21.801  0.00  0.00    +0.000 S 
ATOM     26  O   UNL     1      -5.921  14.462  21.348  0.00  0.00    +0.000 OA
ATOM     27  O   UNL     1      -4.160  13.031  22.457  0.00  0.00    +0.000 OA
BRANCH  25  28
ATOM     28  C   UNL     1      -4.145  15.582  22.909  0.00  0.00    +0.000 A 
ATOM     29  C   UNL     1      -3.801  16.845  22.422  0.00  0.00    +0.000 A 
ATOM     30  C   UNL     1      -3.414  17.841  23.322  0.00  0.00    +0.000 A 
ATOM     31  C   UNL     1      -3.393  17.585  24.701  0.00  0.00    +0.000 A 
ATOM     32  C   UNL     1      -2.941  18.629  25.679  0.00  0.00    +0.000 C 
ATOM     33  C   UNL     1      -3.796  16.329  25.174  0.00  0.00    +0.000 A 
ATOM     34  C   UNL     1      -4.175  15.328  24.283  0.00  0.00    +0.000 A 
ENDBRANCH  25  28
ENDBRANCH  23  25
ENDBRANCH   4  23
BRANCH   7  35
ATOM     35  C   UNL     1      -2.435  10.280  18.343  0.00  0.00    +0.000 C 
ATOM     36  N   UNL     1      -2.821   9.276  17.685  0.00  0.00    +0.000 NA
ENDBRANCH   7  35
TORSDOF 7
ENDMDL
MODEL 8
REMARK VINA RESULT:      -6.4      3.671      7.888
REMARK  Name = 
REMARK  9 active torsions:
REMARK  status: ('A' for Active; 'I' for Inactive)
REMARK    1  A    between atoms: C_1  and  C_2
REMARK    2  A    between atoms: C_5  and  C_6
REMARK    3  A    between atoms: C_7  and  C_8
REMARK    4  A    between atoms: C_10  and  C_11
REMARK    5  A    between atoms: N_17  and  N_18
REMARK    6  A    between atoms: N_18  and  S_19
REMARK    7  A    between atoms: S_19  and  C_22
REMARK    8  A    between atoms: C_25  and  C_26
REMARK    9  A    between atoms: C_31  and  C_32
REMARK                            x       y       z     vdW  Elec       q    Type
REMARK                         _______ _______ _______ _____ _____    ______ ____
ROOT
ATOM      1  C   UNL     1       2.108  14.977  19.330  0.00  0.00    +0.000 A 
ATOM      2  C   UNL     1       1.392  13.773  19.009  0.00  0.00    +0.000 A 
ATOM      3  C   UNL     1       0.031  13.677  19.193  0.00  0.00    +0.000 A 
ATOM      4  N   UNL     1      -0.656  14.771  19.774  0.00  0.00    +0.000 N 
ATOM      5  C   UNL     1      -0.034  15.983  20.079  0.00  0.00    +0.000 A 
ATOM      6  O   UNL     1      -0.600  17.004  20.453  0.00  0.00    +0.000 OA
ATOM      7  C   UNL     1       1.410  16.013  19.837  0.00  0.00    +0.000 A 
ENDROOT
BRANCH   1  12
ATOM      8  C   UNL     1       7.805  15.454  18.388  0.00  0.00    +0.000 C 
ATOM      9  C   UNL     1       6.334  15.335  18.635  0.00  0.00    +0.000 A 
ATOM     10  C   UNL     1       5.844  15.077  19.921  0.00  0.00    +0.000 A 
ATOM     11  C   UNL     1       4.467  14.963  20.152  0.00  0.00    +0.000 A 
ATOM     12  C   UNL     1       3.563  15.104  19.093  0.00  0.00    +0.000 A 
ATOM     13  C   UNL     1       4.047  15.346  17.801  0.00  0.00    +0.000 A 
ATOM     14  C   UNL     1       5.427  15.462  17.574  0.00  0.00    +0.000 A 
ENDBRANCH   1  12
BRANCH   3  15
ATOM     15  C   UNL     1      -0.747  12.428  18.834  0.00  0.00    +0.000 A 
ATOM     16  C   UNL     1      -1.456  12.319  17.624  0.00  0.00    +0.000 A 
ATOM     17  C   UNL     1      -2.110  11.140  17.243  0.00  0.00    +0.000 A 
ATOM     18  C   UNL     1      -2.187  10.075  18.129  0.00  0.00    +0.000 A 
ATOM     19  C   UNL     1      -1.562  10.173  19.365  0.00  0.00    +0.000 A 
ATOM     20  C   UNL     1      -0.804  11.308  19.684  0.00  0.00    +0.000 A 
ENDBRANCH   3  15
BRANCH   2  21
ATOM     21  C   UNL     1       2.126  12.579  18.421  0.00  0.00    +0.000 C 
ATOM     22  N   UNL     1       2.735  11.588  17.934  0.00  0.00    +0.000 NA
ENDBRANCH   2  21
BRANCH   4  23
ATOM     23  N   UNL     1      -2.132  14.777  19.967  0.00  0.00    +0.000 N 
ATOM     24  H   UNL     1      -2.703  14.297  19.273  0.00  0.00    +0.000 HD
BRANCH  23  25
ATOM     25  S   UNL     1      -2.687  14.464  21.581  0.00  0.00    +0.000 S 
ATOM     26  O   UNL     1      -1.720  13.571  22.192  0.00  0.00    +0.000 OA
ATOM     27  O   UNL     1      -3.128  15.668  22.241  0.00  0.00    +0.000 OA
BRANCH  25  28
ATOM     28  C   UNL     1      -4.150  13.515  21.224  0.00  0.00    +0.000 A 
ATOM     29  C   UNL     1      -5.209  13.454  22.133  0.00  0.00    +0.000 A 
ATOM     30  C   UNL     1      -6.308  12.642  21.846  0.00  0.00    +0.000 A 
ATOM     31  C   UNL     1      -6.361  11.914  20.648  0.00  0.00    +0.000 A 
ATOM     32  C   UNL     1      -7.515  11.005  20.341  0.00  0.00    +0.000 C 
ATOM     33  C   UNL     1      -5.315  12.033  19.723  0.00  0.00    +0.000 A 
ATOM     34  C   UNL     1      -4.212  12.834  20.006  0.00  0.00    +0.000 A 
ENDBRANCH  25  28
ENDBRANCH  23  25
ENDBRANCH   4  23
BRANCH   7  35
ATOM     35  C   UNL     1       2.142  17.302  20.167  0.00  0.00    +0.000 C 
ATOM     36  N   UNL     1       2.750  18.373  20.441  0.00  0.00    +0.000 NA
ENDBRANCH   7  35
TORSDOF 7
ENDMDL
MODEL 9
REMARK VINA RESULT:      -6.4      3.675      7.964
REMARK  Name = 
REMARK  9 active torsions:
REMARK  status: ('A' for Active; 'I' for Inactive)
REMARK    1  A    between atoms: C_1  and  C_2
REMARK    2  A    between atoms: C_5  and  C_6
REMARK    3  A    between atoms: C_7  and  C_8
REMARK    4  A    between atoms: C_10  and  C_11
REMARK    5  A    between atoms: N_17  and  N_18
REMARK    6  A    between atoms: N_18  and  S_19
REMARK    7  A    between atoms: S_19  and  C_22
REMARK    8  A    between atoms: C_25  and  C_26
REMARK    9  A    between atoms: C_31  and  C_32
REMARK                            x       y       z     vdW  Elec       q    Type
REMARK                         _______ _______ _______ _____ _____    ______ ____
ROOT
ATOM      1  C   UNL     1       2.123  14.980  19.309  0.00  0.00    +0.000 A 
ATOM      2  C   UNL     1       1.409  13.776  18.987  0.00  0.00    +0.000 A 
ATOM      3  C   UNL     1       0.048  13.678  19.173  0.00  0.00    +0.000 A 
ATOM      4  N   UNL     1      -0.640  14.770  19.757  0.00  0.00    +0.000 N 
ATOM      5  C   UNL     1      -0.018  15.982  20.063  0.00  0.00    +0.000 A 
ATOM      6  O   UNL     1      -0.585  17.001  20.441  0.00  0.00    +0.000 OA
ATOM      7  C   UNL     1       1.425  16.013  19.820  0.00  0.00    +0.000 A 
ENDROOT
BRANCH   1  12
ATOM      8  C   UNL     1       7.820  15.507  18.388  0.00  0.00    +0.000 C 
ATOM      9  C   UNL     1       6.348  15.367  18.622  0.00  0.00    +0.000 A 
ATOM     10  C   UNL     1       5.438  15.536  17.571  0.00  0.00    +0.000 A 
ATOM     11  C   UNL     1       4.061  15.407  17.791  0.00  0.00    +0.000 A 
ATOM     12  C   UNL     1       3.579  15.109  19.070  0.00  0.00    +0.000 A 
ATOM     13  C   UNL     1       4.482  14.955  20.129  0.00  0.00    +0.000 A 
ATOM     14  C   UNL     1       5.861  15.082  19.905  0.00  0.00    +0.000 A 
ENDBRANCH   1  12
BRANCH   3  15
ATOM     15  C   UNL     1      -0.730  12.429  18.812  0.00  0.00    +0.000 A 
ATOM     16  C   UNL     1      -0.782  11.315  19.669  0.00  0.00    +0.000 A 
ATOM     17  C   UNL     1      -1.563  10.188  19.385  0.00  0.00    +0.000 A 
ATOM     18  C   UNL     1      -2.213  10.087  18.163  0.00  0.00    +0.000 A 
ATOM     19  C   UNL     1      -2.124  11.136  17.259  0.00  0.00    +0.000 A 
ATOM     20  C   UNL     1      -1.444  12.311  17.605  0.00  0.00    +0.000 A 
ENDBRANCH   3  15
BRANCH   2  21
ATOM     21  C   UNL     1       2.143  12.584  18.395  0.00  0.00    +0.000 C 
ATOM     22  N   UNL     1       2.753  11.595  17.905  0.00  0.00    +0.000 NA
ENDBRANCH   2  21
BRANCH   4  23
ATOM     23  N   UNL     1      -2.115  14.774  19.952  0.00  0.00    +0.000 N 
ATOM     24  H   UNL     1      -2.687  14.296  19.257  0.00  0.00    +0.000 HD
BRANCH  23  25
ATOM     25  S   UNL     1      -2.667  14.453  21.566  0.00  0.00    +0.000 S 
ATOM     26  O   UNL     1      -1.700  13.556  22.171  0.00  0.00    +0.000 OA
ATOM     27  O   UNL     1      -3.106  15.654  22.232  0.00  0.00    +0.000 OA
BRANCH  25  28
ATOM     28  C   UNL     1      -4.132  13.507  21.207  0.00  0.00    +0.000 A 
ATOM     29  C   UNL     1      -5.182  13.430  22.124  0.00  0.00    +0.000 A 
ATOM     30  C   UNL     1      -6.283  12.620  21.833  0.00  0.00    +0.000 A 
ATOM     31  C   UNL     1      -6.345  11.911  20.624  0.00  0.00    +0.000 A 
ATOM     32  C   UNL     1      -7.500  11.004  20.313  0.00  0.00    +0.000 C 
ATOM     33  C   UNL     1      -5.307  12.047  19.693  0.00  0.00    +0.000 A 
ATOM     34  C   UNL     1      -4.203  12.845  19.978  0.00  0.00    +0.000 A 
ENDBRANCH  25  28
ENDBRANCH  23  25
ENDBRANCH   4  23
BRANCH   7  35
ATOM     35  C   UNL     1       2.157  17.303  20.151  0.00  0.00    +0.000 C 
ATOM     36  N   UNL     1       2.764  18.374  20.427  0.00  0.00    +0.000 NA
ENDBRANCH   7  35
TORSDOF 7
ENDMDL
