MODEL 1
REMARK VINA RESULT:      -5.3      0.000      0.000
REMARK  Name = 
REMARK  6 active torsions:
REMARK  status: ('A' for Active; 'I' for Inactive)
REMARK    1  A    between atoms: N_1  and  O_2
REMARK    2  A    between atoms: O_2  and  C_3
REMARK    3  A    between atoms: C_3  and  C_4
REMARK    4  A    between atoms: C_4  and  C_5
REMARK    5  A    between atoms: C_5  and  O_6
REMARK    6  A    between atoms: O_6  and  C_7
REMARK                            x       y       z     vdW  Elec       q    Type
REMARK                         _______ _______ _______ _____ _____    ______ ____
ROOT
ATOM      1  O   UNL     1       5.267   5.136  18.180  0.00  0.00    +0.000 OA
ENDROOT
BRANCH   1   2
ATOM      2  C   UNL     1       4.339   4.618  19.041  0.00  0.00    +0.000 A 
ATOM      3  C   UNL     1       3.294   5.331  19.634  0.00  0.00    +0.000 A 
ATOM      4  C   UNL     1       2.409   4.691  20.506  0.00  0.00    +0.000 A 
ATOM      5  C   UNL     1       2.568   3.336  20.785  0.00  0.00    +0.000 A 
ATOM      6 CL   UNL     1       1.477   2.556  21.861  0.00  0.00    +0.000 Cl
ATOM      7  C   UNL     1       3.605   2.615  20.201  0.00  0.00    +0.000 A 
ATOM      8  C   UNL     1       4.491   3.259  19.327  0.00  0.00    +0.000 A 
ENDBRANCH   1   2
BRANCH   1   9
ATOM      9  C   UNL     1       4.801   6.131  17.268  0.00  0.00    +0.000 C 
BRANCH   9  10
ATOM     10  C   UNL     1       5.418   5.889  15.894  0.00  0.00    +0.000 C 
BRANCH  10  11
ATOM     11  C   UNL     1       6.154   4.557  15.820  0.00  0.00    +0.000 C 
BRANCH  11  12
ATOM     12  O   UNL     1       7.558   4.787  15.981  0.00  0.00    +0.000 OA
BRANCH  12  13
ATOM     13  N   UNL     1       7.977   4.210  17.251  0.00  0.00    +0.000 NA
ATOM     14  H   UNL     1       8.848   4.721  17.415  0.00  0.00    +0.000 HD
ATOM     15  H   UNL     1       8.270   3.275  16.961  0.00  0.00    +0.000 HD
ENDBRANCH  12  13
ENDBRANCH  11  12
ENDBRANCH  10  11
ENDBRANCH   9  10
ENDBRANCH   1   9
TORSDOF 6
ENDMDL
MODEL 2
REMARK VINA RESULT:      -5.2      1.155      1.198
REMARK  Name = 
REMARK  6 active torsions:
REMARK  status: ('A' for Active; 'I' for Inactive)
REMARK    1  A    between atoms: N_1  and  O_2
REMARK    2  A    between atoms: O_2  and  C_3
REMARK    3  A    between atoms: C_3  and  C_4
REMARK    4  A    between atoms: C_4  and  C_5
REMARK    5  A    between atoms: C_5  and  O_6
REMARK    6  A    between atoms: O_6  and  C_7
REMARK                            x       y       z     vdW  Elec       q    Type
REMARK                         _______ _______ _______ _____ _____    ______ ____
ROOT
ATOM      1  O   UNL     1       4.124   4.999  17.073  0.00  0.00    +0.000 OA
ENDROOT
BRANCH   1   2
ATOM      2  C   UNL     1       3.423   4.500  18.137  0.00  0.00    +0.000 A 
ATOM      3  C   UNL     1       2.148   4.909  18.534  0.00  0.00    +0.000 A 
ATOM      4  C   UNL     1       1.534   4.327  19.646  0.00  0.00    +0.000 A 
ATOM      5  C   UNL     1       2.195   3.333  20.362  0.00  0.00    +0.000 A 
ATOM      6 CL   UNL     1       1.435   2.622  21.731  0.00  0.00    +0.000 Cl
ATOM      7  C   UNL     1       3.466   2.917  19.977  0.00  0.00    +0.000 A 
ATOM      8  C   UNL     1       4.079   3.503  18.862  0.00  0.00    +0.000 A 
ENDBRANCH   1   2
BRANCH   1   9
ATOM      9  C   UNL     1       4.655   4.040  16.157  0.00  0.00    +0.000 C 
BRANCH   9  10
ATOM     10  C   UNL     1       5.709   4.709  15.280  0.00  0.00    +0.000 C 
BRANCH  10  11
ATOM     11  C   UNL     1       6.791   5.397  16.103  0.00  0.00    +0.000 C 
BRANCH  11  12
ATOM     12  O   UNL     1       7.892   4.498  16.275  0.00  0.00    +0.000 OA
BRANCH  12  13
ATOM     13  N   UNL     1       8.004   4.174  17.691  0.00  0.00    +0.000 NA
ATOM     14  H   UNL     1       7.789   5.081  18.112  0.00  0.00    +0.000 HD
ATOM     15  H   UNL     1       9.015   4.069  17.794  0.00  0.00    +0.000 HD
ENDBRANCH  12  13
ENDBRANCH  11  12
ENDBRANCH  10  11
ENDBRANCH   9  10
ENDBRANCH   1   9
TORSDOF 6
ENDMDL
MODEL 3
REMARK VINA RESULT:      -5.2      1.567      1.991
REMARK  Name = 
REMARK  6 active torsions:
REMARK  status: ('A' for Active; 'I' for Inactive)
REMARK    1  A    between atoms: N_1  and  O_2
REMARK    2  A    between atoms: O_2  and  C_3
REMARK    3  A    between atoms: C_3  and  C_4
REMARK    4  A    between atoms: C_4  and  C_5
REMARK    5  A    between atoms: C_5  and  O_6
REMARK    6  A    between atoms: O_6  and  C_7
REMARK                            x       y       z     vdW  Elec       q    Type
REMARK                         _______ _______ _______ _____ _____    ______ ____
ROOT
ATOM      1  O   UNL     1       5.171   5.660  18.152  0.00  0.00    +0.000 OA
ENDROOT
BRANCH   1   2
ATOM      2  C   UNL     1       4.137   4.786  18.352  0.00  0.00    +0.000 A 
ATOM      3  C   UNL     1       4.232   3.549  18.994  0.00  0.00    +0.000 A 
ATOM      4  C   UNL     1       3.102   2.738  19.132  0.00  0.00    +0.000 A 
ATOM      5  C   UNL     1       1.877   3.164  18.628  0.00  0.00    +0.000 A 
ATOM      6 CL   UNL     1       0.491   2.159  18.800  0.00  0.00    +0.000 Cl
ATOM      7  C   UNL     1       1.770   4.393  17.986  0.00  0.00    +0.000 A 
ATOM      8  C   UNL     1       2.904   5.205  17.848  0.00  0.00    +0.000 A 
ENDBRANCH   1   2
BRANCH   1   9
ATOM      9  C   UNL     1       5.204   6.326  16.889  0.00  0.00    +0.000 C 
BRANCH   9  10
ATOM     10  C   UNL     1       6.530   6.029  16.195  0.00  0.00    +0.000 C 
BRANCH  10  11
ATOM     11  C   UNL     1       6.825   4.535  16.131  0.00  0.00    +0.000 C 
BRANCH  11  12
ATOM     12  O   UNL     1       8.056   4.271  16.813  0.00  0.00    +0.000 OA
BRANCH  12  13
ATOM     13  N   UNL     1       7.808   4.318  18.248  0.00  0.00    +0.000 NA
ATOM     14  H   UNL     1       7.046   3.641  18.331  0.00  0.00    +0.000 HD
ATOM     15  H   UNL     1       7.361   5.232  18.344  0.00  0.00    +0.000 HD
ENDBRANCH  12  13
ENDBRANCH  11  12
ENDBRANCH  10  11
ENDBRANCH   9  10
ENDBRANCH   1   9
TORSDOF 6
ENDMDL
MODEL 4
REMARK VINA RESULT:      -5.2      1.622      1.780
REMARK  Name = 
REMARK  6 active torsions:
REMARK  status: ('A' for Active; 'I' for Inactive)
REMARK    1  A    between atoms: N_1  and  O_2
REMARK    2  A    between atoms: O_2  and  C_3
REMARK    3  A    between atoms: C_3  and  C_4
REMARK    4  A    between atoms: C_4  and  C_5
REMARK    5  A    between atoms: C_5  and  O_6
REMARK    6  A    between atoms: O_6  and  C_7
REMARK                            x       y       z     vdW  Elec       q    Type
REMARK                         _______ _______ _______ _____ _____    ______ ____
ROOT
ATOM      1  O   UNL     1       5.076   3.406  16.560  0.00  0.00    +0.000 OA
ENDROOT
BRANCH   1   2
ATOM      2  C   UNL     1       4.050   3.425  17.464  0.00  0.00    +0.000 A 
ATOM      3  C   UNL     1       2.692   3.530  17.151  0.00  0.00    +0.000 A 
ATOM      4  C   UNL     1       1.733   3.545  18.167  0.00  0.00    +0.000 A 
ATOM      5  C   UNL     1       2.131   3.454  19.498  0.00  0.00    +0.000 A 
ATOM      6 CL   UNL     1       0.945   3.475  20.743  0.00  0.00    +0.000 Cl
ATOM      7  C   UNL     1       3.479   3.350  19.823  0.00  0.00    +0.000 A 
ATOM      8  C   UNL     1       4.440   3.335  18.802  0.00  0.00    +0.000 A 
ENDBRANCH   1   2
BRANCH   1   9
ATOM      9  C   UNL     1       5.181   4.539  15.697  0.00  0.00    +0.000 C 
BRANCH   9  10
ATOM     10  C   UNL     1       5.573   5.766  16.517  0.00  0.00    +0.000 C 
BRANCH  10  11
ATOM     11  C   UNL     1       7.082   5.963  16.574  0.00  0.00    +0.000 C 
BRANCH  11  12
ATOM     12  O   UNL     1       7.729   4.707  16.340  0.00  0.00    +0.000 OA
BRANCH  12  13
ATOM     13  N   UNL     1       8.046   4.105  17.628  0.00  0.00    +0.000 NA
ATOM     14  H   UNL     1       8.144   3.123  17.360  0.00  0.00    +0.000 HD
ATOM     15  H   UNL     1       7.144   4.160  18.104  0.00  0.00    +0.000 HD
ENDBRANCH  12  13
ENDBRANCH  11  12
ENDBRANCH  10  11
ENDBRANCH   9  10
ENDBRANCH   1   9
TORSDOF 6
ENDMDL
MODEL 5
REMARK VINA RESULT:      -5.1      2.179      2.547
REMARK  Name = 
REMARK  6 active torsions:
REMARK  status: ('A' for Active; 'I' for Inactive)
REMARK    1  A    between atoms: N_1  and  O_2
REMARK    2  A    between atoms: O_2  and  C_3
REMARK    3  A    between atoms: C_3  and  C_4
REMARK    4  A    between atoms: C_4  and  C_5
REMARK    5  A    between atoms: C_5  and  O_6
REMARK    6  A    between atoms: O_6  and  C_7
REMARK                            x       y       z     vdW  Elec       q    Type
REMARK                         _______ _______ _______ _____ _____    ______ ____
ROOT
ATOM      1  O   UNL     1       6.160   4.109  19.125  0.00  0.00    +0.000 OA
ENDROOT
BRANCH   1   2
ATOM      2  C   UNL     1       4.864   3.673  19.095  0.00  0.00    +0.000 A 
ATOM      3  C   UNL     1       4.321   2.683  19.918  0.00  0.00    +0.000 A 
ATOM      4  C   UNL     1       2.978   2.317  19.789  0.00  0.00    +0.000 A 
ATOM      5  C   UNL     1       2.178   2.941  18.836  0.00  0.00    +0.000 A 
ATOM      6 CL   UNL     1       0.527   2.484  18.681  0.00  0.00    +0.000 Cl
ATOM      7  C   UNL     1       2.707   3.928  18.011  0.00  0.00    +0.000 A 
ATOM      8  C   UNL     1       4.054   4.293  18.142  0.00  0.00    +0.000 A 
ENDBRANCH   1   2
BRANCH   1   9
ATOM      9  C   UNL     1       6.353   5.517  19.263  0.00  0.00    +0.000 C 
BRANCH   9  10
ATOM     10  C   UNL     1       7.633   5.927  18.541  0.00  0.00    +0.000 C 
BRANCH  10  11
ATOM     11  C   UNL     1       7.381   6.987  17.477  0.00  0.00    +0.000 C 
BRANCH  11  12
ATOM     12  O   UNL     1       7.492   6.388  16.182  0.00  0.00    +0.000 OA
BRANCH  12  13
ATOM     13  N   UNL     1       6.151   6.083  15.699  0.00  0.00    +0.000 NA
ATOM     14  H   UNL     1       5.594   6.320  16.524  0.00  0.00    +0.000 HD
ATOM     15  H   UNL     1       6.173   5.062  15.679  0.00  0.00    +0.000 HD
ENDBRANCH  12  13
ENDBRANCH  11  12
ENDBRANCH  10  11
ENDBRANCH   9  10
ENDBRANCH   1   9
TORSDOF 6
ENDMDL
MODEL 6
REMARK VINA RESULT:      -5.1      2.026      2.355
REMARK  Name = 
REMARK  6 active torsions:
REMARK  status: ('A' for Active; 'I' for Inactive)
REMARK    1  A    between atoms: N_1  and  O_2
REMARK    2  A    between atoms: O_2  and  C_3
REMARK    3  A    between atoms: C_3  and  C_4
REMARK    4  A    between atoms: C_4  and  C_5
REMARK    5  A    between atoms: C_5  and  O_6
REMARK    6  A    between atoms: O_6  and  C_7
REMARK                            x       y       z     vdW  Elec       q    Type
REMARK                         _______ _______ _______ _____ _____    ______ ____
ROOT
ATOM      1  O   UNL     1       3.516   6.858  17.615  0.00  0.00    +0.000 OA
ENDROOT
BRANCH   1   2
ATOM      2  C   UNL     1       2.899   5.880  18.347  0.00  0.00    +0.000 A 
ATOM      3  C   UNL     1       2.250   4.760  17.822  0.00  0.00    +0.000 A 
ATOM      4  C   UNL     1       1.649   3.829  18.675  0.00  0.00    +0.000 A 
ATOM      5  C   UNL     1       1.697   4.019  20.053  0.00  0.00    +0.000 A 
ATOM      6 CL   UNL     1       0.953   2.871  21.096  0.00  0.00    +0.000 Cl
ATOM      7  C   UNL     1       2.340   5.131  20.587  0.00  0.00    +0.000 A 
ATOM      8  C   UNL     1       2.942   6.063  19.731  0.00  0.00    +0.000 A 
ENDBRANCH   1   2
BRANCH   1   9
ATOM      9  C   UNL     1       4.604   6.440  16.789  0.00  0.00    +0.000 C 
BRANCH   9  10
ATOM     10  C   UNL     1       5.864   6.310  17.640  0.00  0.00    +0.000 C 
BRANCH  10  11
ATOM     11  C   UNL     1       6.330   4.865  17.762  0.00  0.00    +0.000 C 
BRANCH  11  12
ATOM     12  O   UNL     1       6.201   4.443  19.124  0.00  0.00    +0.000 OA
BRANCH  12  13
ATOM     13  N   UNL     1       5.346   3.263  19.161  0.00  0.00    +0.000 NA
ATOM     14  H   UNL     1       4.918   3.367  20.084  0.00  0.00    +0.000 HD
ATOM     15  H   UNL     1       6.037   2.518  19.272  0.00  0.00    +0.000 HD
ENDBRANCH  12  13
ENDBRANCH  11  12
ENDBRANCH  10  11
ENDBRANCH   9  10
ENDBRANCH   1   9
TORSDOF 6
ENDMDL
MODEL 7
REMARK VINA RESULT:      -5.1      1.659      1.671
REMARK  Name = 
REMARK  6 active torsions:
REMARK  status: ('A' for Active; 'I' for Inactive)
REMARK    1  A    between atoms: N_1  and  O_2
REMARK    2  A    between atoms: O_2  and  C_3
REMARK    3  A    between atoms: C_3  and  C_4
REMARK    4  A    between atoms: C_4  and  C_5
REMARK    5  A    between atoms: C_5  and  O_6
REMARK    6  A    between atoms: O_6  and  C_7
REMARK                            x       y       z     vdW  Elec       q    Type
REMARK                         _______ _______ _______ _____ _____    ______ ____
ROOT
ATOM      1  O   UNL     1       5.169   5.960  17.803  0.00  0.00    +0.000 OA
ENDROOT
BRANCH   1   2
ATOM      2  C   UNL     1       4.071   5.165  17.990  0.00  0.00    +0.000 A 
ATOM      3  C   UNL     1       2.741   5.579  17.887  0.00  0.00    +0.000 A 
ATOM      4  C   UNL     1       1.700   4.672  18.106  0.00  0.00    +0.000 A 
ATOM      5  C   UNL     1       1.990   3.350  18.428  0.00  0.00    +0.000 A 
ATOM      6 CL   UNL     1       0.704   2.240  18.700  0.00  0.00    +0.000 Cl
ATOM      7  C   UNL     1       3.310   2.925  18.534  0.00  0.00    +0.000 A 
ATOM      8  C   UNL     1       4.352   3.836  18.314  0.00  0.00    +0.000 A 
ENDBRANCH   1   2
BRANCH   1   9
ATOM      9  C   UNL     1       5.247   6.652  16.556  0.00  0.00    +0.000 C 
BRANCH   9  10
ATOM     10  C   UNL     1       5.455   5.643  15.430  0.00  0.00    +0.000 C 
BRANCH  10  11
ATOM     11  C   UNL     1       6.911   5.212  15.305  0.00  0.00    +0.000 C 
BRANCH  11  12
ATOM     12  O   UNL     1       7.098   3.981  16.013  0.00  0.00    +0.000 OA
BRANCH  12  13
ATOM     13  N   UNL     1       7.870   4.256  17.218  0.00  0.00    +0.000 NA
ATOM     14  H   UNL     1       7.310   5.003  17.636  0.00  0.00    +0.000 HD
ATOM     15  H   UNL     1       8.689   4.726  16.829  0.00  0.00    +0.000 HD
ENDBRANCH  12  13
ENDBRANCH  11  12
ENDBRANCH  10  11
ENDBRANCH   9  10
ENDBRANCH   1   9
TORSDOF 6
ENDMDL
MODEL 8
REMARK VINA RESULT:      -5.1      3.326      4.509
REMARK  Name = 
REMARK  6 active torsions:
REMARK  status: ('A' for Active; 'I' for Inactive)
REMARK    1  A    between atoms: N_1  and  O_2
REMARK    2  A    between atoms: O_2  and  C_3
REMARK    3  A    between atoms: C_3  and  C_4
REMARK    4  A    between atoms: C_4  and  C_5
REMARK    5  A    between atoms: C_5  and  O_6
REMARK    6  A    between atoms: O_6  and  C_7
REMARK                            x       y       z     vdW  Elec       q    Type
REMARK                         _______ _______ _______ _____ _____    ______ ____
ROOT
ATOM      1  O   UNL     1       5.044   3.618  19.471  0.00  0.00    +0.000 OA
ENDROOT
BRANCH   1   2
ATOM      2  C   UNL     1       4.368   4.758  19.132  0.00  0.00    +0.000 A 
ATOM      3  C   UNL     1       3.342   5.346  19.877  0.00  0.00    +0.000 A 
ATOM      4  C   UNL     1       2.721   6.512  19.423  0.00  0.00    +0.000 A 
ATOM      5  C   UNL     1       3.126   7.092  18.224  0.00  0.00    +0.000 A 
ATOM      6 CL   UNL     1       2.355   8.527  17.671  0.00  0.00    +0.000 Cl
ATOM      7  C   UNL     1       4.146   6.517  17.474  0.00  0.00    +0.000 A 
ATOM      8  C   UNL     1       4.768   5.347  17.931  0.00  0.00    +0.000 A 
ENDBRANCH   1   2
BRANCH   1   9
ATOM      9  C   UNL     1       4.246   2.472  19.770  0.00  0.00    +0.000 C 
BRANCH   9  10
ATOM     10  C   UNL     1       3.778   1.828  18.468  0.00  0.00    +0.000 C 
BRANCH  10  11
ATOM     11  C   UNL     1       2.305   2.100  18.188  0.00  0.00    +0.000 C 
BRANCH  11  12
ATOM     12  O   UNL     1       2.197   2.994  17.075  0.00  0.00    +0.000 OA
BRANCH  12  13
ATOM     13  N   UNL     1       1.203   4.010  17.394  0.00  0.00    +0.000 NA
ATOM     14  H   UNL     1       0.872   3.673  18.302  0.00  0.00    +0.000 HD
ATOM     15  H   UNL     1       0.457   3.775  16.737  0.00  0.00    +0.000 HD
ENDBRANCH  12  13
ENDBRANCH  11  12
ENDBRANCH  10  11
ENDBRANCH   9  10
ENDBRANCH   1   9
TORSDOF 6
ENDMDL
MODEL 9
REMARK VINA RESULT:      -5.1      1.451      1.482
REMARK  Name = 
REMARK  6 active torsions:
REMARK  status: ('A' for Active; 'I' for Inactive)
REMARK    1  A    between atoms: N_1  and  O_2
REMARK    2  A    between atoms: O_2  and  C_3
REMARK    3  A    between atoms: C_3  and  C_4
REMARK    4  A    between atoms: C_4  and  C_5
REMARK    5  A    between atoms: C_5  and  O_6
REMARK    6  A    between atoms: O_6  and  C_7
REMARK                            x       y       z     vdW  Elec       q    Type
REMARK                         _______ _______ _______ _____ _____    ______ ____
ROOT
ATOM      1  O   UNL     1       3.933   6.515  17.193  0.00  0.00    +0.000 OA
ENDROOT
BRANCH   1   2
ATOM      2  C   UNL     1       3.216   5.783  18.100  0.00  0.00    +0.000 A 
ATOM      3  C   UNL     1       2.904   6.182  19.402  0.00  0.00    +0.000 A 
ATOM      4  C   UNL     1       2.167   5.340  20.239  0.00  0.00    +0.000 A 
ATOM      5  C   UNL     1       1.741   4.099  19.775  0.00  0.00    +0.000 A 
ATOM      6 CL   UNL     1       0.836   3.068  20.813  0.00  0.00    +0.000 Cl
ATOM      7  C   UNL     1       2.045   3.691  18.481  0.00  0.00    +0.000 A 
ATOM      8  C   UNL     1       2.784   4.536  17.643  0.00  0.00    +0.000 A 
ENDBRANCH   1   2
BRANCH   1   9
ATOM      9  C   UNL     1       5.304   6.153  17.028  0.00  0.00    +0.000 C 
BRANCH   9  10
ATOM     10  C   UNL     1       5.487   5.467  15.677  0.00  0.00    +0.000 C 
BRANCH  10  11
ATOM     11  C   UNL     1       6.518   4.347  15.734  0.00  0.00    +0.000 C 
BRANCH  11  12
ATOM     12  O   UNL     1       7.737   4.859  16.283  0.00  0.00    +0.000 OA
BRANCH  12  13
ATOM     13  N   UNL     1       8.029   4.134  17.513  0.00  0.00    +0.000 NA
ATOM     14  H   UNL     1       7.804   3.178  17.228  0.00  0.00    +0.000 HD
ATOM     15  H   UNL     1       7.248   4.423  18.106  0.00  0.00    +0.000 HD
ENDBRANCH  12  13
ENDBRANCH  11  12
ENDBRANCH  10  11
ENDBRANCH   9  10
ENDBRANCH   1   9
TORSDOF 6
ENDMDL
