MODEL 1
REMARK VINA RESULT:      -8.5      0.000      0.000
REMARK  Name = 
REMARK  4 active torsions:
REMARK  status: ('A' for Active; 'I' for Inactive)
REMARK    1  A    between atoms: C_1  and  C_2
REMARK    2  A    between atoms: C_2  and  N_3
REMARK    3  A    between atoms: C_2  and  C_13
REMARK    4  A    between atoms: N_6  and  C_7
REMARK                            x       y       z     vdW  Elec       q    Type
REMARK                         _______ _______ _______ _____ _____    ______ ____
ROOT
ATOM      1  N   UNL     1       7.056   7.780  17.092  0.00  0.00    +0.000 N 
ATOM      2  C   UNL     1       8.002   8.323  17.945  0.00  0.00    +0.000 C 
ATOM      3  O   UNL     1       8.632   7.604  18.713  0.00  0.00    +0.000 OA
ATOM      4  N   UNL     1       8.169   9.687  17.842  0.00  0.00    +0.000 N 
ATOM      5  H   UNL     1       6.330   8.365  16.708  0.00  0.00    +0.000 HD
ATOM      6  H   UNL     1       7.422  10.218  17.420  0.00  0.00    +0.000 HD
ENDROOT
BRANCH   4   7
ATOM      7  C   UNL     1       9.160  10.410  18.565  0.00  0.00    +0.000 A 
ATOM      8  C   UNL     1       9.122  10.562  19.960  0.00  0.00    +0.000 A 
ATOM      9  C   UNL     1      10.076  11.328  20.636  0.00  0.00    +0.000 A 
ATOM     10  C   UNL     1      11.099  11.943  19.927  0.00  0.00    +0.000 A 
ATOM     11  C   UNL     1      11.176  11.770  18.545  0.00  0.00    +0.000 A 
ATOM     12  C   UNL     1      10.219  10.999  17.867  0.00  0.00    +0.000 A 
ENDBRANCH   4   7
BRANCH   1  14
ATOM     13  C   UNL     1       5.536   6.171  18.198  0.00  0.00    +0.000 C 
ATOM     14  C   UNL     1       6.755   6.370  17.304  0.00  0.00    +0.000 C 
BRANCH  14  15
ATOM     15  C   UNL     1       6.709   5.544  16.056  0.00  0.00    +0.000 A 
ATOM     16  C   UNL     1       5.737   4.644  15.668  0.00  0.00    +0.000 A 
ATOM     17  C   UNL     1       6.000   4.292  14.330  0.00  0.00    +0.000 A 
ATOM     18  C   UNL     1       5.352   3.496  13.370  0.00  0.00    +0.000 A 
ATOM     19  C   UNL     1       5.921   3.369  12.100  0.00  0.00    +0.000 A 
ATOM     20  C   UNL     1       7.116   4.024  11.790  0.00  0.00    +0.000 A 
ATOM     21  C   UNL     1       7.768   4.843  12.730  0.00  0.00    +0.000 A 
ATOM     22  C   UNL     1       7.175   4.959  13.988  0.00  0.00    +0.000 A 
ATOM     23  O   UNL     1       7.611   5.727  15.044  0.00  0.00    +0.000 OA
ENDBRANCH  14  15
ENDBRANCH   1  14
TORSDOF 3
ENDMDL
MODEL 2
REMARK VINA RESULT:      -8.4      0.067      1.050
REMARK  Name = 
REMARK  4 active torsions:
REMARK  status: ('A' for Active; 'I' for Inactive)
REMARK    1  A    between atoms: C_1  and  C_2
REMARK    2  A    between atoms: C_2  and  N_3
REMARK    3  A    between atoms: C_2  and  C_13
REMARK    4  A    between atoms: N_6  and  C_7
REMARK                            x       y       z     vdW  Elec       q    Type
REMARK                         _______ _______ _______ _____ _____    ______ ____
ROOT
ATOM      1  N   UNL     1       7.030   7.808  17.104  0.00  0.00    +0.000 N 
ATOM      2  C   UNL     1       8.003   8.362  17.920  0.00  0.00    +0.000 C 
ATOM      3  O   UNL     1       8.674   7.651  18.659  0.00  0.00    +0.000 OA
ATOM      4  N   UNL     1       8.144   9.729  17.816  0.00  0.00    +0.000 N 
ATOM      5  H   UNL     1       6.281   8.383  16.752  0.00  0.00    +0.000 HD
ATOM      6  H   UNL     1       7.373  10.250  17.427  0.00  0.00    +0.000 HD
ENDROOT
BRANCH   4   7
ATOM      7  C   UNL     1       9.153  10.465  18.501  0.00  0.00    +0.000 A 
ATOM      8  C   UNL     1      10.267  11.014  17.848  0.00  0.00    +0.000 A 
ATOM      9  C   UNL     1      11.272  11.679  18.556  0.00  0.00    +0.000 A 
ATOM     10  C   UNL     1      11.170  11.823  19.933  0.00  0.00    +0.000 A 
ATOM     11  C   UNL     1      10.050  11.319  20.594  0.00  0.00    +0.000 A 
ATOM     12  C   UNL     1       9.040  10.653  19.882  0.00  0.00    +0.000 A 
ENDBRANCH   4   7
BRANCH   1  14
ATOM     13  C   UNL     1       5.556   6.172  18.233  0.00  0.00    +0.000 C 
ATOM     14  C   UNL     1       6.760   6.393  17.323  0.00  0.00    +0.000 C 
BRANCH  14  15
ATOM     15  C   UNL     1       6.715   5.563  16.077  0.00  0.00    +0.000 A 
ATOM     16  C   UNL     1       5.743   4.661  15.692  0.00  0.00    +0.000 A 
ATOM     17  C   UNL     1       6.007   4.305  14.355  0.00  0.00    +0.000 A 
ATOM     18  C   UNL     1       5.360   3.507  13.397  0.00  0.00    +0.000 A 
ATOM     19  C   UNL     1       5.930   3.376  12.128  0.00  0.00    +0.000 A 
ATOM     20  C   UNL     1       7.124   4.030  11.816  0.00  0.00    +0.000 A 
ATOM     21  C   UNL     1       7.776   4.853  12.754  0.00  0.00    +0.000 A 
ATOM     22  C   UNL     1       7.182   4.972  14.011  0.00  0.00    +0.000 A 
ATOM     23  O   UNL     1       7.617   5.744  15.065  0.00  0.00    +0.000 OA
ENDBRANCH  14  15
ENDBRANCH   1  14
TORSDOF 3
ENDMDL
MODEL 3
REMARK VINA RESULT:      -7.7      2.496      4.428
REMARK  Name = 
REMARK  4 active torsions:
REMARK  status: ('A' for Active; 'I' for Inactive)
REMARK    1  A    between atoms: C_1  and  C_2
REMARK    2  A    between atoms: C_2  and  N_3
REMARK    3  A    between atoms: C_2  and  C_13
REMARK    4  A    between atoms: N_6  and  C_7
REMARK                            x       y       z     vdW  Elec       q    Type
REMARK                         _______ _______ _______ _____ _____    ______ ____
ROOT
ATOM      1  N   UNL     1       7.626   6.493  18.252  0.00  0.00    +0.000 N 
ATOM      2  C   UNL     1       7.854   7.848  18.081  0.00  0.00    +0.000 C 
ATOM      3  O   UNL     1       7.254   8.476  17.215  0.00  0.00    +0.000 OA
ATOM      4  N   UNL     1       8.771   8.402  18.948  0.00  0.00    +0.000 N 
ATOM      5  H   UNL     1       8.317   5.921  18.714  0.00  0.00    +0.000 HD
ATOM      6  H   UNL     1       9.417   7.777  19.406  0.00  0.00    +0.000 HD
ENDROOT
BRANCH   4   7
ATOM      7  C   UNL     1       9.064   9.795  18.991  0.00  0.00    +0.000 A 
ATOM      8  C   UNL     1       9.153  10.587  17.836  0.00  0.00    +0.000 A 
ATOM      9  C   UNL     1       9.503  11.938  17.904  0.00  0.00    +0.000 A 
ATOM     10  C   UNL     1       9.753  12.527  19.137  0.00  0.00    +0.000 A 
ATOM     11  C   UNL     1       9.631  11.766  20.298  0.00  0.00    +0.000 A 
ATOM     12  C   UNL     1       9.277  10.409  20.229  0.00  0.00    +0.000 A 
ENDBRANCH   4   7
BRANCH   1  14
ATOM     13  C   UNL     1       7.476   4.679  16.576  0.00  0.00    +0.000 C 
ATOM     14  C   UNL     1       6.786   5.865  17.240  0.00  0.00    +0.000 C 
BRANCH  14  15
ATOM     15  C   UNL     1       5.390   5.559  17.687  0.00  0.00    +0.000 A 
ATOM     16  C   UNL     1       4.356   5.033  16.940  0.00  0.00    +0.000 A 
ATOM     17  C   UNL     1       3.317   4.703  17.834  0.00  0.00    +0.000 A 
ATOM     18  C   UNL     1       2.063   4.083  17.708  0.00  0.00    +0.000 A 
ATOM     19  C   UNL     1       1.273   3.917  18.848  0.00  0.00    +0.000 A 
ATOM     20  C   UNL     1       1.723   4.362  20.094  0.00  0.00    +0.000 A 
ATOM     21  C   UNL     1       2.985   4.966  20.244  0.00  0.00    +0.000 A 
ATOM     22  C   UNL     1       3.758   5.112  19.091  0.00  0.00    +0.000 A 
ATOM     23  O   UNL     1       5.028   5.636  19.004  0.00  0.00    +0.000 OA
ENDBRANCH  14  15
ENDBRANCH   1  14
TORSDOF 3
ENDMDL
MODEL 4
REMARK VINA RESULT:      -7.6      3.672      6.462
REMARK  Name = 
REMARK  4 active torsions:
REMARK  status: ('A' for Active; 'I' for Inactive)
REMARK    1  A    between atoms: C_1  and  C_2
REMARK    2  A    between atoms: C_2  and  N_3
REMARK    3  A    between atoms: C_2  and  C_13
REMARK    4  A    between atoms: N_6  and  C_7
REMARK                            x       y       z     vdW  Elec       q    Type
REMARK                         _______ _______ _______ _____ _____    ______ ____
ROOT
ATOM      1  N   UNL     1       5.127   6.560  17.780  0.00  0.00    +0.000 N 
ATOM      2  C   UNL     1       4.549   5.481  18.428  0.00  0.00    +0.000 C 
ATOM      3  O   UNL     1       5.203   4.470  18.658  0.00  0.00    +0.000 OA
ATOM      4  N   UNL     1       3.228   5.651  18.784  0.00  0.00    +0.000 N 
ATOM      5  H   UNL     1       4.545   7.236  17.311  0.00  0.00    +0.000 HD
ATOM      6  H   UNL     1       2.703   6.364  18.302  0.00  0.00    +0.000 HD
ENDROOT
BRANCH   4   7
ATOM      7  C   UNL     1       2.493   4.694  19.540  0.00  0.00    +0.000 A 
ATOM      8  C   UNL     1       2.631   4.558  20.930  0.00  0.00    +0.000 A 
ATOM      9  C   UNL     1       1.941   3.569  21.637  0.00  0.00    +0.000 A 
ATOM     10  C   UNL     1       1.084   2.708  20.965  0.00  0.00    +0.000 A 
ATOM     11  C   UNL     1       0.904   2.854  19.590  0.00  0.00    +0.000 A 
ATOM     12  C   UNL     1       1.595   3.848  18.881  0.00  0.00    +0.000 A 
ENDBRANCH   4   7
BRANCH   1  14
ATOM     13  C   UNL     1       7.428   5.833  18.330  0.00  0.00    +0.000 C 
ATOM     14  C   UNL     1       6.467   6.332  17.256  0.00  0.00    +0.000 C 
BRANCH  14  15
ATOM     15  C   UNL     1       6.519   5.520  15.998  0.00  0.00    +0.000 A 
ATOM     16  C   UNL     1       5.592   4.606  15.539  0.00  0.00    +0.000 A 
ATOM     17  C   UNL     1       5.948   4.275  14.217  0.00  0.00    +0.000 A 
ATOM     18  C   UNL     1       5.380   3.478  13.209  0.00  0.00    +0.000 A 
ATOM     19  C   UNL     1       6.033   3.378  11.978  0.00  0.00    +0.000 A 
ATOM     20  C   UNL     1       7.232   4.059  11.752  0.00  0.00    +0.000 A 
ATOM     21  C   UNL     1       7.805   4.879  12.741  0.00  0.00    +0.000 A 
ATOM     22  C   UNL     1       7.130   4.969  13.959  0.00  0.00    +0.000 A 
ATOM     23  O   UNL     1       7.481   5.733  15.049  0.00  0.00    +0.000 OA
ENDBRANCH  14  15
ENDBRANCH   1  14
TORSDOF 3
ENDMDL
MODEL 5
REMARK VINA RESULT:      -7.6      3.275      7.909
REMARK  Name = 
REMARK  4 active torsions:
REMARK  status: ('A' for Active; 'I' for Inactive)
REMARK    1  A    between atoms: C_1  and  C_2
REMARK    2  A    between atoms: C_2  and  N_3
REMARK    3  A    between atoms: C_2  and  C_13
REMARK    4  A    between atoms: N_6  and  C_7
REMARK                            x       y       z     vdW  Elec       q    Type
REMARK                         _______ _______ _______ _____ _____    ______ ____
ROOT
ATOM      1  N   UNL     1       7.045   5.951  16.129  0.00  0.00    +0.000 N 
ATOM      2  C   UNL     1       6.750   4.846  15.347  0.00  0.00    +0.000 C 
ATOM      3  O   UNL     1       6.443   3.780  15.869  0.00  0.00    +0.000 OA
ATOM      4  N   UNL     1       6.819   5.056  13.987  0.00  0.00    +0.000 N 
ATOM      5  H   UNL     1       7.593   6.706  15.746  0.00  0.00    +0.000 HD
ATOM      6  H   UNL     1       7.356   5.845  13.663  0.00  0.00    +0.000 HD
ENDROOT
BRANCH   4   7
ATOM      7  C   UNL     1       6.457   4.070  13.025  0.00  0.00    +0.000 A 
ATOM      8  C   UNL     1       7.407   3.331  12.302  0.00  0.00    +0.000 A 
ATOM      9  C   UNL     1       7.022   2.413  11.321  0.00  0.00    +0.000 A 
ATOM     10  C   UNL     1       5.675   2.205  11.057  0.00  0.00    +0.000 A 
ATOM     11  C   UNL     1       4.716   2.901  11.793  0.00  0.00    +0.000 A 
ATOM     12  C   UNL     1       5.103   3.821  12.780  0.00  0.00    +0.000 A 
ENDBRANCH   4   7
BRANCH   1  14
ATOM     13  C   UNL     1       7.875   6.815  18.294  0.00  0.00    +0.000 C 
ATOM     14  C   UNL     1       7.134   5.701  17.561  0.00  0.00    +0.000 C 
BRANCH  14  15
ATOM     15  C   UNL     1       5.840   5.327  18.215  0.00  0.00    +0.000 A 
ATOM     16  C   UNL     1       4.605   5.921  18.053  0.00  0.00    +0.000 A 
ATOM     17  C   UNL     1       3.654   5.090  18.678  0.00  0.00    +0.000 A 
ATOM     18  C   UNL     1       2.254   5.103  18.796  0.00  0.00    +0.000 A 
ATOM     19  C   UNL     1       1.627   4.082  19.516  0.00  0.00    +0.000 A 
ATOM     20  C   UNL     1       2.380   3.065  20.107  0.00  0.00    +0.000 A 
ATOM     21  C   UNL     1       3.781   3.022  19.981  0.00  0.00    +0.000 A 
ATOM     22  C   UNL     1       4.382   4.049  19.252  0.00  0.00    +0.000 A 
ATOM     23  O   UNL     1       5.722   4.192  18.968  0.00  0.00    +0.000 OA
ENDBRANCH  14  15
ENDBRANCH   1  14
TORSDOF 3
ENDMDL
MODEL 6
REMARK VINA RESULT:      -7.6      3.452      6.882
REMARK  Name = 
REMARK  4 active torsions:
REMARK  status: ('A' for Active; 'I' for Inactive)
REMARK    1  A    between atoms: C_1  and  C_2
REMARK    2  A    between atoms: C_2  and  N_3
REMARK    3  A    between atoms: C_2  and  C_13
REMARK    4  A    between atoms: N_6  and  C_7
REMARK                            x       y       z     vdW  Elec       q    Type
REMARK                         _______ _______ _______ _____ _____    ______ ____
ROOT
ATOM      1  N   UNL     1       6.236   4.766  18.517  0.00  0.00    +0.000 N 
ATOM      2  C   UNL     1       4.873   4.541  18.616  0.00  0.00    +0.000 C 
ATOM      3  O   UNL     1       4.100   5.037  17.803  0.00  0.00    +0.000 OA
ATOM      4  N   UNL     1       4.487   3.732  19.663  0.00  0.00    +0.000 N 
ATOM      5  H   UNL     1       6.826   4.646  19.327  0.00  0.00    +0.000 HD
ATOM      6  H   UNL     1       5.131   3.624  20.432  0.00  0.00    +0.000 HD
ENDROOT
BRANCH   4   7
ATOM      7  C   UNL     1       3.143   3.310  19.870  0.00  0.00    +0.000 A 
ATOM      8  C   UNL     1       2.437   2.538  18.935  0.00  0.00    +0.000 A 
ATOM      9  C   UNL     1       1.100   2.190  19.139  0.00  0.00    +0.000 A 
ATOM     10  C   UNL     1       0.447   2.594  20.296  0.00  0.00    +0.000 A 
ATOM     11  C   UNL     1       1.144   3.327  21.255  0.00  0.00    +0.000 A 
ATOM     12  C   UNL     1       2.488   3.675  21.051  0.00  0.00    +0.000 A 
ENDBRANCH   4   7
BRANCH   1  14
ATOM     13  C   UNL     1       7.822   6.589  17.986  0.00  0.00    +0.000 C 
ATOM     14  C   UNL     1       6.640   5.747  17.518  0.00  0.00    +0.000 C 
BRANCH  14  15
ATOM     15  C   UNL     1       6.819   5.198  16.137  0.00  0.00    +0.000 A 
ATOM     16  C   UNL     1       6.135   4.157  15.542  0.00  0.00    +0.000 A 
ATOM     17  C   UNL     1       6.478   4.156  14.175  0.00  0.00    +0.000 A 
ATOM     18  C   UNL     1       6.073   3.414  13.054  0.00  0.00    +0.000 A 
ATOM     19  C   UNL     1       6.648   3.696  11.812  0.00  0.00    +0.000 A 
ATOM     20  C   UNL     1       7.610   4.701  11.687  0.00  0.00    +0.000 A 
ATOM     21  C   UNL     1       8.013   5.471  12.794  0.00  0.00    +0.000 A 
ATOM     22  C   UNL     1       7.418   5.174  14.022  0.00  0.00    +0.000 A 
ATOM     23  O   UNL     1       7.628   5.814  15.222  0.00  0.00    +0.000 OA
ENDBRANCH  14  15
ENDBRANCH   1  14
TORSDOF 3
ENDMDL
MODEL 7
REMARK VINA RESULT:      -7.6      3.779      8.065
REMARK  Name = 
REMARK  4 active torsions:
REMARK  status: ('A' for Active; 'I' for Inactive)
REMARK    1  A    between atoms: C_1  and  C_2
REMARK    2  A    between atoms: C_2  and  N_3
REMARK    3  A    between atoms: C_2  and  C_13
REMARK    4  A    between atoms: N_6  and  C_7
REMARK                            x       y       z     vdW  Elec       q    Type
REMARK                         _______ _______ _______ _____ _____    ______ ____
ROOT
ATOM      1  N   UNL     1       6.683   5.525  16.736  0.00  0.00    +0.000 N 
ATOM      2  C   UNL     1       6.454   4.564  15.765  0.00  0.00    +0.000 C 
ATOM      3  O   UNL     1       6.232   3.400  16.081  0.00  0.00    +0.000 OA
ATOM      4  N   UNL     1       6.487   5.024  14.466  0.00  0.00    +0.000 N 
ATOM      5  H   UNL     1       7.170   6.375  16.497  0.00  0.00    +0.000 HD
ATOM      6  H   UNL     1       6.962   5.897  14.292  0.00  0.00    +0.000 HD
ENDROOT
BRANCH   4   7
ATOM      7  C   UNL     1       6.181   4.209  13.340  0.00  0.00    +0.000 A 
ATOM      8  C   UNL     1       4.866   3.941  12.931  0.00  0.00    +0.000 A 
ATOM      9  C   UNL     1       4.596   3.088  11.858  0.00  0.00    +0.000 A 
ATOM     10  C   UNL     1       5.642   2.499  11.160  0.00  0.00    +0.000 A 
ATOM     11  C   UNL     1       6.956   2.784  11.527  0.00  0.00    +0.000 A 
ATOM     12  C   UNL     1       7.228   3.643  12.603  0.00  0.00    +0.000 A 
ENDBRANCH   4   7
BRANCH   1  14
ATOM     13  C   UNL     1       7.819   5.826  18.912  0.00  0.00    +0.000 C 
ATOM     14  C   UNL     1       6.812   5.023  18.097  0.00  0.00    +0.000 C 
BRANCH  14  15
ATOM     15  C   UNL     1       5.514   4.809  18.813  0.00  0.00    +0.000 A 
ATOM     16  C   UNL     1       4.428   5.659  18.874  0.00  0.00    +0.000 A 
ATOM     17  C   UNL     1       3.365   4.940  19.455  0.00  0.00    +0.000 A 
ATOM     18  C   UNL     1       2.012   5.213  19.716  0.00  0.00    +0.000 A 
ATOM     19  C   UNL     1       1.229   4.230  20.326  0.00  0.00    +0.000 A 
ATOM     20  C   UNL     1       1.782   2.994  20.670  0.00  0.00    +0.000 A 
ATOM     21  C   UNL     1       3.129   2.692  20.396  0.00  0.00    +0.000 A 
ATOM     22  C   UNL     1       3.887   3.689  19.780  0.00  0.00    +0.000 A 
ATOM     23  O   UNL     1       5.204   3.606  19.386  0.00  0.00    +0.000 OA
ENDBRANCH  14  15
ENDBRANCH   1  14
TORSDOF 3
ENDMDL
MODEL 8
REMARK VINA RESULT:      -7.5      3.719      6.492
REMARK  Name = 
REMARK  4 active torsions:
REMARK  status: ('A' for Active; 'I' for Inactive)
REMARK    1  A    between atoms: C_1  and  C_2
REMARK    2  A    between atoms: C_2  and  N_3
REMARK    3  A    between atoms: C_2  and  C_13
REMARK    4  A    between atoms: N_6  and  C_7
REMARK                            x       y       z     vdW  Elec       q    Type
REMARK                         _______ _______ _______ _____ _____    ______ ____
ROOT
ATOM      1  N   UNL     1       5.234   6.470  17.769  0.00  0.00    +0.000 N 
ATOM      2  C   UNL     1       4.640   5.390  18.401  0.00  0.00    +0.000 C 
ATOM      3  O   UNL     1       5.282   4.371  18.627  0.00  0.00    +0.000 OA
ATOM      4  N   UNL     1       3.318   5.570  18.747  0.00  0.00    +0.000 N 
ATOM      5  H   UNL     1       4.662   7.157  17.302  0.00  0.00    +0.000 HD
ATOM      6  H   UNL     1       2.804   6.293  18.268  0.00  0.00    +0.000 HD
ENDROOT
BRANCH   4   7
ATOM      7  C   UNL     1       2.567   4.613  19.488  0.00  0.00    +0.000 A 
ATOM      8  C   UNL     1       1.660   3.729  18.884  0.00  0.00    +0.000 A 
ATOM      9  C   UNL     1       0.892   2.842  19.644  0.00  0.00    +0.000 A 
ATOM     10  C   UNL     1       1.033   2.812  21.025  0.00  0.00    +0.000 A 
ATOM     11  C   UNL     1       1.958   3.655  21.639  0.00  0.00    +0.000 A 
ATOM     12  C   UNL     1       2.730   4.544  20.875  0.00  0.00    +0.000 A 
ENDBRANCH   4   7
BRANCH   1  14
ATOM     13  C   UNL     1       7.514   5.683  18.323  0.00  0.00    +0.000 C 
ATOM     14  C   UNL     1       6.577   6.235  17.254  0.00  0.00    +0.000 C 
BRANCH  14  15
ATOM     15  C   UNL     1       6.630   5.464  15.971  0.00  0.00    +0.000 A 
ATOM     16  C   UNL     1       5.715   4.546  15.494  0.00  0.00    +0.000 A 
ATOM     17  C   UNL     1       6.063   4.263  14.158  0.00  0.00    +0.000 A 
ATOM     18  C   UNL     1       5.499   3.488  13.132  0.00  0.00    +0.000 A 
ATOM     19  C   UNL     1       6.140   3.438  11.891  0.00  0.00    +0.000 A 
ATOM     20  C   UNL     1       7.322   4.149  11.674  0.00  0.00    +0.000 A 
ATOM     21  C   UNL     1       7.891   4.950  12.682  0.00  0.00    +0.000 A 
ATOM     22  C   UNL     1       7.228   4.988  13.909  0.00  0.00    +0.000 A 
ATOM     23  O   UNL     1       7.576   5.725  15.019  0.00  0.00    +0.000 OA
ENDBRANCH  14  15
ENDBRANCH   1  14
TORSDOF 3
ENDMDL
MODEL 9
REMARK VINA RESULT:      -7.5      3.700      7.640
REMARK  Name = 
REMARK  4 active torsions:
REMARK  status: ('A' for Active; 'I' for Inactive)
REMARK    1  A    between atoms: C_1  and  C_2
REMARK    2  A    between atoms: C_2  and  N_3
REMARK    3  A    between atoms: C_2  and  C_13
REMARK    4  A    between atoms: N_6  and  C_7
REMARK                            x       y       z     vdW  Elec       q    Type
REMARK                         _______ _______ _______ _____ _____    ______ ____
ROOT
ATOM      1  N   UNL     1       6.978   5.776  17.435  0.00  0.00    +0.000 N 
ATOM      2  C   UNL     1       6.868   4.931  16.342  0.00  0.00    +0.000 C 
ATOM      3  O   UNL     1       6.611   3.742  16.499  0.00  0.00    +0.000 OA
ATOM      4  N   UNL     1       7.054   5.532  15.116  0.00  0.00    +0.000 N 
ATOM      5  H   UNL     1       7.489   6.642  17.351  0.00  0.00    +0.000 HD
ATOM      6  H   UNL     1       7.545   6.413  15.098  0.00  0.00    +0.000 HD
ENDROOT
BRANCH   4   7
ATOM      7  C   UNL     1       6.885   4.850  13.878  0.00  0.00    +0.000 A 
ATOM      8  C   UNL     1       7.730   5.056  12.777  0.00  0.00    +0.000 A 
ATOM      9  C   UNL     1       7.504   4.417  11.555  0.00  0.00    +0.000 A 
ATOM     10  C   UNL     1       6.433   3.543  11.418  0.00  0.00    +0.000 A 
ATOM     11  C   UNL     1       5.606   3.296  12.512  0.00  0.00    +0.000 A 
ATOM     12  C   UNL     1       5.835   3.936  13.740  0.00  0.00    +0.000 A 
ENDBRANCH   4   7
BRANCH   1  14
ATOM     13  C   UNL     1       7.841   5.827  19.753  0.00  0.00    +0.000 C 
ATOM     14  C   UNL     1       6.946   5.125  18.738  0.00  0.00    +0.000 C 
BRANCH  14  15
ATOM     15  C   UNL     1       5.573   4.840  19.262  0.00  0.00    +0.000 A 
ATOM     16  C   UNL     1       4.510   5.713  19.378  0.00  0.00    +0.000 A 
ATOM     17  C   UNL     1       3.371   4.948  19.697  0.00  0.00    +0.000 A 
ATOM     18  C   UNL     1       2.006   5.231  19.868  0.00  0.00    +0.000 A 
ATOM     19  C   UNL     1       1.134   4.187  20.193  0.00  0.00    +0.000 A 
ATOM     20  C   UNL     1       1.613   2.884  20.343  0.00  0.00    +0.000 A 
ATOM     21  C   UNL     1       2.973   2.576  20.153  0.00  0.00    +0.000 A 
ATOM     22  C   UNL     1       3.821   3.635  19.823  0.00  0.00    +0.000 A 
ATOM     23  O   UNL     1       5.170   3.566  19.556  0.00  0.00    +0.000 OA
ENDBRANCH  14  15
ENDBRANCH   1  14
TORSDOF 3
ENDMDL
