MODEL 1
REMARK VINA RESULT:      -7.8      0.000      0.000
REMARK  Name = 
REMARK  5 active torsions:
REMARK  status: ('A' for Active; 'I' for Inactive)
REMARK    1  A    between atoms: C_2  and  C_14
REMARK    2  A    between atoms: N_3  and  C_4
REMARK    3  A    between atoms: C_4  and  N_6
REMARK    4  A    between atoms: N_6  and  C_7
REMARK    5  A    between atoms: C_18  and  N_19
REMARK                            x       y       z     vdW  Elec       q    Type
REMARK                         _______ _______ _______ _____ _____    ______ ____
ROOT
ATOM      1  O   UNL     1       5.281   6.191  16.022  0.00  0.00    +0.000 OA
ATOM      2  C   UNL     1       5.835   5.115  15.825  0.00  0.00    +0.000 C 
ATOM      3  N   UNL     1       6.160   4.208  16.828  0.00  0.00    +0.000 N 
ATOM      4  H   UNL     1       6.891   3.546  16.636  0.00  0.00    +0.000 HD
ENDROOT
BRANCH   2   5
ATOM      5  C   UNL     1       6.301   4.844  14.435  0.00  0.00    +0.000 A 
ATOM      6  C   UNL     1       7.495   5.352  13.902  0.00  0.00    +0.000 A 
ATOM      7  C   UNL     1       7.913   4.948  12.625  0.00  0.00    +0.000 A 
ATOM      8  C   UNL     1       7.154   4.045  11.878  0.00  0.00    +0.000 A 
ATOM      9  C   UNL     1       5.955   3.553  12.403  0.00  0.00    +0.000 A 
ATOM     10  C   UNL     1       5.524   3.958  13.671  0.00  0.00    +0.000 A 
BRANCH   9  11
ATOM     11  N   UNL     1       5.150   2.591  11.639  0.00  0.00    +0.000 N 
ATOM     12  O   UNL     1       5.658   1.484  11.401  0.00  0.00    +0.000 OA
ATOM     13  O   UNL     1       4.022   2.940  11.273  0.00  0.00    +0.000 OA
ENDBRANCH   9  11
ENDBRANCH   2   5
BRANCH   3  14
ATOM     14  C   UNL     1       5.616   4.198  18.115  0.00  0.00    +0.000 C 
ATOM     15  S   UNL     1       5.943   5.324  19.315  0.00  0.00    +0.000 S 
BRANCH  14  16
ATOM     16  N   UNL     1       4.805   3.080  18.315  0.00  0.00    +0.000 N 
ATOM     17  H   UNL     1       5.129   2.365  18.954  0.00  0.00    +0.000 HD
BRANCH  16  18
ATOM     18  C   UNL     1       3.519   2.865  17.622  0.00  0.00    +0.000 C 
ATOM     19  C   UNL     1       2.677   4.156  17.598  0.00  0.00    +0.000 C 
ATOM     20  C   UNL     1       1.986   4.262  18.946  0.00  0.00    +0.000 C 
ATOM     21  S   UNL     1       1.498   2.597  19.328  0.00  0.00    +0.000 S 
ATOM     22  O   UNL     1       0.162   2.373  18.822  0.00  0.00    +0.000 OA
ATOM     23  O   UNL     1       1.862   2.316  20.703  0.00  0.00    +0.000 OA
ATOM     24  C   UNL     1       2.659   1.772  18.260  0.00  0.00    +0.000 C 
ENDBRANCH  16  18
ENDBRANCH  14  16
ENDBRANCH   3  14
TORSDOF 5
ENDMDL
MODEL 2
REMARK VINA RESULT:      -7.6      4.483      7.215
REMARK  Name = 
REMARK  5 active torsions:
REMARK  status: ('A' for Active; 'I' for Inactive)
REMARK    1  A    between atoms: C_2  and  C_14
REMARK    2  A    between atoms: N_3  and  C_4
REMARK    3  A    between atoms: C_4  and  N_6
REMARK    4  A    between atoms: N_6  and  C_7
REMARK    5  A    between atoms: C_18  and  N_19
REMARK                            x       y       z     vdW  Elec       q    Type
REMARK                         _______ _______ _______ _____ _____    ______ ____
ROOT
ATOM      1  O   UNL     1       1.943   5.469  17.701  0.00  0.00    +0.000 OA
ATOM      2  C   UNL     1       2.702   6.161  18.371  0.00  0.00    +0.000 C 
ATOM      3  N   UNL     1       3.910   5.712  18.895  0.00  0.00    +0.000 N 
ATOM      4  H   UNL     1       4.285   6.206  19.686  0.00  0.00    +0.000 HD
ENDROOT
BRANCH   2   5
ATOM      5  C   UNL     1       2.219   7.519  18.747  0.00  0.00    +0.000 A 
ATOM      6  C   UNL     1       2.129   8.590  17.845  0.00  0.00    +0.000 A 
ATOM      7  C   UNL     1       1.551   9.801  18.258  0.00  0.00    +0.000 A 
ATOM      8  C   UNL     1       1.062   9.950  19.557  0.00  0.00    +0.000 A 
ATOM      9  C   UNL     1       1.169   8.888  20.462  0.00  0.00    +0.000 A 
ATOM     10  C   UNL     1       1.753   7.682  20.063  0.00  0.00    +0.000 A 
BRANCH   9  11
ATOM     11  N   UNL     1       0.648   9.022  21.828  0.00  0.00    +0.000 N 
ATOM     12  O   UNL     1       1.382   9.566  22.669  0.00  0.00    +0.000 OA
ATOM     13  O   UNL     1      -0.483   8.583  22.063  0.00  0.00    +0.000 OA
ENDBRANCH   9  11
ENDBRANCH   2   5
BRANCH   3  14
ATOM     14  C   UNL     1       4.604   4.575  18.470  0.00  0.00    +0.000 C 
ATOM     15  S   UNL     1       6.270   4.459  18.311  0.00  0.00    +0.000 S 
BRANCH  14  16
ATOM     16  N   UNL     1       3.728   3.548  18.118  0.00  0.00    +0.000 N 
ATOM     17  H   UNL     1       3.295   3.583  17.204  0.00  0.00    +0.000 HD
BRANCH  16  18
ATOM     18  C   UNL     1       3.371   2.431  19.016  0.00  0.00    +0.000 C 
ATOM     19  C   UNL     1       1.872   2.087  18.907  0.00  0.00    +0.000 C 
ATOM     20  C   UNL     1       1.123   3.084  19.772  0.00  0.00    +0.000 C 
ATOM     21  S   UNL     1       2.140   3.273  21.217  0.00  0.00    +0.000 S 
ATOM     22  O   UNL     1       1.723   2.311  22.212  0.00  0.00    +0.000 OA
ATOM     23  O   UNL     1       2.264   4.687  21.510  0.00  0.00    +0.000 OA
ATOM     24  C   UNL     1       3.667   2.715  20.489  0.00  0.00    +0.000 C 
ENDBRANCH  16  18
ENDBRANCH  14  16
ENDBRANCH   3  14
TORSDOF 5
ENDMDL
MODEL 3
REMARK VINA RESULT:      -7.6      1.225      1.786
REMARK  Name = 
REMARK  5 active torsions:
REMARK  status: ('A' for Active; 'I' for Inactive)
REMARK    1  A    between atoms: C_2  and  C_14
REMARK    2  A    between atoms: N_3  and  C_4
REMARK    3  A    between atoms: C_4  and  N_6
REMARK    4  A    between atoms: N_6  and  C_7
REMARK    5  A    between atoms: C_18  and  N_19
REMARK                            x       y       z     vdW  Elec       q    Type
REMARK                         _______ _______ _______ _____ _____    ______ ____
ROOT
ATOM      1  O   UNL     1       4.566   4.156  16.095  0.00  0.00    +0.000 OA
ATOM      2  C   UNL     1       5.744   4.423  15.886  0.00  0.00    +0.000 C 
ATOM      3  N   UNL     1       6.632   4.860  16.863  0.00  0.00    +0.000 N 
ATOM      4  H   UNL     1       7.444   5.369  16.558  0.00  0.00    +0.000 HD
ENDROOT
BRANCH   2   5
ATOM      5  C   UNL     1       6.196   4.400  14.466  0.00  0.00    +0.000 A 
ATOM      6  C   UNL     1       7.304   5.116  13.990  0.00  0.00    +0.000 A 
ATOM      7  C   UNL     1       7.728   4.941  12.663  0.00  0.00    +0.000 A 
ATOM      8  C   UNL     1       7.059   4.061  11.811  0.00  0.00    +0.000 A 
ATOM      9  C   UNL     1       5.942   3.361  12.280  0.00  0.00    +0.000 A 
ATOM     10  C   UNL     1       5.506   3.536  13.598  0.00  0.00    +0.000 A 
BRANCH   9  11
ATOM     11  N   UNL     1       5.234   2.420  11.403  0.00  0.00    +0.000 N 
ATOM     12  O   UNL     1       4.140   2.782  10.941  0.00  0.00    +0.000 OA
ATOM     13  O   UNL     1       5.762   1.324  11.181  0.00  0.00    +0.000 OA
ENDBRANCH   9  11
ENDBRANCH   2   5
BRANCH   3  14
ATOM     14  C   UNL     1       6.446   4.729  18.242  0.00  0.00    +0.000 C 
ATOM     15  S   UNL     1       7.245   5.620  19.417  0.00  0.00    +0.000 S 
BRANCH  14  16
ATOM     16  N   UNL     1       5.550   3.702  18.538  0.00  0.00    +0.000 N 
ATOM     17  H   UNL     1       5.538   2.890  17.933  0.00  0.00    +0.000 HD
BRANCH  16  18
ATOM     18  C   UNL     1       4.593   3.746  19.663  0.00  0.00    +0.000 C 
ATOM     19  C   UNL     1       4.127   2.329  20.052  0.00  0.00    +0.000 C 
ATOM     20  C   UNL     1       3.033   1.936  19.076  0.00  0.00    +0.000 C 
ATOM     21  S   UNL     1       2.082   3.420  18.851  0.00  0.00    +0.000 S 
ATOM     22  O   UNL     1       1.011   3.442  19.822  0.00  0.00    +0.000 OA
ATOM     23  O   UNL     1       1.846   3.604  17.433  0.00  0.00    +0.000 OA
ATOM     24  C   UNL     1       3.340   4.571  19.364  0.00  0.00    +0.000 C 
ENDBRANCH  16  18
ENDBRANCH  14  16
ENDBRANCH   3  14
TORSDOF 5
ENDMDL
MODEL 4
REMARK VINA RESULT:      -7.5      1.186      1.744
REMARK  Name = 
REMARK  5 active torsions:
REMARK  status: ('A' for Active; 'I' for Inactive)
REMARK    1  A    between atoms: C_2  and  C_14
REMARK    2  A    between atoms: N_3  and  C_4
REMARK    3  A    between atoms: C_4  and  N_6
REMARK    4  A    between atoms: N_6  and  C_7
REMARK    5  A    between atoms: C_18  and  N_19
REMARK                            x       y       z     vdW  Elec       q    Type
REMARK                         _______ _______ _______ _____ _____    ______ ____
ROOT
ATOM      1  O   UNL     1       7.592   4.783  16.674  0.00  0.00    +0.000 OA
ATOM      2  C   UNL     1       6.578   4.647  15.998  0.00  0.00    +0.000 C 
ATOM      3  N   UNL     1       5.317   4.385  16.523  0.00  0.00    +0.000 N 
ATOM      4  H   UNL     1       4.640   3.958  15.914  0.00  0.00    +0.000 HD
ENDROOT
BRANCH   2   5
ATOM      5  C   UNL     1       6.756   4.631  14.518  0.00  0.00    +0.000 A 
ATOM      6  C   UNL     1       7.764   5.338  13.848  0.00  0.00    +0.000 A 
ATOM      7  C   UNL     1       7.930   5.170  12.464  0.00  0.00    +0.000 A 
ATOM      8  C   UNL     1       7.101   4.306  11.747  0.00  0.00    +0.000 A 
ATOM      9  C   UNL     1       6.083   3.615  12.413  0.00  0.00    +0.000 A 
ATOM     10  C   UNL     1       5.904   3.783  13.789  0.00  0.00    +0.000 A 
BRANCH   9  11
ATOM     11  N   UNL     1       5.210   2.691  11.677  0.00  0.00    +0.000 N 
ATOM     12  O   UNL     1       4.076   3.094  11.375  0.00  0.00    +0.000 OA
ATOM     13  O   UNL     1       5.650   1.567  11.409  0.00  0.00    +0.000 OA
ENDBRANCH   9  11
ENDBRANCH   2   5
BRANCH   3  14
ATOM     14  C   UNL     1       4.939   4.582  17.854  0.00  0.00    +0.000 C 
ATOM     15  S   UNL     1       4.328   6.011  18.486  0.00  0.00    +0.000 S 
BRANCH  14  16
ATOM     16  N   UNL     1       5.197   3.452  18.629  0.00  0.00    +0.000 N 
ATOM     17  H   UNL     1       6.144   3.097  18.653  0.00  0.00    +0.000 HD
BRANCH  16  18
ATOM     18  C   UNL     1       4.160   2.723  19.389  0.00  0.00    +0.000 C 
ATOM     19  C   UNL     1       3.741   1.431  18.659  0.00  0.00    +0.000 C 
ATOM     20  C   UNL     1       2.742   1.829  17.587  0.00  0.00    +0.000 C 
ATOM     21  S   UNL     1       1.735   3.074  18.357  0.00  0.00    +0.000 S 
ATOM     22  O   UNL     1       0.597   2.436  18.980  0.00  0.00    +0.000 OA
ATOM     23  O   UNL     1       1.592   4.185  17.436  0.00  0.00    +0.000 OA
ATOM     24  C   UNL     1       2.891   3.543  19.627  0.00  0.00    +0.000 C 
ENDBRANCH  16  18
ENDBRANCH  14  16
ENDBRANCH   3  14
TORSDOF 5
ENDMDL
MODEL 5
REMARK VINA RESULT:      -7.4      4.547      8.442
REMARK  Name = 
REMARK  5 active torsions:
REMARK  status: ('A' for Active; 'I' for Inactive)
REMARK    1  A    between atoms: C_2  and  C_14
REMARK    2  A    between atoms: N_3  and  C_4
REMARK    3  A    between atoms: C_4  and  N_6
REMARK    4  A    between atoms: N_6  and  C_7
REMARK    5  A    between atoms: C_18  and  N_19
REMARK                            x       y       z     vdW  Elec       q    Type
REMARK                         _______ _______ _______ _____ _____    ______ ____
ROOT
ATOM      1  O   UNL     1       3.295   7.285  17.686  0.00  0.00    +0.000 OA
ATOM      2  C   UNL     1       2.699   7.219  18.756  0.00  0.00    +0.000 C 
ATOM      3  N   UNL     1       2.706   6.103  19.587  0.00  0.00    +0.000 N 
ATOM      4  H   UNL     1       1.946   6.006  20.239  0.00  0.00    +0.000 HD
ENDROOT
BRANCH   2   5
ATOM      5  C   UNL     1       1.812   8.365  19.103  0.00  0.00    +0.000 A 
ATOM      6  C   UNL     1       1.358   9.308  18.169  0.00  0.00    +0.000 A 
ATOM      7  C   UNL     1       0.430  10.285  18.561  0.00  0.00    +0.000 A 
ATOM      8  C   UNL     1      -0.048  10.329  19.872  0.00  0.00    +0.000 A 
ATOM      9  C   UNL     1       0.419   9.399  20.808  0.00  0.00    +0.000 A 
ATOM     10  C   UNL     1       1.351   8.429  20.429  0.00  0.00    +0.000 A 
BRANCH   9  11
ATOM     11  N   UNL     1      -0.083   9.420  22.188  0.00  0.00    +0.000 N 
ATOM     12  O   UNL     1       0.254  10.377  22.904  0.00  0.00    +0.000 OA
ATOM     13  O   UNL     1      -0.803   8.486  22.557  0.00  0.00    +0.000 OA
ENDBRANCH   9  11
ENDBRANCH   2   5
BRANCH   3  14
ATOM     14  C   UNL     1       3.632   5.058  19.530  0.00  0.00    +0.000 C 
ATOM     15  S   UNL     1       3.292   3.445  19.835  0.00  0.00    +0.000 S 
BRANCH  14  16
ATOM     16  N   UNL     1       4.914   5.531  19.252  0.00  0.00    +0.000 N 
ATOM     17  H   UNL     1       5.125   6.496  19.472  0.00  0.00    +0.000 HD
BRANCH  16  18
ATOM     18  C   UNL     1       5.972   4.714  18.623  0.00  0.00    +0.000 C 
ATOM     19  C   UNL     1       7.335   5.433  18.673  0.00  0.00    +0.000 C 
ATOM     20  C   UNL     1       7.356   6.428  17.527  0.00  0.00    +0.000 C 
ATOM     21  S   UNL     1       6.576   5.571  16.180  0.00  0.00    +0.000 S 
ATOM     22  O   UNL     1       7.589   4.882  15.413  0.00  0.00    +0.000 OA
ATOM     23  O   UNL     1       5.612   6.463  15.565  0.00  0.00    +0.000 OA
ATOM     24  C   UNL     1       5.690   4.376  17.158  0.00  0.00    +0.000 C 
ENDBRANCH  16  18
ENDBRANCH  14  16
ENDBRANCH   3  14
TORSDOF 5
ENDMDL
MODEL 6
REMARK VINA RESULT:      -7.4      4.219      7.939
REMARK  Name = 
REMARK  5 active torsions:
REMARK  status: ('A' for Active; 'I' for Inactive)
REMARK    1  A    between atoms: C_2  and  C_14
REMARK    2  A    between atoms: N_3  and  C_4
REMARK    3  A    between atoms: C_4  and  N_6
REMARK    4  A    between atoms: N_6  and  C_7
REMARK    5  A    between atoms: C_18  and  N_19
REMARK                            x       y       z     vdW  Elec       q    Type
REMARK                         _______ _______ _______ _____ _____    ______ ____
ROOT
ATOM      1  O   UNL     1       2.185   5.432  17.930  0.00  0.00    +0.000 OA
ATOM      2  C   UNL     1       2.698   6.109  18.814  0.00  0.00    +0.000 C 
ATOM      3  N   UNL     1       3.609   5.619  19.745  0.00  0.00    +0.000 N 
ATOM      4  H   UNL     1       3.707   6.125  20.608  0.00  0.00    +0.000 HD
ENDROOT
BRANCH   2   5
ATOM      5  C   UNL     1       2.199   7.505  18.966  0.00  0.00    +0.000 A 
ATOM      6  C   UNL     1       2.070   8.406  17.898  0.00  0.00    +0.000 A 
ATOM      7  C   UNL     1       1.480   9.661  18.114  0.00  0.00    +0.000 A 
ATOM      8  C   UNL     1       1.019  10.023  19.381  0.00  0.00    +0.000 A 
ATOM      9  C   UNL     1       1.165   9.132  20.450  0.00  0.00    +0.000 A 
ATOM     10  C   UNL     1       1.761   7.883  20.247  0.00  0.00    +0.000 A 
BRANCH   9  11
ATOM     11  N   UNL     1       0.673   9.490  21.786  0.00  0.00    +0.000 N 
ATOM     12  O   UNL     1       1.484   9.442  22.725  0.00  0.00    +0.000 OA
ATOM     13  O   UNL     1      -0.515   9.810  21.901  0.00  0.00    +0.000 OA
ENDBRANCH   9  11
ENDBRANCH   2   5
BRANCH   3  14
ATOM     14  C   UNL     1       4.335   4.432  19.618  0.00  0.00    +0.000 C 
ATOM     15  S   UNL     1       3.731   2.892  19.901  0.00  0.00    +0.000 S 
BRANCH  14  16
ATOM     16  N   UNL     1       5.666   4.683  19.289  0.00  0.00    +0.000 N 
ATOM     17  H   UNL     1       6.219   5.239  19.930  0.00  0.00    +0.000 HD
BRANCH  16  18
ATOM     18  C   UNL     1       6.307   4.214  18.043  0.00  0.00    +0.000 C 
ATOM     19  C   UNL     1       7.603   4.998  17.756  0.00  0.00    +0.000 C 
ATOM     20  C   UNL     1       7.196   6.309  17.108  0.00  0.00    +0.000 C 
ATOM     21  S   UNL     1       5.869   5.871  16.011  0.00  0.00    +0.000 S 
ATOM     22  O   UNL     1       6.419   5.564  14.710  0.00  0.00    +0.000 OA
ATOM     23  O   UNL     1       4.791   6.823  16.191  0.00  0.00    +0.000 OA
ATOM     24  C   UNL     1       5.411   4.348  16.811  0.00  0.00    +0.000 C 
ENDBRANCH  16  18
ENDBRANCH  14  16
ENDBRANCH   3  14
TORSDOF 5
ENDMDL
MODEL 7
REMARK VINA RESULT:      -7.4      1.336      1.887
REMARK  Name = 
REMARK  5 active torsions:
REMARK  status: ('A' for Active; 'I' for Inactive)
REMARK    1  A    between atoms: C_2  and  C_14
REMARK    2  A    between atoms: N_3  and  C_4
REMARK    3  A    between atoms: C_4  and  N_6
REMARK    4  A    between atoms: N_6  and  C_7
REMARK    5  A    between atoms: C_18  and  N_19
REMARK                            x       y       z     vdW  Elec       q    Type
REMARK                         _______ _______ _______ _____ _____    ______ ____
ROOT
ATOM      1  O   UNL     1       7.873   4.169  16.596  0.00  0.00    +0.000 OA
ATOM      2  C   UNL     1       6.941   4.711  16.013  0.00  0.00    +0.000 C 
ATOM      3  N   UNL     1       5.800   5.197  16.644  0.00  0.00    +0.000 N 
ATOM      4  H   UNL     1       4.970   5.302  16.087  0.00  0.00    +0.000 HD
ENDROOT
BRANCH   2   5
ATOM      5  C   UNL     1       6.992   4.717  14.523  0.00  0.00    +0.000 A 
ATOM      6  C   UNL     1       7.908   5.476  13.780  0.00  0.00    +0.000 A 
ATOM      7  C   UNL     1       7.962   5.329  12.385  0.00  0.00    +0.000 A 
ATOM      8  C   UNL     1       7.116   4.434  11.729  0.00  0.00    +0.000 A 
ATOM      9  C   UNL     1       6.190   3.691  12.469  0.00  0.00    +0.000 A 
ATOM     10  C   UNL     1       6.121   3.837  13.858  0.00  0.00    +0.000 A 
BRANCH   9  11
ATOM     11  N   UNL     1       5.301   2.734  11.798  0.00  0.00    +0.000 N 
ATOM     12  O   UNL     1       4.145   3.109  11.543  0.00  0.00    +0.000 OA
ATOM     13  O   UNL     1       5.749   1.613  11.532  0.00  0.00    +0.000 OA
ENDBRANCH   9  11
ENDBRANCH   2   5
BRANCH   3  14
ATOM     14  C   UNL     1       5.686   5.468  18.011  0.00  0.00    +0.000 C 
ATOM     15  S   UNL     1       6.971   5.623  19.078  0.00  0.00    +0.000 S 
BRANCH  14  16
ATOM     16  N   UNL     1       4.351   5.527  18.407  0.00  0.00    +0.000 N 
ATOM     17  H   UNL     1       3.778   6.279  18.043  0.00  0.00    +0.000 HD
BRANCH  16  18
ATOM     18  C   UNL     1       3.732   4.577  19.354  0.00  0.00    +0.000 C 
ATOM     19  C   UNL     1       4.048   3.119  18.965  0.00  0.00    +0.000 C 
ATOM     20  C   UNL     1       3.074   2.731  17.867  0.00  0.00    +0.000 C 
ATOM     21  S   UNL     1       1.532   3.464  18.359  0.00  0.00    +0.000 S 
ATOM     22  O   UNL     1       0.793   2.511  19.156  0.00  0.00    +0.000 OA
ATOM     23  O   UNL     1       0.951   4.128  17.209  0.00  0.00    +0.000 OA
ATOM     24  C   UNL     1       2.211   4.706  19.440  0.00  0.00    +0.000 C 
ENDBRANCH  16  18
ENDBRANCH  14  16
ENDBRANCH   3  14
TORSDOF 5
ENDMDL
MODEL 8
REMARK VINA RESULT:      -7.3      1.212      1.396
REMARK  Name = 
REMARK  5 active torsions:
REMARK  status: ('A' for Active; 'I' for Inactive)
REMARK    1  A    between atoms: C_2  and  C_14
REMARK    2  A    between atoms: N_3  and  C_4
REMARK    3  A    between atoms: C_4  and  N_6
REMARK    4  A    between atoms: N_6  and  C_7
REMARK    5  A    between atoms: C_18  and  N_19
REMARK                            x       y       z     vdW  Elec       q    Type
REMARK                         _______ _______ _______ _____ _____    ______ ____
ROOT
ATOM      1  O   UNL     1       6.161   6.226  16.324  0.00  0.00    +0.000 OA
ATOM      2  C   UNL     1       5.944   5.105  15.877  0.00  0.00    +0.000 C 
ATOM      3  N   UNL     1       5.452   4.044  16.630  0.00  0.00    +0.000 N 
ATOM      4  H   UNL     1       5.629   3.114  16.292  0.00  0.00    +0.000 HD
ENDROOT
BRANCH   2   5
ATOM      5  C   UNL     1       6.369   4.849  14.471  0.00  0.00    +0.000 A 
ATOM      6  C   UNL     1       7.542   5.371  13.906  0.00  0.00    +0.000 A 
ATOM      7  C   UNL     1       7.923   4.981  12.612  0.00  0.00    +0.000 A 
ATOM      8  C   UNL     1       7.148   4.079  11.882  0.00  0.00    +0.000 A 
ATOM      9  C   UNL     1       5.969   3.573  12.439  0.00  0.00    +0.000 A 
ATOM     10  C   UNL     1       5.575   3.963  13.723  0.00  0.00    +0.000 A 
BRANCH   9  11
ATOM     11  N   UNL     1       5.148   2.611  11.692  0.00  0.00    +0.000 N 
ATOM     12  O   UNL     1       5.655   1.508  11.432  0.00  0.00    +0.000 OA
ATOM     13  O   UNL     1       4.008   2.955  11.362  0.00  0.00    +0.000 OA
ENDBRANCH   9  11
ENDBRANCH   2   5
BRANCH   3  14
ATOM     14  C   UNL     1       4.810   4.160  17.866  0.00  0.00    +0.000 C 
ATOM     15  S   UNL     1       5.461   4.883  19.233  0.00  0.00    +0.000 S 
BRANCH  14  16
ATOM     16  N   UNL     1       3.566   3.530  17.853  0.00  0.00    +0.000 N 
ATOM     17  H   UNL     1       2.865   3.874  17.209  0.00  0.00    +0.000 HD
BRANCH  16  18
ATOM     18  C   UNL     1       3.201   2.413  18.749  0.00  0.00    +0.000 C 
ATOM     19  C   UNL     1       1.685   2.136  18.703  0.00  0.00    +0.000 C 
ATOM     20  C   UNL     1       1.019   3.149  19.617  0.00  0.00    +0.000 C 
ATOM     21  S   UNL     1       2.108   3.269  21.016  0.00  0.00    +0.000 S 
ATOM     22  O   UNL     1       1.695   2.309  22.015  0.00  0.00    +0.000 OA
ATOM     23  O   UNL     1       2.306   4.671  21.326  0.00  0.00    +0.000 OA
ATOM     24  C   UNL     1       3.574   2.660  20.212  0.00  0.00    +0.000 C 
ENDBRANCH  16  18
ENDBRANCH  14  16
ENDBRANCH   3  14
TORSDOF 5
ENDMDL
MODEL 9
REMARK VINA RESULT:      -7.2      1.303      1.523
REMARK  Name = 
REMARK  5 active torsions:
REMARK  status: ('A' for Active; 'I' for Inactive)
REMARK    1  A    between atoms: C_2  and  C_14
REMARK    2  A    between atoms: N_3  and  C_4
REMARK    3  A    between atoms: C_4  and  N_6
REMARK    4  A    between atoms: N_6  and  C_7
REMARK    5  A    between atoms: C_18  and  N_19
REMARK                            x       y       z     vdW  Elec       q    Type
REMARK                         _______ _______ _______ _____ _____    ______ ____
ROOT
ATOM      1  O   UNL     1       7.242   4.499  16.690  0.00  0.00    +0.000 OA
ATOM      2  C   UNL     1       6.296   4.684  15.932  0.00  0.00    +0.000 C 
ATOM      3  N   UNL     1       4.977   4.828  16.349  0.00  0.00    +0.000 N 
ATOM      4  H   UNL     1       4.254   4.632  15.678  0.00  0.00    +0.000 HD
ENDROOT
BRANCH   2   5
ATOM      5  C   UNL     1       6.582   4.613  14.471  0.00  0.00    +0.000 A 
ATOM      6  C   UNL     1       7.627   5.310  13.848  0.00  0.00    +0.000 A 
ATOM      7  C   UNL     1       7.896   5.091  12.488  0.00  0.00    +0.000 A 
ATOM      8  C   UNL     1       7.135   4.185  11.748  0.00  0.00    +0.000 A 
ATOM      9  C   UNL     1       6.080   3.503  12.366  0.00  0.00    +0.000 A 
ATOM     10  C   UNL     1       5.798   3.722  13.718  0.00  0.00    +0.000 A 
BRANCH   9  11
ATOM     11  N   UNL     1       5.278   2.535  11.607  0.00  0.00    +0.000 N 
ATOM     12  O   UNL     1       4.139   2.887  11.257  0.00  0.00    +0.000 OA
ATOM     13  O   UNL     1       5.775   1.429  11.368  0.00  0.00    +0.000 OA
ENDBRANCH   9  11
ENDBRANCH   2   5
BRANCH   3  14
ATOM     14  C   UNL     1       4.569   5.134  17.651  0.00  0.00    +0.000 C 
ATOM     15  S   UNL     1       3.950   6.611  18.149  0.00  0.00    +0.000 S 
BRANCH  14  16
ATOM     16  N   UNL     1       4.805   4.071  18.521  0.00  0.00    +0.000 N 
ATOM     17  H   UNL     1       5.679   4.057  19.031  0.00  0.00    +0.000 HD
BRANCH  16  18
ATOM     18  C   UNL     1       3.867   2.945  18.716  0.00  0.00    +0.000 C 
ATOM     19  C   UNL     1       2.531   3.204  17.992  0.00  0.00    +0.000 C 
ATOM     20  C   UNL     1       1.706   4.108  18.891  0.00  0.00    +0.000 C 
ATOM     21  S   UNL     1       2.007   3.499  20.532  0.00  0.00    +0.000 S 
ATOM     22  O   UNL     1       1.007   2.506  20.854  0.00  0.00    +0.000 OA
ATOM     23  O   UNL     1       2.283   4.629  21.398  0.00  0.00    +0.000 OA
ATOM     24  C   UNL     1       3.544   2.670  20.185  0.00  0.00    +0.000 C 
ENDBRANCH  16  18
ENDBRANCH  14  16
ENDBRANCH   3  14
TORSDOF 5
ENDMDL
