MODEL 1
REMARK VINA RESULT:      -8.1      0.000      0.000
REMARK  Name = 
REMARK  5 active torsions:
REMARK  status: ('A' for Active; 'I' for Inactive)
REMARK    1  A    between atoms: C_1  and  C_2
REMARK    2  A    between atoms: C_5  and  C_7
REMARK    3  A    between atoms: C_14  and  C_15
REMARK    4  A    between atoms: C_18  and  S_19
REMARK    5  A    between atoms: S_19  and  C_20
REMARK                            x       y       z     vdW  Elec       q    Type
REMARK                         _______ _______ _______ _____ _____    ______ ____
ROOT
ATOM      1  C   UNL     1       1.920   3.255  18.069  0.00  0.00    +0.000 C 
ATOM      2  C   UNL     1       2.888   3.488  19.236  0.00  0.00    +0.000 C 
ATOM      3  C   UNL     1       4.109   4.282  18.801  0.00  0.00    +0.000 C 
ATOM      4  N   UNL     1       3.762   5.647  18.387  0.00  0.00    +0.000 N 
ATOM      5  C   UNL     1       4.276   6.214  17.189  0.00  0.00    +0.000 C 
ATOM      6  O   UNL     1       3.826   7.248  16.695  0.00  0.00    +0.000 OA
ATOM      7  C   UNL     1       2.790   6.310  19.248  0.00  0.00    +0.000 A 
ATOM      8  C   UNL     1       2.528   7.689  19.142  0.00  0.00    +0.000 A 
ATOM      9  C   UNL     1       1.611   8.380  19.965  0.00  0.00    +0.000 A 
ATOM     10  C   UNL     1       0.953   7.631  20.942  0.00  0.00    +0.000 A 
ATOM     11  C   UNL     1       1.179   6.258  21.079  0.00  0.00    +0.000 A 
ATOM     12  C   UNL     1       2.084   5.580  20.247  0.00  0.00    +0.000 A 
ATOM     13  N   UNL     1       2.240   4.160  20.354  0.00  0.00    +0.000 N 
ATOM     14  C   UNL     1       1.786   3.379  21.404  0.00  0.00    +0.000 C 
ATOM     15  O   UNL     1       1.874   2.157  21.473  0.00  0.00    +0.000 OA
ENDROOT
BRANCH   9  16
ATOM     16  C   UNL     1       1.340   9.827  19.763  0.00  0.00    +0.000 A 
ATOM     17  C   UNL     1       1.723  10.494  18.582  0.00  0.00    +0.000 A 
ATOM     18  C   UNL     1       1.557  11.877  18.434  0.00  0.00    +0.000 A 
ATOM     19  C   UNL     1       1.002  12.618  19.475  0.00  0.00    +0.000 A 
ATOM     20  C   UNL     1       0.589  11.989  20.648  0.00  0.00    +0.000 A 
ATOM     21  C   UNL     1       0.744  10.606  20.775  0.00  0.00    +0.000 A 
BRANCH  19  22
ATOM     22  S   UNL     1       0.906  14.388  19.351  0.00  0.00    +0.000 S 
ATOM     23  C   UNL     1       2.364  14.812  18.437  0.00  0.00    +0.000 C 
ATOM     24  O   UNL     1      -0.247  14.708  18.533  0.00  0.00    +0.000 OA
ATOM     25  O   UNL     1       1.043  14.927  20.688  0.00  0.00    +0.000 OA
ENDBRANCH  19  22
ENDBRANCH   9  16
BRANCH   5  26
ATOM     26  C   UNL     1       5.316   5.498  16.455  0.00  0.00    +0.000 A 
ATOM     27  C   UNL     1       5.215   4.745  15.295  0.00  0.00    +0.000 A 
ATOM     28  C   UNL     1       6.497   4.203  15.040  0.00  0.00    +0.000 A 
ATOM     29  C   UNL     1       7.322   4.703  16.018  0.00  0.00    +0.000 A 
ATOM     30  O   UNL     1       6.629   5.523  16.850  0.00  0.00    +0.000 OA
ENDBRANCH   5  26
TORSDOF 3
ENDMDL
MODEL 2
REMARK VINA RESULT:      -8.0      0.839      1.047
REMARK  Name = 
REMARK  5 active torsions:
REMARK  status: ('A' for Active; 'I' for Inactive)
REMARK    1  A    between atoms: C_1  and  C_2
REMARK    2  A    between atoms: C_5  and  C_7
REMARK    3  A    between atoms: C_14  and  C_15
REMARK    4  A    between atoms: C_18  and  S_19
REMARK    5  A    between atoms: S_19  and  C_20
REMARK                            x       y       z     vdW  Elec       q    Type
REMARK                         _______ _______ _______ _____ _____    ______ ____
ROOT
ATOM      1  C   UNL     1       1.952   3.253  18.138  0.00  0.00    +0.000 C 
ATOM      2  C   UNL     1       2.931   3.518  19.289  0.00  0.00    +0.000 C 
ATOM      3  C   UNL     1       4.146   4.302  18.822  0.00  0.00    +0.000 C 
ATOM      4  N   UNL     1       3.794   5.655  18.373  0.00  0.00    +0.000 N 
ATOM      5  C   UNL     1       4.296   6.189  17.156  0.00  0.00    +0.000 C 
ATOM      6  O   UNL     1       3.840   7.209  16.638  0.00  0.00    +0.000 OA
ATOM      7  C   UNL     1       2.828   6.340  19.225  0.00  0.00    +0.000 A 
ATOM      8  C   UNL     1       2.564   7.715  19.084  0.00  0.00    +0.000 A 
ATOM      9  C   UNL     1       1.654   8.427  19.896  0.00  0.00    +0.000 A 
ATOM     10  C   UNL     1       1.005   7.704  20.900  0.00  0.00    +0.000 A 
ATOM     11  C   UNL     1       1.235   6.337  21.072  0.00  0.00    +0.000 A 
ATOM     12  C   UNL     1       2.134   5.636  20.250  0.00  0.00    +0.000 A 
ATOM     13  N   UNL     1       2.292   4.220  20.395  0.00  0.00    +0.000 N 
ATOM     14  C   UNL     1       1.849   3.468  21.469  0.00  0.00    +0.000 C 
ATOM     15  O   UNL     1       1.939   2.249  21.572  0.00  0.00    +0.000 OA
ENDROOT
BRANCH   9  16
ATOM     16  C   UNL     1       1.378   9.868  19.657  0.00  0.00    +0.000 A 
ATOM     17  C   UNL     1       1.812  10.520  18.485  0.00  0.00    +0.000 A 
ATOM     18  C   UNL     1       1.640  11.899  18.306  0.00  0.00    +0.000 A 
ATOM     19  C   UNL     1       1.028  12.650  19.307  0.00  0.00    +0.000 A 
ATOM     20  C   UNL     1       0.564  12.036  20.468  0.00  0.00    +0.000 A 
ATOM     21  C   UNL     1       0.726  10.657  20.626  0.00  0.00    +0.000 A 
BRANCH  19  22
ATOM     22  S   UNL     1       0.921  14.416  19.149  0.00  0.00    +0.000 S 
ATOM     23  C   UNL     1       1.071  14.986  20.820  0.00  0.00    +0.000 C 
ATOM     24  O   UNL     1       2.089  14.863  18.414  0.00  0.00    +0.000 OA
ATOM     25  O   UNL     1      -0.415  14.732  18.686  0.00  0.00    +0.000 OA
ENDBRANCH  19  22
ENDBRANCH   9  16
BRANCH   5  26
ATOM     26  C   UNL     1       5.330   5.454  16.432  0.00  0.00    +0.000 A 
ATOM     27  C   UNL     1       6.706   5.615  16.460  0.00  0.00    +0.000 A 
ATOM     28  C   UNL     1       7.249   4.705  15.522  0.00  0.00    +0.000 A 
ATOM     29  C   UNL     1       6.184   3.997  15.020  0.00  0.00    +0.000 A 
ATOM     30  O   UNL     1       5.025   4.409  15.597  0.00  0.00    +0.000 OA
ENDBRANCH   5  26
TORSDOF 3
ENDMDL
MODEL 3
REMARK VINA RESULT:      -7.7      0.991      1.338
REMARK  Name = 
REMARK  5 active torsions:
REMARK  status: ('A' for Active; 'I' for Inactive)
REMARK    1  A    between atoms: C_1  and  C_2
REMARK    2  A    between atoms: C_5  and  C_7
REMARK    3  A    between atoms: C_14  and  C_15
REMARK    4  A    between atoms: C_18  and  S_19
REMARK    5  A    between atoms: S_19  and  C_20
REMARK                            x       y       z     vdW  Elec       q    Type
REMARK                         _______ _______ _______ _____ _____    ______ ____
ROOT
ATOM      1  C   UNL     1       2.397   2.982  17.920  0.00  0.00    +0.000 C 
ATOM      2  C   UNL     1       3.392   3.259  19.055  0.00  0.00    +0.000 C 
ATOM      3  C   UNL     1       4.503   4.195  18.609  0.00  0.00    +0.000 C 
ATOM      4  N   UNL     1       3.999   5.534  18.281  0.00  0.00    +0.000 N 
ATOM      5  C   UNL     1       4.394   6.208  17.093  0.00  0.00    +0.000 C 
ATOM      6  O   UNL     1       3.818   7.211  16.672  0.00  0.00    +0.000 OA
ATOM      7  C   UNL     1       3.007   6.051  19.217  0.00  0.00    +0.000 A 
ATOM      8  C   UNL     1       2.602   7.399  19.193  0.00  0.00    +0.000 A 
ATOM      9  C   UNL     1       1.660   7.952  20.090  0.00  0.00    +0.000 A 
ATOM     10  C   UNL     1       1.129   7.093  21.055  0.00  0.00    +0.000 A 
ATOM     11  C   UNL     1       1.501   5.747  21.111  0.00  0.00    +0.000 A 
ATOM     12  C   UNL     1       2.429   5.206  20.206  0.00  0.00    +0.000 A 
ATOM     13  N   UNL     1       2.733   3.807  20.233  0.00  0.00    +0.000 N 
ATOM     14  C   UNL     1       2.413   2.935  21.259  0.00  0.00    +0.000 C 
ATOM     15  O   UNL     1       2.628   1.727  21.262  0.00  0.00    +0.000 OA
ENDROOT
BRANCH   9  16
ATOM     16  C   UNL     1       1.234   9.370  19.974  0.00  0.00    +0.000 A 
ATOM     17  C   UNL     1       0.829  10.116  21.099  0.00  0.00    +0.000 A 
ATOM     18  C   UNL     1       0.333  11.420  20.976  0.00  0.00    +0.000 A 
ATOM     19  C   UNL     1       0.231  12.000  19.713  0.00  0.00    +0.000 A 
ATOM     20  C   UNL     1       0.644  11.303  18.581  0.00  0.00    +0.000 A 
ATOM     21  C   UNL     1       1.155  10.009  18.720  0.00  0.00    +0.000 A 
BRANCH  19  22
ATOM     22  S   UNL     1      -0.517  13.601  19.531  0.00  0.00    +0.000 S 
ATOM     23  C   UNL     1       0.443  14.626  20.614  0.00  0.00    +0.000 C 
ATOM     24  O   UNL     1      -0.283  14.042  18.169  0.00  0.00    +0.000 OA
ATOM     25  O   UNL     1      -1.860  13.518  20.066  0.00  0.00    +0.000 OA
ENDBRANCH  19  22
ENDBRANCH   9  16
BRANCH   5  26
ATOM     26  C   UNL     1       5.465   5.639  16.278  0.00  0.00    +0.000 A 
ATOM     27  C   UNL     1       5.384   4.928  15.091  0.00  0.00    +0.000 A 
ATOM     28  C   UNL     1       6.702   4.539  14.751  0.00  0.00    +0.000 A 
ATOM     29  C   UNL     1       7.519   5.084  15.712  0.00  0.00    +0.000 A 
ATOM     30  O   UNL     1       6.787   5.790  16.612  0.00  0.00    +0.000 OA
ENDBRANCH   5  26
TORSDOF 3
ENDMDL
MODEL 4
REMARK VINA RESULT:      -7.6      1.138      1.426
REMARK  Name = 
REMARK  5 active torsions:
REMARK  status: ('A' for Active; 'I' for Inactive)
REMARK    1  A    between atoms: C_1  and  C_2
REMARK    2  A    between atoms: C_5  and  C_7
REMARK    3  A    between atoms: C_14  and  C_15
REMARK    4  A    between atoms: C_18  and  S_19
REMARK    5  A    between atoms: S_19  and  C_20
REMARK                            x       y       z     vdW  Elec       q    Type
REMARK                         _______ _______ _______ _____ _____    ______ ____
ROOT
ATOM      1  C   UNL     1       2.894   2.792  17.810  0.00  0.00    +0.000 C 
ATOM      2  C   UNL     1       3.899   3.188  18.900  0.00  0.00    +0.000 C 
ATOM      3  C   UNL     1       4.898   4.215  18.394  0.00  0.00    +0.000 C 
ATOM      4  N   UNL     1       4.258   5.492  18.059  0.00  0.00    +0.000 N 
ATOM      5  C   UNL     1       4.543   6.172  16.845  0.00  0.00    +0.000 C 
ATOM      6  O   UNL     1       3.858   7.107  16.427  0.00  0.00    +0.000 OA
ATOM      7  C   UNL     1       3.255   5.934  19.023  0.00  0.00    +0.000 A 
ATOM      8  C   UNL     1       2.722   7.237  18.988  0.00  0.00    +0.000 A 
ATOM      9  C   UNL     1       1.765   7.718  19.909  0.00  0.00    +0.000 A 
ATOM     10  C   UNL     1       1.354   6.836  20.911  0.00  0.00    +0.000 A 
ATOM     11  C   UNL     1       1.854   5.532  20.979  0.00  0.00    +0.000 A 
ATOM     12  C   UNL     1       2.797   5.061  20.050  0.00  0.00    +0.000 A 
ATOM     13  N   UNL     1       3.234   3.698  20.092  0.00  0.00    +0.000 N 
ATOM     14  C   UNL     1       3.036   2.823  21.147  0.00  0.00    +0.000 C 
ATOM     15  O   UNL     1       3.365   1.641  21.165  0.00  0.00    +0.000 OA
ENDROOT
BRANCH   9  16
ATOM     16  C   UNL     1       1.201   9.087  19.783  0.00  0.00    +0.000 A 
ATOM     17  C   UNL     1       1.476   9.901  18.666  0.00  0.00    +0.000 A 
ATOM     18  C   UNL     1       1.026  11.226  18.595  0.00  0.00    +0.000 A 
ATOM     19  C   UNL     1       0.289  11.759  19.651  0.00  0.00    +0.000 A 
ATOM     20  C   UNL     1      -0.023  10.977  20.759  0.00  0.00    +0.000 A 
ATOM     21  C   UNL     1       0.416   9.651  20.810  0.00  0.00    +0.000 A 
BRANCH  19  22
ATOM     22  S   UNL     1      -0.175  13.474  19.630  0.00  0.00    +0.000 S 
ATOM     23  C   UNL     1      -1.790  13.468  20.361  0.00  0.00    +0.000 C 
ATOM     24  O   UNL     1       0.721  14.182  20.524  0.00  0.00    +0.000 OA
ATOM     25  O   UNL     1      -0.311  13.871  18.244  0.00  0.00    +0.000 OA
ENDBRANCH  19  22
ENDBRANCH   9  16
BRANCH   5  26
ATOM     26  C   UNL     1       5.633   5.689  16.001  0.00  0.00    +0.000 A 
ATOM     27  C   UNL     1       5.582   4.885  14.873  0.00  0.00    +0.000 A 
ATOM     28  C   UNL     1       6.919   4.648  14.473  0.00  0.00    +0.000 A 
ATOM     29  C   UNL     1       7.707   5.368  15.337  0.00  0.00    +0.000 A 
ATOM     30  O   UNL     1       6.939   6.038  16.235  0.00  0.00    +0.000 OA
ENDBRANCH   5  26
TORSDOF 3
ENDMDL
MODEL 5
REMARK VINA RESULT:      -7.4      1.014      1.054
REMARK  Name = 
REMARK  5 active torsions:
REMARK  status: ('A' for Active; 'I' for Inactive)
REMARK    1  A    between atoms: C_1  and  C_2
REMARK    2  A    between atoms: C_5  and  C_7
REMARK    3  A    between atoms: C_14  and  C_15
REMARK    4  A    between atoms: C_18  and  S_19
REMARK    5  A    between atoms: S_19  and  C_20
REMARK                            x       y       z     vdW  Elec       q    Type
REMARK                         _______ _______ _______ _____ _____    ______ ____
ROOT
ATOM      1  C   UNL     1       2.149   3.601  18.320  0.00  0.00    +0.000 C 
ATOM      2  C   UNL     1       3.108   3.980  19.456  0.00  0.00    +0.000 C 
ATOM      3  C   UNL     1       4.211   4.906  18.972  0.00  0.00    +0.000 C 
ATOM      4  N   UNL     1       3.690   6.207  18.535  0.00  0.00    +0.000 N 
ATOM      5  C   UNL     1       4.104   6.801  17.312  0.00  0.00    +0.000 C 
ATOM      6  O   UNL     1       3.519   7.759  16.805  0.00  0.00    +0.000 OA
ATOM      7  C   UNL     1       2.663   6.768  19.405  0.00  0.00    +0.000 A 
ATOM      8  C   UNL     1       2.232   8.102  19.273  0.00  0.00    +0.000 A 
ATOM      9  C   UNL     1       1.255   8.697  20.103  0.00  0.00    +0.000 A 
ATOM     10  C   UNL     1       0.716   7.898  21.114  0.00  0.00    +0.000 A 
ATOM     11  C   UNL     1       1.113   6.568  21.277  0.00  0.00    +0.000 A 
ATOM     12  C   UNL     1       2.075   5.984  20.438  0.00  0.00    +0.000 A 
ATOM     13  N   UNL     1       2.407   4.597  20.574  0.00  0.00    +0.000 N 
ATOM     14  C   UNL     1       2.076   3.795  21.653  0.00  0.00    +0.000 C 
ATOM     15  O   UNL     1       2.315   2.595  21.749  0.00  0.00    +0.000 OA
ENDROOT
BRANCH   9  16
ATOM     16  C   UNL     1       0.804  10.094  19.874  0.00  0.00    +0.000 A 
ATOM     17  C   UNL     1       1.672  11.078  19.361  0.00  0.00    +0.000 A 
ATOM     18  C   UNL     1       1.275  12.416  19.239  0.00  0.00    +0.000 A 
ATOM     19  C   UNL     1      -0.008  12.790  19.636  0.00  0.00    +0.000 A 
ATOM     20  C   UNL     1      -0.902  11.841  20.125  0.00  0.00    +0.000 A 
ATOM     21  C   UNL     1      -0.499  10.507  20.223  0.00  0.00    +0.000 A 
BRANCH  19  22
ATOM     22  S   UNL     1      -0.478  14.503  19.609  0.00  0.00    +0.000 S 
ATOM     23  C   UNL     1       0.752  15.281  20.621  0.00  0.00    +0.000 C 
ATOM     24  O   UNL     1      -0.312  14.983  18.250  0.00  0.00    +0.000 OA
ATOM     25  O   UNL     1      -1.753  14.616  20.288  0.00  0.00    +0.000 OA
ENDBRANCH  19  22
ENDBRANCH   9  16
BRANCH   5  26
ATOM     26  C   UNL     1       5.207   6.199  16.568  0.00  0.00    +0.000 A 
ATOM     27  C   UNL     1       5.179   5.466  15.392  0.00  0.00    +0.000 A 
ATOM     28  C   UNL     1       6.506   5.048  15.132  0.00  0.00    +0.000 A 
ATOM     29  C   UNL     1       7.279   5.599  16.126  0.00  0.00    +0.000 A 
ATOM     30  O   UNL     1       6.511   6.335  16.972  0.00  0.00    +0.000 OA
ENDBRANCH   5  26
TORSDOF 3
ENDMDL
MODEL 6
REMARK VINA RESULT:      -7.1      7.496     11.288
REMARK  Name = 
REMARK  5 active torsions:
REMARK  status: ('A' for Active; 'I' for Inactive)
REMARK    1  A    between atoms: C_1  and  C_2
REMARK    2  A    between atoms: C_5  and  C_7
REMARK    3  A    between atoms: C_14  and  C_15
REMARK    4  A    between atoms: C_18  and  S_19
REMARK    5  A    between atoms: S_19  and  C_20
REMARK                            x       y       z     vdW  Elec       q    Type
REMARK                         _______ _______ _______ _____ _____    ______ ____
ROOT
ATOM      1  C   UNL     1       8.800  15.559  20.262  0.00  0.00    +0.000 C 
ATOM      2  C   UNL     1      10.185  14.964  20.548  0.00  0.00    +0.000 C 
ATOM      3  C   UNL     1      10.166  14.064  21.773  0.00  0.00    +0.000 C 
ATOM      4  N   UNL     1       9.333  12.872  21.570  0.00  0.00    +0.000 N 
ATOM      5  C   UNL     1       8.394  12.445  22.548  0.00  0.00    +0.000 C 
ATOM      6  O   UNL     1       7.524  11.606  22.315  0.00  0.00    +0.000 OA
ATOM      7  C   UNL     1       9.490  12.242  20.264  0.00  0.00    +0.000 A 
ATOM      8  C   UNL     1       8.958  10.968  19.990  0.00  0.00    +0.000 A 
ATOM      9  C   UNL     1       9.099  10.308  18.749  0.00  0.00    +0.000 A 
ATOM     10  C   UNL     1       9.827  10.974  17.760  0.00  0.00    +0.000 A 
ATOM     11  C   UNL     1      10.368  12.242  17.988  0.00  0.00    +0.000 A 
ATOM     12  C   UNL     1      10.210  12.893  19.223  0.00  0.00    +0.000 A 
ATOM     13  N   UNL     1      10.705  14.225  19.405  0.00  0.00    +0.000 N 
ATOM     14  C   UNL     1      11.594  14.874  18.565  0.00  0.00    +0.000 C 
ATOM     15  O   UNL     1      11.979  16.032  18.692  0.00  0.00    +0.000 OA
ENDROOT
BRANCH   9  16
ATOM     16  C   UNL     1       8.465   8.986  18.507  0.00  0.00    +0.000 A 
ATOM     17  C   UNL     1       8.771   7.861  19.299  0.00  0.00    +0.000 A 
ATOM     18  C   UNL     1       8.248   6.595  19.008  0.00  0.00    +0.000 A 
ATOM     19  C   UNL     1       7.406   6.435  17.909  0.00  0.00    +0.000 A 
ATOM     20  C   UNL     1       7.062   7.528  17.118  0.00  0.00    +0.000 A 
ATOM     21  C   UNL     1       7.575   8.789  17.431  0.00  0.00    +0.000 A 
BRANCH  19  22
ATOM     22  S   UNL     1       6.842   4.813  17.454  0.00  0.00    +0.000 S 
ATOM     23  C   UNL     1       5.498   5.143  16.347  0.00  0.00    +0.000 C 
ATOM     24  O   UNL     1       7.903   4.176  16.698  0.00  0.00    +0.000 OA
ATOM     25  O   UNL     1       6.300   4.190  18.644  0.00  0.00    +0.000 OA
ENDBRANCH  19  22
ENDBRANCH   9  16
BRANCH   5  26
ATOM     26  C   UNL     1       8.390  13.093  23.857  0.00  0.00    +0.000 A 
ATOM     27  C   UNL     1       8.709  12.568  25.099  0.00  0.00    +0.000 A 
ATOM     28  C   UNL     1       8.472  13.586  26.053  0.00  0.00    +0.000 A 
ATOM     29  C   UNL     1       8.083  14.692  25.338  0.00  0.00    +0.000 A 
ATOM     30  O   UNL     1       8.076  14.420  24.007  0.00  0.00    +0.000 OA
ENDBRANCH   5  26
TORSDOF 3
ENDMDL
MODEL 7
REMARK VINA RESULT:      -7.0      4.169      9.739
REMARK  Name = 
REMARK  5 active torsions:
REMARK  status: ('A' for Active; 'I' for Inactive)
REMARK    1  A    between atoms: C_1  and  C_2
REMARK    2  A    between atoms: C_5  and  C_7
REMARK    3  A    between atoms: C_14  and  C_15
REMARK    4  A    between atoms: C_18  and  S_19
REMARK    5  A    between atoms: S_19  and  C_20
REMARK                            x       y       z     vdW  Elec       q    Type
REMARK                         _______ _______ _______ _____ _____    ______ ____
ROOT
ATOM      1  C   UNL     1      -0.089  15.620  23.453  0.00  0.00    +0.000 C 
ATOM      2  C   UNL     1      -1.442  15.279  22.816  0.00  0.00    +0.000 C 
ATOM      3  C   UNL     1      -1.395  15.400  21.302  0.00  0.00    +0.000 C 
ATOM      4  N   UNL     1      -0.490  14.415  20.696  0.00  0.00    +0.000 N 
ATOM      5  C   UNL     1       0.453  14.785  19.699  0.00  0.00    +0.000 C 
ATOM      6  O   UNL     1       1.375  14.049  19.348  0.00  0.00    +0.000 OA
ATOM      7  C   UNL     1      -0.584  13.077  21.270  0.00  0.00    +0.000 A 
ATOM      8  C   UNL     1       0.026  11.967  20.657  0.00  0.00    +0.000 A 
ATOM      9  C   UNL     1      -0.052  10.650  21.162  0.00  0.00    +0.000 A 
ATOM     10  C   UNL     1      -0.798  10.465  22.329  0.00  0.00    +0.000 A 
ATOM     11  C   UNL     1      -1.416  11.541  22.972  0.00  0.00    +0.000 A 
ATOM     12  C   UNL     1      -1.321  12.848  22.466  0.00  0.00    +0.000 A 
ATOM     13  N   UNL     1      -1.896  13.945  23.186  0.00  0.00    +0.000 N 
ATOM     14  C   UNL     1      -2.804  13.835  24.226  0.00  0.00    +0.000 C 
ATOM     15  O   UNL     1      -3.259  14.771  24.877  0.00  0.00    +0.000 OA
ENDROOT
BRANCH   9  16
ATOM     16  C   UNL     1       0.663   9.530  20.497  0.00  0.00    +0.000 A 
ATOM     17  C   UNL     1       0.918   8.314  21.162  0.00  0.00    +0.000 A 
ATOM     18  C   UNL     1       1.679   7.298  20.569  0.00  0.00    +0.000 A 
ATOM     19  C   UNL     1       2.201   7.488  19.291  0.00  0.00    +0.000 A 
ATOM     20  C   UNL     1       1.950   8.667  18.593  0.00  0.00    +0.000 A 
ATOM     21  C   UNL     1       1.174   9.665  19.189  0.00  0.00    +0.000 A 
BRANCH  19  22
ATOM     22  S   UNL     1       3.274   6.263  18.582  0.00  0.00    +0.000 S 
ATOM     23  C   UNL     1       2.147   5.049  17.951  0.00  0.00    +0.000 C 
ATOM     24  O   UNL     1       3.954   6.874  17.457  0.00  0.00    +0.000 OA
ATOM     25  O   UNL     1       4.022   5.659  19.666  0.00  0.00    +0.000 OA
ENDBRANCH  19  22
ENDBRANCH   9  16
BRANCH   5  26
ATOM     26  C   UNL     1       0.393  16.130  19.131  0.00  0.00    +0.000 A 
ATOM     27  C   UNL     1      -0.403  16.618  18.107  0.00  0.00    +0.000 A 
ATOM     28  C   UNL     1      -0.022  17.963  17.891  0.00  0.00    +0.000 A 
ATOM     29  C   UNL     1       0.939  18.241  18.832  0.00  0.00    +0.000 A 
ATOM     30  O   UNL     1       1.163  17.156  19.617  0.00  0.00    +0.000 OA
ENDBRANCH   5  26
TORSDOF 3
ENDMDL
MODEL 8
REMARK VINA RESULT:      -7.0      4.217      8.830
REMARK  Name = 
REMARK  5 active torsions:
REMARK  status: ('A' for Active; 'I' for Inactive)
REMARK    1  A    between atoms: C_1  and  C_2
REMARK    2  A    between atoms: C_5  and  C_7
REMARK    3  A    between atoms: C_14  and  C_15
REMARK    4  A    between atoms: C_18  and  S_19
REMARK    5  A    between atoms: S_19  and  C_20
REMARK                            x       y       z     vdW  Elec       q    Type
REMARK                         _______ _______ _______ _____ _____    ______ ____
ROOT
ATOM      1  C   UNL     1      -0.414  13.329  19.371  0.00  0.00    +0.000 C 
ATOM      2  C   UNL     1      -1.398  12.617  20.307  0.00  0.00    +0.000 C 
ATOM      3  C   UNL     1      -2.238  11.592  19.563  0.00  0.00    +0.000 C 
ATOM      4  N   UNL     1      -1.426  10.486  19.039  0.00  0.00    +0.000 N 
ATOM      5  C   UNL     1      -1.577  10.019  17.706  0.00  0.00    +0.000 C 
ATOM      6  O   UNL     1      -0.763   9.269  17.166  0.00  0.00    +0.000 OA
ATOM      7  C   UNL     1      -0.411   9.993  19.964  0.00  0.00    +0.000 A 
ATOM      8  C   UNL     1       0.286   8.794  19.724  0.00  0.00    +0.000 A 
ATOM      9  C   UNL     1       1.262   8.265  20.597  0.00  0.00    +0.000 A 
ATOM     10  C   UNL     1       1.519   8.986  21.766  0.00  0.00    +0.000 A 
ATOM     11  C   UNL     1       0.853  10.183  22.041  0.00  0.00    +0.000 A 
ATOM     12  C   UNL     1      -0.107  10.705  21.159  0.00  0.00    +0.000 A 
ATOM     13  N   UNL     1      -0.717  11.974  21.423  0.00  0.00    +0.000 N 
ATOM     14  C   UNL     1      -0.673  12.650  22.630  0.00  0.00    +0.000 C 
ATOM     15  O   UNL     1      -1.152  13.760  22.845  0.00  0.00    +0.000 OA
ENDROOT
BRANCH   9  16
ATOM     16  C   UNL     1       2.002   7.023  20.256  0.00  0.00    +0.000 A 
ATOM     17  C   UNL     1       2.957   6.989  19.220  0.00  0.00    +0.000 A 
ATOM     18  C   UNL     1       3.580   5.796  18.834  0.00  0.00    +0.000 A 
ATOM     19  C   UNL     1       3.252   4.608  19.485  0.00  0.00    +0.000 A 
ATOM     20  C   UNL     1       2.331   4.606  20.529  0.00  0.00    +0.000 A 
ATOM     21  C   UNL     1       1.730   5.807  20.917  0.00  0.00    +0.000 A 
BRANCH  19  22
ATOM     22  S   UNL     1       3.937   3.070  18.919  0.00  0.00    +0.000 S 
ATOM     23  C   UNL     1       2.539   1.980  18.905  0.00  0.00    +0.000 C 
ATOM     24  O   UNL     1       4.372   3.261  17.549  0.00  0.00    +0.000 OA
ATOM     25  O   UNL     1       4.859   2.604  19.935  0.00  0.00    +0.000 OA
ENDBRANCH  19  22
ENDBRANCH   9  16
BRANCH   5  26
ATOM     26  C   UNL     1      -2.688  10.520  16.900  0.00  0.00    +0.000 A 
ATOM     27  C   UNL     1      -2.787  10.656  15.524  0.00  0.00    +0.000 A 
ATOM     28  C   UNL     1      -4.039  11.257  15.256  0.00  0.00    +0.000 A 
ATOM     29  C   UNL     1      -4.661  11.397  16.473  0.00  0.00    +0.000 A 
ATOM     30  O   UNL     1      -3.874  10.912  17.468  0.00  0.00    +0.000 OA
ENDBRANCH   5  26
TORSDOF 3
ENDMDL
MODEL 9
REMARK VINA RESULT:      -7.0      4.192      9.701
REMARK  Name = 
REMARK  5 active torsions:
REMARK  status: ('A' for Active; 'I' for Inactive)
REMARK    1  A    between atoms: C_1  and  C_2
REMARK    2  A    between atoms: C_5  and  C_7
REMARK    3  A    between atoms: C_14  and  C_15
REMARK    4  A    between atoms: C_18  and  S_19
REMARK    5  A    between atoms: S_19  and  C_20
REMARK                            x       y       z     vdW  Elec       q    Type
REMARK                         _______ _______ _______ _____ _____    ______ ____
ROOT
ATOM      1  C   UNL     1      -0.322  15.594  23.434  0.00  0.00    +0.000 C 
ATOM      2  C   UNL     1      -1.620  15.187  22.723  0.00  0.00    +0.000 C 
ATOM      3  C   UNL     1      -1.490  15.298  21.213  0.00  0.00    +0.000 C 
ATOM      4  N   UNL     1      -0.508  14.352  20.670  0.00  0.00    +0.000 N 
ATOM      5  C   UNL     1       0.473  14.758  19.726  0.00  0.00    +0.000 C 
ATOM      6  O   UNL     1       1.447  14.063  19.435  0.00  0.00    +0.000 OA
ATOM      7  C   UNL     1      -0.573  13.016  21.251  0.00  0.00    +0.000 A 
ATOM      8  C   UNL     1       0.122  11.930  20.686  0.00  0.00    +0.000 A 
ATOM      9  C   UNL     1       0.075  10.615  21.199  0.00  0.00    +0.000 A 
ATOM     10  C   UNL     1      -0.727  10.404  22.322  0.00  0.00    +0.000 A 
ATOM     11  C   UNL     1      -1.431  11.455  22.918  0.00  0.00    +0.000 A 
ATOM     12  C   UNL     1      -1.367  12.761  22.406  0.00  0.00    +0.000 A 
ATOM     13  N   UNL     1      -2.032  13.835  23.080  0.00  0.00    +0.000 N 
ATOM     14  C   UNL     1      -2.993  13.692  24.067  0.00  0.00    +0.000 C 
ATOM     15  O   UNL     1      -3.527  14.610  24.681  0.00  0.00    +0.000 OA
ENDROOT
BRANCH   9  16
ATOM     16  C   UNL     1       0.878   9.525  20.587  0.00  0.00    +0.000 A 
ATOM     17  C   UNL     1       1.320   9.591  19.250  0.00  0.00    +0.000 A 
ATOM     18  C   UNL     1       1.990   8.520  18.645  0.00  0.00    +0.000 A 
ATOM     19  C   UNL     1       2.228   7.358  19.375  0.00  0.00    +0.000 A 
ATOM     20  C   UNL     1       1.829   7.265  20.706  0.00  0.00    +0.000 A 
ATOM     21  C   UNL     1       1.177   8.347  21.303  0.00  0.00    +0.000 A 
BRANCH  19  22
ATOM     22  S   UNL     1       2.961   5.947  18.581  0.00  0.00    +0.000 S 
ATOM     23  C   UNL     1       4.078   6.672  17.411  0.00  0.00    +0.000 C 
ATOM     24  O   UNL     1       3.745   5.242  19.576  0.00  0.00    +0.000 OA
ATOM     25  O   UNL     1       1.914   5.271  17.842  0.00  0.00    +0.000 OA
ENDBRANCH  19  22
ENDBRANCH   9  16
BRANCH   5  26
ATOM     26  C   UNL     1       0.385  16.095  19.142  0.00  0.00    +0.000 A 
ATOM     27  C   UNL     1      -0.494  16.581  18.186  0.00  0.00    +0.000 A 
ATOM     28  C   UNL     1      -0.110  17.915  17.912  0.00  0.00    +0.000 A 
ATOM     29  C   UNL     1       0.937  18.190  18.757  0.00  0.00    +0.000 A 
ATOM     30  O   UNL     1       1.213  17.113  19.537  0.00  0.00    +0.000 OA
ENDBRANCH   5  26
TORSDOF 3
ENDMDL
