MODEL 1
REMARK VINA RESULT:      -9.7      0.000      0.000
REMARK  Name = 
REMARK  8 active torsions:
REMARK  status: ('A' for Active; 'I' for Inactive)
REMARK    1  A    between atoms: C_1  and  O_2
REMARK    2  A    between atoms: O_2  and  C_3
REMARK    3  A    between atoms: C_6  and  C_7
REMARK    4  A    between atoms: C_13  and  S_14
REMARK    5  A    between atoms: S_14  and  C_15
REMARK    6  A    between atoms: C_15  and  C_16
REMARK    7  A    between atoms: C_22  and  C_23
REMARK    8  A    between atoms: C_25  and  C_26
REMARK                            x       y       z     vdW  Elec       q    Type
REMARK                         _______ _______ _______ _____ _____    ______ ____
ROOT
ATOM      1  C   UNL     1       8.313   9.064  18.271  0.00  0.00    +0.000 C 
ATOM      2  O   UNL     1       7.459   9.314  17.420  0.00  0.00    +0.000 OA
ATOM      3  N   UNL     1       8.511   7.807  18.806  0.00  0.00    +0.000 N 
ATOM      4  C   UNL     1       7.804   6.654  18.433  0.00  0.00    +0.000 A 
ATOM      5  N   UNL     1       7.836   5.534  19.119  0.00  0.00    +0.000 NA
ATOM      6  N   UNL     1       7.024   4.537  18.561  0.00  0.00    +0.000 NA
ATOM      7  C   UNL     1       6.442   4.930  17.448  0.00  0.00    +0.000 A 
ATOM      8  S   UNL     1       6.864   6.539  16.998  0.00  0.00    +0.000 S 
ATOM      9  H   UNL     1       9.094   7.688  19.618  0.00  0.00    +0.000 HD
ENDROOT
BRANCH   1  13
ATOM     10  C   UNL     1      10.526  12.465  19.869  0.00  0.00    +0.000 A 
ATOM     11  C   UNL     1       9.933  11.516  20.689  0.00  0.00    +0.000 A 
ATOM     12  C   UNL     1       9.262  10.422  20.129  0.00  0.00    +0.000 A 
ATOM     13  C   UNL     1       9.137  10.248  18.734  0.00  0.00    +0.000 A 
ATOM     14  C   UNL     1       9.741  11.212  17.915  0.00  0.00    +0.000 A 
ATOM     15  C   UNL     1      10.436  12.310  18.484  0.00  0.00    +0.000 A 
BRANCH  10  17
ATOM     16  C   UNL     1      11.920  14.390  19.764  0.00  0.00    +0.000 C 
ATOM     17  O   UNL     1      11.100  13.517  20.529  0.00  0.00    +0.000 OA
ENDBRANCH  10  17
ENDBRANCH   1  13
BRANCH   7  18
ATOM     18  S   UNL     1       5.386   3.903  16.457  0.00  0.00    +0.000 S 
BRANCH  18  19
ATOM     19  C   UNL     1       4.421   2.976  17.695  0.00  0.00    +0.000 C 
BRANCH  19  20
ATOM     20  C   UNL     1       3.531   3.880  18.570  0.00  0.00    +0.000 A 
ATOM     21  C   UNL     1       3.307   3.516  19.846  0.00  0.00    +0.000 A 
ATOM     22  C   UNL     1       2.367   4.299  20.674  0.00  0.00    +0.000 A 
ATOM     23  O   UNL     1       1.896   3.819  21.698  0.00  0.00    +0.000 OA
ATOM     24  C   UNL     1       2.059   5.672  20.240  0.00  0.00    +0.000 A 
ATOM     25  C   UNL     1       1.414   6.545  21.130  0.00  0.00    +0.000 A 
ATOM     26  C   UNL     1       1.285   7.896  20.814  0.00  0.00    +0.000 A 
ATOM     27  C   UNL     1       0.678   8.860  21.792  0.00  0.00    +0.000 C 
ATOM     28  C   UNL     1       1.830   8.349  19.605  0.00  0.00    +0.000 A 
ATOM     29  C   UNL     1       2.448   7.464  18.687  0.00  0.00    +0.000 A 
ATOM     30  C   UNL     1       3.125   8.059  17.483  0.00  0.00    +0.000 C 
ATOM     31  C   UNL     1       2.519   6.085  18.980  0.00  0.00    +0.000 A 
ATOM     32  N   UNL     1       3.107   5.131  18.094  0.00  0.00    +0.000 N 
ATOM     33  H   UNL     1       2.616   5.082  17.199  0.00  0.00    +0.000 HD
ENDBRANCH  19  20
ENDBRANCH  18  19
ENDBRANCH   7  18
TORSDOF 5
ENDMDL
MODEL 2
REMARK VINA RESULT:      -8.7      1.357      2.272
REMARK  Name = 
REMARK  8 active torsions:
REMARK  status: ('A' for Active; 'I' for Inactive)
REMARK    1  A    between atoms: C_1  and  O_2
REMARK    2  A    between atoms: O_2  and  C_3
REMARK    3  A    between atoms: C_6  and  C_7
REMARK    4  A    between atoms: C_13  and  S_14
REMARK    5  A    between atoms: S_14  and  C_15
REMARK    6  A    between atoms: C_15  and  C_16
REMARK    7  A    between atoms: C_22  and  C_23
REMARK    8  A    between atoms: C_25  and  C_26
REMARK                            x       y       z     vdW  Elec       q    Type
REMARK                         _______ _______ _______ _____ _____    ______ ____
ROOT
ATOM      1  C   UNL     1       8.457   9.008  18.368  0.00  0.00    +0.000 C 
ATOM      2  O   UNL     1       7.777   9.250  17.369  0.00  0.00    +0.000 OA
ATOM      3  N   UNL     1       8.568   7.752  18.928  0.00  0.00    +0.000 N 
ATOM      4  C   UNL     1       7.962   6.590  18.425  0.00  0.00    +0.000 A 
ATOM      5  N   UNL     1       7.879   5.468  19.101  0.00  0.00    +0.000 NA
ATOM      6  N   UNL     1       7.203   4.462  18.397  0.00  0.00    +0.000 NA
ATOM      7  C   UNL     1       6.839   4.852  17.193  0.00  0.00    +0.000 A 
ATOM      8  S   UNL     1       7.315   6.469  16.836  0.00  0.00    +0.000 S 
ATOM      9  H   UNL     1       8.986   7.637  19.836  0.00  0.00    +0.000 HD
ENDROOT
BRANCH   1  13
ATOM     10  C   UNL     1      10.670  12.445  19.886  0.00  0.00    +0.000 A 
ATOM     11  C   UNL     1      10.603  12.146  18.533  0.00  0.00    +0.000 A 
ATOM     12  C   UNL     1       9.850  11.052  18.090  0.00  0.00    +0.000 A 
ATOM     13  C   UNL     1       9.160  10.202  18.981  0.00  0.00    +0.000 A 
ATOM     14  C   UNL     1       9.232  10.514  20.345  0.00  0.00    +0.000 A 
ATOM     15  C   UNL     1       9.979  11.634  20.791  0.00  0.00    +0.000 A 
BRANCH  10  17
ATOM     16  C   UNL     1      11.075  14.785  19.753  0.00  0.00    +0.000 C 
ATOM     17  O   UNL     1      11.481  13.501  20.204  0.00  0.00    +0.000 OA
ENDBRANCH  10  17
ENDBRANCH   1  13
BRANCH   7  18
ATOM     18  S   UNL     1       6.006   3.816  16.017  0.00  0.00    +0.000 S 
BRANCH  18  19
ATOM     19  C   UNL     1       4.392   3.502  16.803  0.00  0.00    +0.000 C 
BRANCH  19  20
ATOM     20  C   UNL     1       3.859   4.712  17.595  0.00  0.00    +0.000 A 
ATOM     21  C   UNL     1       3.700   5.881  16.948  0.00  0.00    +0.000 A 
ATOM     22  C   UNL     1       3.301   7.086  17.705  0.00  0.00    +0.000 A 
ATOM     23  O   UNL     1       3.467   8.201  17.227  0.00  0.00    +0.000 OA
ATOM     24  C   UNL     1       2.670   6.885  19.020  0.00  0.00    +0.000 A 
ATOM     25  C   UNL     1       2.019   7.963  19.641  0.00  0.00    +0.000 A 
ATOM     26  C   UNL     1       1.254   7.752  20.787  0.00  0.00    +0.000 A 
ATOM     27  C   UNL     1       0.480   8.875  21.412  0.00  0.00    +0.000 C 
ATOM     28  C   UNL     1       1.145   6.444  21.280  0.00  0.00    +0.000 A 
ATOM     29  C   UNL     1       1.833   5.360  20.679  0.00  0.00    +0.000 A 
ATOM     30  C   UNL     1       1.547   3.975  21.191  0.00  0.00    +0.000 C 
ATOM     31  C   UNL     1       2.659   5.589  19.556  0.00  0.00    +0.000 A 
ATOM     32  N   UNL     1       3.397   4.550  18.911  0.00  0.00    +0.000 N 
ATOM     33  H   UNL     1       4.085   4.122  19.535  0.00  0.00    +0.000 HD
ENDBRANCH  19  20
ENDBRANCH  18  19
ENDBRANCH   7  18
TORSDOF 5
ENDMDL
MODEL 3
REMARK VINA RESULT:      -8.7      3.263      7.576
REMARK  Name = 
REMARK  8 active torsions:
REMARK  status: ('A' for Active; 'I' for Inactive)
REMARK    1  A    between atoms: C_1  and  O_2
REMARK    2  A    between atoms: O_2  and  C_3
REMARK    3  A    between atoms: C_6  and  C_7
REMARK    4  A    between atoms: C_13  and  S_14
REMARK    5  A    between atoms: S_14  and  C_15
REMARK    6  A    between atoms: C_15  and  C_16
REMARK    7  A    between atoms: C_22  and  C_23
REMARK    8  A    between atoms: C_25  and  C_26
REMARK                            x       y       z     vdW  Elec       q    Type
REMARK                         _______ _______ _______ _____ _____    ______ ____
ROOT
ATOM      1  C   UNL     1       1.581   7.643  20.475  0.00  0.00    +0.000 C 
ATOM      2  O   UNL     1       2.400   7.756  19.562  0.00  0.00    +0.000 OA
ATOM      3  N   UNL     1       1.261   6.439  21.068  0.00  0.00    +0.000 N 
ATOM      4  C   UNL     1       1.843   5.203  20.744  0.00  0.00    +0.000 A 
ATOM      5  N   UNL     1       1.357   4.050  21.140  0.00  0.00    +0.000 NA
ATOM      6  N   UNL     1       2.096   2.959  20.663  0.00  0.00    +0.000 NA
ATOM      7  C   UNL     1       3.142   3.335  19.956  0.00  0.00    +0.000 A 
ATOM      8  S   UNL     1       3.301   5.047  19.846  0.00  0.00    +0.000 S 
ATOM      9  H   UNL     1       0.467   6.370  21.682  0.00  0.00    +0.000 HD
ENDROOT
BRANCH   1  13
ATOM     10  C   UNL     1      -0.501  11.183  21.942  0.00  0.00    +0.000 A 
ATOM     11  C   UNL     1      -0.185  10.114  22.768  0.00  0.00    +0.000 A 
ATOM     12  C   UNL     1       0.516   9.014  22.259  0.00  0.00    +0.000 A 
ATOM     13  C   UNL     1       0.903   8.929  20.904  0.00  0.00    +0.000 A 
ATOM     14  C   UNL     1       0.580  10.014  20.079  0.00  0.00    +0.000 A 
ATOM     15  C   UNL     1      -0.114  11.136  20.600  0.00  0.00    +0.000 A 
BRANCH  10  17
ATOM     16  C   UNL     1      -2.368  11.769  23.294  0.00  0.00    +0.000 C 
ATOM     17  O   UNL     1      -1.237  12.172  22.536  0.00  0.00    +0.000 OA
ENDBRANCH  10  17
ENDBRANCH   1  13
BRANCH   7  18
ATOM     18  S   UNL     1       4.319   2.214  19.243  0.00  0.00    +0.000 S 
BRANCH  18  19
ATOM     19  C   UNL     1       4.385   2.731  17.496  0.00  0.00    +0.000 C 
BRANCH  19  20
ATOM     20  C   UNL     1       5.167   4.041  17.282  0.00  0.00    +0.000 A 
ATOM     21  C   UNL     1       4.620   4.994  16.505  0.00  0.00    +0.000 A 
ATOM     22  C   UNL     1       5.394   6.212  16.188  0.00  0.00    +0.000 A 
ATOM     23  O   UNL     1       5.073   6.922  15.243  0.00  0.00    +0.000 OA
ATOM     24  C   UNL     1       6.526   6.547  17.068  0.00  0.00    +0.000 A 
ATOM     25  C   UNL     1       7.104   7.823  16.988  0.00  0.00    +0.000 A 
ATOM     26  C   UNL     1       8.042   8.227  17.936  0.00  0.00    +0.000 A 
ATOM     27  C   UNL     1       8.603   9.619  17.919  0.00  0.00    +0.000 C 
ATOM     28  C   UNL     1       8.371   7.334  18.966  0.00  0.00    +0.000 A 
ATOM     29  C   UNL     1       7.819   6.030  19.027  0.00  0.00    +0.000 A 
ATOM     30  C   UNL     1       8.122   5.194  20.240  0.00  0.00    +0.000 C 
ATOM     31  C   UNL     1       6.918   5.601  18.029  0.00  0.00    +0.000 A 
ATOM     32  N   UNL     1       6.338   4.296  18.014  0.00  0.00    +0.000 N 
ATOM     33  H   UNL     1       7.044   3.562  17.922  0.00  0.00    +0.000 HD
ENDBRANCH  19  20
ENDBRANCH  18  19
ENDBRANCH   7  18
TORSDOF 5
ENDMDL
MODEL 4
REMARK VINA RESULT:      -8.2      1.399      1.640
REMARK  Name = 
REMARK  8 active torsions:
REMARK  status: ('A' for Active; 'I' for Inactive)
REMARK    1  A    between atoms: C_1  and  O_2
REMARK    2  A    between atoms: O_2  and  C_3
REMARK    3  A    between atoms: C_6  and  C_7
REMARK    4  A    between atoms: C_13  and  S_14
REMARK    5  A    between atoms: S_14  and  C_15
REMARK    6  A    between atoms: C_15  and  C_16
REMARK    7  A    between atoms: C_22  and  C_23
REMARK    8  A    between atoms: C_25  and  C_26
REMARK                            x       y       z     vdW  Elec       q    Type
REMARK                         _______ _______ _______ _____ _____    ______ ____
ROOT
ATOM      1  C   UNL     1       8.128   8.525  18.207  0.00  0.00    +0.000 C 
ATOM      2  O   UNL     1       8.626   7.595  18.842  0.00  0.00    +0.000 OA
ATOM      3  N   UNL     1       7.110   8.363  17.289  0.00  0.00    +0.000 N 
ATOM      4  C   UNL     1       6.489   7.142  16.985  0.00  0.00    +0.000 A 
ATOM      5  N   UNL     1       5.704   6.970  15.946  0.00  0.00    +0.000 NA
ATOM      6  N   UNL     1       5.229   5.656  15.840  0.00  0.00    +0.000 NA
ATOM      7  C   UNL     1       5.640   4.894  16.832  0.00  0.00    +0.000 A 
ATOM      8  S   UNL     1       6.619   5.739  17.970  0.00  0.00    +0.000 S 
ATOM      9  H   UNL     1       6.859   9.117  16.672  0.00  0.00    +0.000 HD
ENDROOT
BRANCH   1  13
ATOM     10  C   UNL     1       9.794  12.527  18.679  0.00  0.00    +0.000 A 
ATOM     11  C   UNL     1       8.830  12.234  17.726  0.00  0.00    +0.000 A 
ATOM     12  C   UNL     1       8.299  10.942  17.636  0.00  0.00    +0.000 A 
ATOM     13  C   UNL     1       8.729   9.890  18.474  0.00  0.00    +0.000 A 
ATOM     14  C   UNL     1       9.702  10.197  19.433  0.00  0.00    +0.000 A 
ATOM     15  C   UNL     1      10.226  11.512  19.536  0.00  0.00    +0.000 A 
BRANCH  10  17
ATOM     16  C   UNL     1      11.209  14.181  19.640  0.00  0.00    +0.000 C 
ATOM     17  O   UNL     1      10.279  13.806  18.633  0.00  0.00    +0.000 OA
ENDBRANCH  10  17
ENDBRANCH   1  13
BRANCH   7  18
ATOM     18  S   UNL     1       5.187   3.190  17.035  0.00  0.00    +0.000 S 
BRANCH  18  19
ATOM     19  C   UNL     1       3.365   3.232  16.996  0.00  0.00    +0.000 C 
BRANCH  19  20
ATOM     20  C   UNL     1       2.756   4.127  18.092  0.00  0.00    +0.000 A 
ATOM     21  C   UNL     1       2.717   3.658  19.353  0.00  0.00    +0.000 A 
ATOM     22  C   UNL     1       2.037   4.444  20.403  0.00  0.00    +0.000 A 
ATOM     23  O   UNL     1       1.699   3.913  21.454  0.00  0.00    +0.000 OA
ATOM     24  C   UNL     1       1.824   5.879  20.149  0.00  0.00    +0.000 A 
ATOM     25  C   UNL     1       1.453   6.717  21.212  0.00  0.00    +0.000 A 
ATOM     26  C   UNL     1       1.434   8.100  21.039  0.00  0.00    +0.000 A 
ATOM     27  C   UNL     1       1.126   9.015  22.188  0.00  0.00    +0.000 C 
ATOM     28  C   UNL     1       1.809   8.617  19.791  0.00  0.00    +0.000 A 
ATOM     29  C   UNL     1       2.145   7.772  18.704  0.00  0.00    +0.000 A 
ATOM     30  C   UNL     1       2.667   8.416  17.449  0.00  0.00    +0.000 C 
ATOM     31  C   UNL     1       2.102   6.370  18.864  0.00  0.00    +0.000 A 
ATOM     32  N   UNL     1       2.408   5.458  17.809  0.00  0.00    +0.000 N 
ATOM     33  H   UNL     1       1.765   5.551  17.019  0.00  0.00    +0.000 HD
ENDBRANCH  19  20
ENDBRANCH  18  19
ENDBRANCH   7  18
TORSDOF 5
ENDMDL
MODEL 5
REMARK VINA RESULT:      -8.0      1.687      2.559
REMARK  Name = 
REMARK  8 active torsions:
REMARK  status: ('A' for Active; 'I' for Inactive)
REMARK    1  A    between atoms: C_1  and  O_2
REMARK    2  A    between atoms: O_2  and  C_3
REMARK    3  A    between atoms: C_6  and  C_7
REMARK    4  A    between atoms: C_13  and  S_14
REMARK    5  A    between atoms: S_14  and  C_15
REMARK    6  A    between atoms: C_15  and  C_16
REMARK    7  A    between atoms: C_22  and  C_23
REMARK    8  A    between atoms: C_25  and  C_26
REMARK                            x       y       z     vdW  Elec       q    Type
REMARK                         _______ _______ _______ _____ _____    ______ ____
ROOT
ATOM      1  C   UNL     1       8.641   9.509  18.469  0.00  0.00    +0.000 C 
ATOM      2  O   UNL     1       7.746   9.692  17.645  0.00  0.00    +0.000 OA
ATOM      3  N   UNL     1       8.878   8.294  19.080  0.00  0.00    +0.000 N 
ATOM      4  C   UNL     1       8.167   7.111  18.821  0.00  0.00    +0.000 A 
ATOM      5  N   UNL     1       8.243   6.042  19.579  0.00  0.00    +0.000 NA
ATOM      6  N   UNL     1       7.417   5.002  19.131  0.00  0.00    +0.000 NA
ATOM      7  C   UNL     1       6.780   5.313  18.022  0.00  0.00    +0.000 A 
ATOM      8  S   UNL     1       7.162   6.891  17.443  0.00  0.00    +0.000 S 
ATOM      9  H   UNL     1       9.499   8.235  19.869  0.00  0.00    +0.000 HD
ENDROOT
BRANCH   1  13
ATOM     10  C   UNL     1      11.045  13.084  19.143  0.00  0.00    +0.000 A 
ATOM     11  C   UNL     1      10.230  12.938  18.030  0.00  0.00    +0.000 A 
ATOM     12  C   UNL     1       9.449  11.787  17.875  0.00  0.00    +0.000 A 
ATOM     13  C   UNL     1       9.473  10.728  18.809  0.00  0.00    +0.000 A 
ATOM     14  C   UNL     1      10.298  10.887  19.930  0.00  0.00    +0.000 A 
ATOM     15  C   UNL     1      11.075  12.062  20.096  0.00  0.00    +0.000 A 
BRANCH  10  17
ATOM     16  C   UNL     1      11.533  15.191  18.152  0.00  0.00    +0.000 C 
ATOM     17  O   UNL     1      11.803  14.223  19.157  0.00  0.00    +0.000 OA
ENDBRANCH  10  17
ENDBRANCH   1  13
BRANCH   7  18
ATOM     18  S   UNL     1       5.689   4.212  17.156  0.00  0.00    +0.000 S 
BRANCH  18  19
ATOM     19  C   UNL     1       4.511   5.341  16.344  0.00  0.00    +0.000 C 
BRANCH  19  20
ATOM     20  C   UNL     1       3.778   6.266  17.335  0.00  0.00    +0.000 A 
ATOM     21  C   UNL     1       3.304   7.441  16.884  0.00  0.00    +0.000 A 
ATOM     22  C   UNL     1       2.699   8.399  17.834  0.00  0.00    +0.000 A 
ATOM     23  O   UNL     1       2.567   9.577  17.526  0.00  0.00    +0.000 OA
ATOM     24  C   UNL     1       2.237   7.872  19.129  0.00  0.00    +0.000 A 
ATOM     25  C   UNL     1       1.407   8.665  19.936  0.00  0.00    +0.000 A 
ATOM     26  C   UNL     1       0.803   8.120  21.067  0.00  0.00    +0.000 A 
ATOM     27  C   UNL     1      -0.157   8.927  21.891  0.00  0.00    +0.000 C 
ATOM     28  C   UNL     1       1.037   6.769  21.357  0.00  0.00    +0.000 A 
ATOM     29  C   UNL     1       1.906   5.975  20.567  0.00  0.00    +0.000 A 
ATOM     30  C   UNL     1       1.988   4.505  20.872  0.00  0.00    +0.000 C 
ATOM     31  C   UNL     1       2.566   6.548  19.459  0.00  0.00    +0.000 A 
ATOM     32  N   UNL     1       3.471   5.816  18.630  0.00  0.00    +0.000 N 
ATOM     33  H   UNL     1       4.286   5.483  19.150  0.00  0.00    +0.000 HD
ENDBRANCH  19  20
ENDBRANCH  18  19
ENDBRANCH   7  18
TORSDOF 5
ENDMDL
MODEL 6
REMARK VINA RESULT:      -7.9      1.562      2.667
REMARK  Name = 
REMARK  8 active torsions:
REMARK  status: ('A' for Active; 'I' for Inactive)
REMARK    1  A    between atoms: C_1  and  O_2
REMARK    2  A    between atoms: O_2  and  C_3
REMARK    3  A    between atoms: C_6  and  C_7
REMARK    4  A    between atoms: C_13  and  S_14
REMARK    5  A    between atoms: S_14  and  C_15
REMARK    6  A    between atoms: C_15  and  C_16
REMARK    7  A    between atoms: C_22  and  C_23
REMARK    8  A    between atoms: C_25  and  C_26
REMARK                            x       y       z     vdW  Elec       q    Type
REMARK                         _______ _______ _______ _____ _____    ______ ____
ROOT
ATOM      1  C   UNL     1       8.586   9.606  18.507  0.00  0.00    +0.000 C 
ATOM      2  O   UNL     1       8.031   9.850  17.435  0.00  0.00    +0.000 OA
ATOM      3  N   UNL     1       8.671   8.340  19.050  0.00  0.00    +0.000 N 
ATOM      4  C   UNL     1       8.177   7.172  18.448  0.00  0.00    +0.000 A 
ATOM      5  N   UNL     1       8.049   6.030  19.084  0.00  0.00    +0.000 NA
ATOM      6  N   UNL     1       7.505   5.021  18.277  0.00  0.00    +0.000 NA
ATOM      7  C   UNL     1       7.284   5.430  17.046  0.00  0.00    +0.000 A 
ATOM      8  S   UNL     1       7.742   7.071  16.787  0.00  0.00    +0.000 S 
ATOM      9  H   UNL     1       8.974   8.215  20.001  0.00  0.00    +0.000 HD
ENDROOT
BRANCH   1  13
ATOM     10  C   UNL     1      10.312  13.180  20.312  0.00  0.00    +0.000 A 
ATOM     11  C   UNL     1       9.793  13.177  19.026  0.00  0.00    +0.000 A 
ATOM     12  C   UNL     1       9.217  12.013  18.502  0.00  0.00    +0.000 A 
ATOM     13  C   UNL     1       9.161  10.806  19.231  0.00  0.00    +0.000 A 
ATOM     14  C   UNL     1       9.687  10.821  20.529  0.00  0.00    +0.000 A 
ATOM     15  C   UNL     1      10.254  12.005  21.066  0.00  0.00    +0.000 A 
BRANCH  10  17
ATOM     16  C   UNL     1      10.035  15.440  21.002  0.00  0.00    +0.000 C 
ATOM     17  O   UNL     1      10.900  14.356  20.693  0.00  0.00    +0.000 OA
ENDBRANCH  10  17
ENDBRANCH   1  13
BRANCH   7  18
ATOM     18  S   UNL     1       6.646   4.397  15.751  0.00  0.00    +0.000 S 
BRANCH  18  19
ATOM     19  C   UNL     1       4.872   4.815  15.715  0.00  0.00    +0.000 C 
BRANCH  19  20
ATOM     20  C   UNL     1       4.069   4.143  16.846  0.00  0.00    +0.000 A 
ATOM     21  C   UNL     1       4.348   2.865  17.157  0.00  0.00    +0.000 A 
ATOM     22  C   UNL     1       3.519   2.158  18.156  0.00  0.00    +0.000 A 
ATOM     23  O   UNL     1       3.531   0.935  18.217  0.00  0.00    +0.000 OA
ATOM     24  C   UNL     1       2.724   2.979  19.083  0.00  0.00    +0.000 A 
ATOM     25  C   UNL     1       2.156   2.380  20.218  0.00  0.00    +0.000 A 
ATOM     26  C   UNL     1       1.565   3.167  21.204  0.00  0.00    +0.000 A 
ATOM     27  C   UNL     1       1.034   2.551  22.465  0.00  0.00    +0.000 C 
ATOM     28  C   UNL     1       1.573   4.558  21.034  0.00  0.00    +0.000 A 
ATOM     29  C   UNL     1       2.109   5.165  19.871  0.00  0.00    +0.000 A 
ATOM     30  C   UNL     1       2.199   6.666  19.838  0.00  0.00    +0.000 C 
ATOM     31  C   UNL     1       2.649   4.360  18.844  0.00  0.00    +0.000 A 
ATOM     32  N   UNL     1       3.188   4.900  17.637  0.00  0.00    +0.000 N 
ATOM     33  H   UNL     1       2.486   5.406  17.093  0.00  0.00    +0.000 HD
ENDBRANCH  19  20
ENDBRANCH  18  19
ENDBRANCH   7  18
TORSDOF 5
ENDMDL
MODEL 7
REMARK VINA RESULT:      -7.8      6.582     10.008
REMARK  Name = 
REMARK  8 active torsions:
REMARK  status: ('A' for Active; 'I' for Inactive)
REMARK    1  A    between atoms: C_1  and  O_2
REMARK    2  A    between atoms: O_2  and  C_3
REMARK    3  A    between atoms: C_6  and  C_7
REMARK    4  A    between atoms: C_13  and  S_14
REMARK    5  A    between atoms: S_14  and  C_15
REMARK    6  A    between atoms: C_15  and  C_16
REMARK    7  A    between atoms: C_22  and  C_23
REMARK    8  A    between atoms: C_25  and  C_26
REMARK                            x       y       z     vdW  Elec       q    Type
REMARK                         _______ _______ _______ _____ _____    ______ ____
ROOT
ATOM      1  C   UNL     1       2.880   7.402  18.119  0.00  0.00    +0.000 C 
ATOM      2  O   UNL     1       2.753   8.426  17.447  0.00  0.00    +0.000 OA
ATOM      3  N   UNL     1       2.330   7.242  19.375  0.00  0.00    +0.000 N 
ATOM      4  C   UNL     1       1.534   8.193  20.031  0.00  0.00    +0.000 A 
ATOM      5  N   UNL     1       1.230   8.124  21.307  0.00  0.00    +0.000 NA
ATOM      6  N   UNL     1       0.449   9.207  21.735  0.00  0.00    +0.000 NA
ATOM      7  C   UNL     1       0.156  10.032  20.752  0.00  0.00    +0.000 A 
ATOM      8  S   UNL     1       0.800   9.529  19.235  0.00  0.00    +0.000 S 
ATOM      9  H   UNL     1       2.605   6.466  19.954  0.00  0.00    +0.000 HD
ENDROOT
BRANCH   1  13
ATOM     10  C   UNL     1       5.373   4.460  16.083  0.00  0.00    +0.000 A 
ATOM     11  C   UNL     1       5.594   5.825  15.968  0.00  0.00    +0.000 A 
ATOM     12  C   UNL     1       4.788   6.730  16.669  0.00  0.00    +0.000 A 
ATOM     13  C   UNL     1       3.718   6.309  17.489  0.00  0.00    +0.000 A 
ATOM     14  C   UNL     1       3.506   4.929  17.599  0.00  0.00    +0.000 A 
ATOM     15  C   UNL     1       4.335   4.012  16.903  0.00  0.00    +0.000 A 
BRANCH  10  17
ATOM     16  C   UNL     1       6.513   4.170  14.016  0.00  0.00    +0.000 C 
ATOM     17  O   UNL     1       6.185   3.678  15.308  0.00  0.00    +0.000 OA
ENDBRANCH  10  17
ENDBRANCH   1  13
BRANCH   7  18
ATOM     18  S   UNL     1      -0.855  11.480  20.933  0.00  0.00    +0.000 S 
BRANCH  18  19
ATOM     19  C   UNL     1      -1.098  11.601  22.735  0.00  0.00    +0.000 C 
BRANCH  19  20
ATOM     20  C   UNL     1      -2.207  12.595  23.131  0.00  0.00    +0.000 A 
ATOM     21  C   UNL     1      -1.848  13.779  23.658  0.00  0.00    +0.000 A 
ATOM     22  C   UNL     1      -2.888  14.704  24.152  0.00  0.00    +0.000 A 
ATOM     23  O   UNL     1      -2.595  15.613  24.919  0.00  0.00    +0.000 OA
ATOM     24  C   UNL     1      -4.262  14.510  23.659  0.00  0.00    +0.000 A 
ATOM     25  C   UNL     1      -5.215  15.520  23.865  0.00  0.00    +0.000 A 
ATOM     26  C   UNL     1      -6.460  15.443  23.243  0.00  0.00    +0.000 A 
ATOM     27  C   UNL     1      -7.457  16.557  23.380  0.00  0.00    +0.000 C 
ATOM     28  C   UNL     1      -6.717  14.350  22.406  0.00  0.00    +0.000 A 
ATOM     29  C   UNL     1      -5.772  13.308  22.227  0.00  0.00    +0.000 A 
ATOM     30  C   UNL     1      -6.079  12.248  21.205  0.00  0.00    +0.000 C 
ATOM     31  C   UNL     1      -4.537  13.357  22.909  0.00  0.00    +0.000 A 
ATOM     32  N   UNL     1      -3.546  12.334  22.793  0.00  0.00    +0.000 N 
ATOM     33  H   UNL     1      -3.883  11.430  23.132  0.00  0.00    +0.000 HD
ENDBRANCH  19  20
ENDBRANCH  18  19
ENDBRANCH   7  18
TORSDOF 5
ENDMDL
MODEL 8
REMARK VINA RESULT:      -7.7      6.855     10.013
REMARK  Name = 
REMARK  8 active torsions:
REMARK  status: ('A' for Active; 'I' for Inactive)
REMARK    1  A    between atoms: C_1  and  O_2
REMARK    2  A    between atoms: O_2  and  C_3
REMARK    3  A    between atoms: C_6  and  C_7
REMARK    4  A    between atoms: C_13  and  S_14
REMARK    5  A    between atoms: S_14  and  C_15
REMARK    6  A    between atoms: C_15  and  C_16
REMARK    7  A    between atoms: C_22  and  C_23
REMARK    8  A    between atoms: C_25  and  C_26
REMARK                            x       y       z     vdW  Elec       q    Type
REMARK                         _______ _______ _______ _____ _____    ______ ____
ROOT
ATOM      1  C   UNL     1       1.846   8.254  19.598  0.00  0.00    +0.000 C 
ATOM      2  O   UNL     1       1.293   9.052  18.840  0.00  0.00    +0.000 OA
ATOM      3  N   UNL     1       1.687   8.269  20.969  0.00  0.00    +0.000 N 
ATOM      4  C   UNL     1       0.859   9.158  21.672  0.00  0.00    +0.000 A 
ATOM      5  N   UNL     1       0.910   9.315  22.975  0.00  0.00    +0.000 NA
ATOM      6  N   UNL     1       0.006  10.280  23.439  0.00  0.00    +0.000 NA
ATOM      7  C   UNL     1      -0.727  10.785  22.469  0.00  0.00    +0.000 A 
ATOM      8  S   UNL     1      -0.372  10.100  20.928  0.00  0.00    +0.000 S 
ATOM      9  H   UNL     1       2.289   7.718  21.555  0.00  0.00    +0.000 HD
ENDROOT
BRANCH   1  13
ATOM     10  C   UNL     1       4.522   5.229  17.953  0.00  0.00    +0.000 A 
ATOM     11  C   UNL     1       3.834   5.042  19.143  0.00  0.00    +0.000 A 
ATOM     12  C   UNL     1       2.958   6.028  19.613  0.00  0.00    +0.000 A 
ATOM     13  C   UNL     1       2.757   7.246  18.928  0.00  0.00    +0.000 A 
ATOM     14  C   UNL     1       3.455   7.424  17.727  0.00  0.00    +0.000 A 
ATOM     15  C   UNL     1       4.327   6.416  17.242  0.00  0.00    +0.000 A 
BRANCH  10  17
ATOM     16  C   UNL     1       6.742   4.592  17.385  0.00  0.00    +0.000 C 
ATOM     17  O   UNL     1       5.391   4.224  17.626  0.00  0.00    +0.000 OA
ENDBRANCH  10  17
ENDBRANCH   1  13
BRANCH   7  18
ATOM     18  S   UNL     1      -2.004  11.995  22.709  0.00  0.00    +0.000 S 
BRANCH  18  19
ATOM     19  C   UNL     1      -1.073  13.537  22.990  0.00  0.00    +0.000 C 
BRANCH  19  20
ATOM     20  C   UNL     1      -1.053  14.465  21.759  0.00  0.00    +0.000 A 
ATOM     21  C   UNL     1      -2.000  15.415  21.658  0.00  0.00    +0.000 A 
ATOM     22  C   UNL     1      -2.076  16.243  20.436  0.00  0.00    +0.000 A 
ATOM     23  O   UNL     1      -3.096  16.868  20.173  0.00  0.00    +0.000 OA
ATOM     24  C   UNL     1      -0.876  16.312  19.585  0.00  0.00    +0.000 A 
ATOM     25  C   UNL     1      -0.797  17.296  18.587  0.00  0.00    +0.000 A 
ATOM     26  C   UNL     1       0.399  17.503  17.902  0.00  0.00    +0.000 A 
ATOM     27  C   UNL     1       0.527  18.610  16.896  0.00  0.00    +0.000 C 
ATOM     28  C   UNL     1       1.507  16.720  18.251  0.00  0.00    +0.000 A 
ATOM     29  C   UNL     1       1.421  15.698  19.230  0.00  0.00    +0.000 A 
ATOM     30  C   UNL     1       2.692  15.004  19.636  0.00  0.00    +0.000 C 
ATOM     31  C   UNL     1       0.191  15.448  19.876  0.00  0.00    +0.000 A 
ATOM     32  N   UNL     1       0.024  14.423  20.858  0.00  0.00    +0.000 N 
ATOM     33  H   UNL     1       0.200  13.491  20.475  0.00  0.00    +0.000 HD
ENDBRANCH  19  20
ENDBRANCH  18  19
ENDBRANCH   7  18
TORSDOF 5
ENDMDL
MODEL 9
REMARK VINA RESULT:      -7.6      6.400     10.196
REMARK  Name = 
REMARK  8 active torsions:
REMARK  status: ('A' for Active; 'I' for Inactive)
REMARK    1  A    between atoms: C_1  and  O_2
REMARK    2  A    between atoms: O_2  and  C_3
REMARK    3  A    between atoms: C_6  and  C_7
REMARK    4  A    between atoms: C_13  and  S_14
REMARK    5  A    between atoms: S_14  and  C_15
REMARK    6  A    between atoms: C_15  and  C_16
REMARK    7  A    between atoms: C_22  and  C_23
REMARK    8  A    between atoms: C_25  and  C_26
REMARK                            x       y       z     vdW  Elec       q    Type
REMARK                         _______ _______ _______ _____ _____    ______ ____
ROOT
ATOM      1  C   UNL     1       1.614   7.536  20.146  0.00  0.00    +0.000 C 
ATOM      2  O   UNL     1       2.219   8.256  19.351  0.00  0.00    +0.000 OA
ATOM      3  N   UNL     1       0.829   8.023  21.172  0.00  0.00    +0.000 N 
ATOM      4  C   UNL     1       0.587   9.383  21.421  0.00  0.00    +0.000 A 
ATOM      5  N   UNL     1       0.047   9.828  22.533  0.00  0.00    +0.000 NA
ATOM      6  N   UNL     1      -0.065  11.225  22.557  0.00  0.00    +0.000 NA
ATOM      7  C   UNL     1       0.357  11.780  21.440  0.00  0.00    +0.000 A 
ATOM      8  S   UNL     1       0.901  10.629  20.279  0.00  0.00    +0.000 S 
ATOM      9  H   UNL     1       0.502   7.408  21.897  0.00  0.00    +0.000 HD
ENDROOT
BRANCH   1  13
ATOM     10  C   UNL     1       2.154   3.296  19.279  0.00  0.00    +0.000 A 
ATOM     11  C   UNL     1       2.502   4.288  18.374  0.00  0.00    +0.000 A 
ATOM     12  C   UNL     1       2.343   5.637  18.711  0.00  0.00    +0.000 A 
ATOM     13  C   UNL     1       1.807   6.046  19.952  0.00  0.00    +0.000 A 
ATOM     14  C   UNL     1       1.461   5.036  20.859  0.00  0.00    +0.000 A 
ATOM     15  C   UNL     1       1.640   3.670  20.523  0.00  0.00    +0.000 A 
BRANCH  10  17
ATOM     16  C   UNL     1       3.433   1.749  18.004  0.00  0.00    +0.000 C 
ATOM     17  O   UNL     1       2.299   2.017  18.816  0.00  0.00    +0.000 OA
ENDBRANCH  10  17
ENDBRANCH   1  13
BRANCH   7  18
ATOM     18  S   UNL     1       0.314  13.524  21.115  0.00  0.00    +0.000 S 
BRANCH  18  19
ATOM     19  C   UNL     1      -0.378  13.620  19.431  0.00  0.00    +0.000 C 
BRANCH  19  20
ATOM     20  C   UNL     1      -1.825  13.099  19.342  0.00  0.00    +0.000 A 
ATOM     21  C   UNL     1      -2.078  12.043  18.547  0.00  0.00    +0.000 A 
ATOM     22  C   UNL     1      -3.471  11.592  18.351  0.00  0.00    +0.000 A 
ATOM     23  O   UNL     1      -3.763  10.873  17.404  0.00  0.00    +0.000 OA
ATOM     24  C   UNL     1      -4.468  12.009  19.352  0.00  0.00    +0.000 A 
ATOM     25  C   UNL     1      -5.723  11.381  19.375  0.00  0.00    +0.000 A 
ATOM     26  C   UNL     1      -6.606  11.620  20.425  0.00  0.00    +0.000 A 
ATOM     27  C   UNL     1      -7.915  10.890  20.512  0.00  0.00    +0.000 C 
ATOM     28  C   UNL     1      -6.197  12.483  21.451  0.00  0.00    +0.000 A 
ATOM     29  C   UNL     1      -4.947  13.150  21.412  0.00  0.00    +0.000 A 
ATOM     30  C   UNL     1      -4.536  13.946  22.621  0.00  0.00    +0.000 C 
ATOM     31  C   UNL     1      -4.082  12.955  20.314  0.00  0.00    +0.000 A 
ATOM     32  N   UNL     1      -2.817  13.608  20.197  0.00  0.00    +0.000 N 
ATOM     33  H   UNL     1      -2.911  14.625  20.151  0.00  0.00    +0.000 HD
ENDBRANCH  19  20
ENDBRANCH  18  19
ENDBRANCH   7  18
TORSDOF 5
ENDMDL
