MODEL 1
REMARK VINA RESULT:      -7.0      0.000      0.000
REMARK  Name = 
REMARK  13 active torsions:
REMARK  status: ('A' for Active; 'I' for Inactive)
REMARK    1  A    between atoms: C_1  and  O_2
REMARK    2  A    between atoms: O_2  and  C_3
REMARK    3  A    between atoms: C_3  and  C_4
REMARK    4  A    between atoms: C_5  and  C_6
REMARK    5  A    between atoms: C_9  and  O_10
REMARK    6  A    between atoms: O_10  and  C_11
REMARK    7  A    between atoms: C_13  and  C_14
REMARK    8  A    between atoms: C_14  and  O_15
REMARK    9  A    between atoms: C_16  and  O_17
REMARK   10  A    between atoms: C_18  and  O_19
REMARK   11  A    between atoms: C_20  and  O_21
REMARK   12  A    between atoms: C_22  and  O_23
REMARK   13  A    between atoms: O_23  and  C_24
REMARK                            x       y       z     vdW  Elec       q    Type
REMARK                         _______ _______ _______ _____ _____    ______ ____
ROOT
ATOM      1  C   UNL     1       4.586   4.855  17.362  0.00  0.00    +0.000 C 
ATOM      2  O   UNL     1       4.501   4.377  16.015  0.00  0.00    +0.000 OA
ATOM      3  C   UNL     1       5.600   4.785  15.194  0.00  0.00    +0.000 C 
ATOM      4  C   UNL     1       6.920   4.228  15.737  0.00  0.00    +0.000 C 
ATOM      5  C   UNL     1       7.098   4.669  17.198  0.00  0.00    +0.000 C 
ATOM      6  C   UNL     1       5.868   4.326  18.052  0.00  0.00    +0.000 C 
ENDROOT
BRANCH   4   7
ATOM      7  O   UNL     1       8.000   4.704  14.925  0.00  0.00    +0.000 OA
ATOM      8  H   UNL     1       7.851   4.423  14.004  0.00  0.00    +0.000 HD
ENDBRANCH   4   7
BRANCH   5   9
ATOM      9  O   UNL     1       8.297   4.096  17.734  0.00  0.00    +0.000 OA
ATOM     10  H   UNL     1       9.058   4.486  17.265  0.00  0.00    +0.000 HD
ENDBRANCH   5   9
BRANCH   6  11
ATOM     11  O   UNL     1       6.033   4.881  19.370  0.00  0.00    +0.000 OA
ATOM     12  H   UNL     1       6.155   4.157  20.008  0.00  0.00    +0.000 HD
ENDBRANCH   6  11
BRANCH   1  13
ATOM     13  O   UNL     1       3.459   4.408  18.125  0.00  0.00    +0.000 OA
BRANCH  13  17
ATOM     14  C   UNL     1       1.496   7.149  20.607  0.00  0.00    +0.000 A 
ATOM     15  C   UNL     1       2.190   7.609  19.488  0.00  0.00    +0.000 A 
ATOM     16  C   UNL     1       2.851   6.712  18.644  0.00  0.00    +0.000 A 
ATOM     17  C   UNL     1       2.820   5.340  18.904  0.00  0.00    +0.000 A 
ATOM     18  C   UNL     1       2.130   4.863  20.032  0.00  0.00    +0.000 A 
ATOM     19  C   UNL     1       1.467   5.773  20.871  0.00  0.00    +0.000 A 
BRANCH  14  21
ATOM     20  C   UNL     1       0.427   9.356  21.029  0.00  0.00    +0.000 C 
ATOM     21  C   UNL     1       0.753   8.116  21.428  0.00  0.00    +0.000 C 
BRANCH  20  22
ATOM     22  C   UNL     1      -0.297  10.343  21.884  0.00  0.00    +0.000 C 
BRANCH  22  24
ATOM     23  C   UNL     1       1.167  11.648  20.591  0.00  0.00    +0.000 C 
ATOM     24  O   UNL     1       0.389  11.586  21.777  0.00  0.00    +0.000 OA
ENDBRANCH  22  24
ENDBRANCH  20  22
ENDBRANCH  14  21
BRANCH  18  25
ATOM     25  O   UNL     1       2.140   3.503  20.237  0.00  0.00    +0.000 OA
ATOM     26  C   UNL     1       2.138   3.046  21.583  0.00  0.00    +0.000 C 
ENDBRANCH  18  25
ENDBRANCH  13  17
ENDBRANCH   1  13
BRANCH   3  27
ATOM     27  C   UNL     1       5.322   4.303  13.762  0.00  0.00    +0.000 C 
BRANCH  27  28
ATOM     28  O   UNL     1       6.238   3.278  13.381  0.00  0.00    +0.000 OA
ATOM     29  H   UNL     1       6.497   2.833  14.210  0.00  0.00    +0.000 HD
ENDBRANCH  27  28
ENDBRANCH   3  27
TORSDOF 11
ENDMDL
MODEL 2
REMARK VINA RESULT:      -6.9      3.546      6.725
REMARK  Name = 
REMARK  13 active torsions:
REMARK  status: ('A' for Active; 'I' for Inactive)
REMARK    1  A    between atoms: C_1  and  O_2
REMARK    2  A    between atoms: O_2  and  C_3
REMARK    3  A    between atoms: C_3  and  C_4
REMARK    4  A    between atoms: C_5  and  C_6
REMARK    5  A    between atoms: C_9  and  O_10
REMARK    6  A    between atoms: O_10  and  C_11
REMARK    7  A    between atoms: C_13  and  C_14
REMARK    8  A    between atoms: C_14  and  O_15
REMARK    9  A    between atoms: C_16  and  O_17
REMARK   10  A    between atoms: C_18  and  O_19
REMARK   11  A    between atoms: C_20  and  O_21
REMARK   12  A    between atoms: C_22  and  O_23
REMARK   13  A    between atoms: O_23  and  C_24
REMARK                            x       y       z     vdW  Elec       q    Type
REMARK                         _______ _______ _______ _____ _____    ______ ____
ROOT
ATOM      1  C   UNL     1       4.576   3.765  18.463  0.00  0.00    +0.000 C 
ATOM      2  O   UNL     1       4.074   5.089  18.668  0.00  0.00    +0.000 OA
ATOM      3  C   UNL     1       2.724   5.120  19.145  0.00  0.00    +0.000 C 
ATOM      4  C   UNL     1       2.613   4.431  20.508  0.00  0.00    +0.000 C 
ATOM      5  C   UNL     1       3.153   2.996  20.400  0.00  0.00    +0.000 C 
ATOM      6  C   UNL     1       4.561   2.960  19.786  0.00  0.00    +0.000 C 
ENDROOT
BRANCH   4   7
ATOM      7  O   UNL     1       1.242   4.430  20.924  0.00  0.00    +0.000 OA
ATOM      8  H   UNL     1       0.675   4.299  20.143  0.00  0.00    +0.000 HD
ENDBRANCH   4   7
BRANCH   5   9
ATOM      9  O   UNL     1       3.116   2.366  21.687  0.00  0.00    +0.000 OA
ATOM     10  H   UNL     1       3.896   1.786  21.765  0.00  0.00    +0.000 HD
ENDBRANCH   5   9
BRANCH   6  11
ATOM     11  O   UNL     1       4.959   1.591  19.584  0.00  0.00    +0.000 OA
ATOM     12  H   UNL     1       5.149   1.450  18.641  0.00  0.00    +0.000 HD
ENDBRANCH   6  11
BRANCH   1  13
ATOM     13  O   UNL     1       5.928   3.809  17.990  0.00  0.00    +0.000 OA
BRANCH  13  17
ATOM     14  C   UNL     1       7.748   7.577  17.883  0.00  0.00    +0.000 A 
ATOM     15  C   UNL     1       7.948   6.748  18.987  0.00  0.00    +0.000 A 
ATOM     16  C   UNL     1       7.352   5.484  19.043  0.00  0.00    +0.000 A 
ATOM     17  C   UNL     1       6.553   5.030  17.992  0.00  0.00    +0.000 A 
ATOM     18  C   UNL     1       6.338   5.858  16.876  0.00  0.00    +0.000 A 
ATOM     19  C   UNL     1       6.944   7.124  16.830  0.00  0.00    +0.000 A 
BRANCH  14  21
ATOM     20  C   UNL     1       8.856   9.554  18.909  0.00  0.00    +0.000 C 
ATOM     21  C   UNL     1       8.450   8.868  17.829  0.00  0.00    +0.000 C 
BRANCH  20  22
ATOM     22  C   UNL     1       9.538  10.881  18.844  0.00  0.00    +0.000 C 
BRANCH  22  24
ATOM     23  C   UNL     1      11.183  12.060  20.037  0.00  0.00    +0.000 C 
ATOM     24  O   UNL     1      10.113  11.130  20.123  0.00  0.00    +0.000 OA
ENDBRANCH  22  24
ENDBRANCH  20  22
ENDBRANCH  14  21
BRANCH  18  25
ATOM     25  O   UNL     1       5.538   5.356  15.876  0.00  0.00    +0.000 OA
ATOM     26  C   UNL     1       6.182   4.898  14.693  0.00  0.00    +0.000 C 
ENDBRANCH  18  25
ENDBRANCH  13  17
ENDBRANCH   1  13
BRANCH   3  27
ATOM     27  C   UNL     1       2.281   6.589  19.210  0.00  0.00    +0.000 C 
BRANCH  27  28
ATOM     28  O   UNL     1       2.282   7.065  20.555  0.00  0.00    +0.000 OA
ATOM     29  H   UNL     1       2.179   8.034  20.492  0.00  0.00    +0.000 HD
ENDBRANCH  27  28
ENDBRANCH   3  27
TORSDOF 11
ENDMDL
MODEL 3
REMARK VINA RESULT:      -6.7      3.228      4.878
REMARK  Name = 
REMARK  13 active torsions:
REMARK  status: ('A' for Active; 'I' for Inactive)
REMARK    1  A    between atoms: C_1  and  O_2
REMARK    2  A    between atoms: O_2  and  C_3
REMARK    3  A    between atoms: C_3  and  C_4
REMARK    4  A    between atoms: C_5  and  C_6
REMARK    5  A    between atoms: C_9  and  O_10
REMARK    6  A    between atoms: O_10  and  C_11
REMARK    7  A    between atoms: C_13  and  C_14
REMARK    8  A    between atoms: C_14  and  O_15
REMARK    9  A    between atoms: C_16  and  O_17
REMARK   10  A    between atoms: C_18  and  O_19
REMARK   11  A    between atoms: C_20  and  O_21
REMARK   12  A    between atoms: C_22  and  O_23
REMARK   13  A    between atoms: O_23  and  C_24
REMARK                            x       y       z     vdW  Elec       q    Type
REMARK                         _______ _______ _______ _____ _____    ______ ____
ROOT
ATOM      1  C   UNL     1       2.985   5.889  19.027  0.00  0.00    +0.000 C 
ATOM      2  O   UNL     1       1.936   5.033  19.490  0.00  0.00    +0.000 OA
ATOM      3  C   UNL     1       1.938   3.741  18.871  0.00  0.00    +0.000 C 
ATOM      4  C   UNL     1       3.238   2.992  19.182  0.00  0.00    +0.000 C 
ATOM      5  C   UNL     1       4.437   3.845  18.740  0.00  0.00    +0.000 C 
ATOM      6  C   UNL     1       4.373   5.266  19.320  0.00  0.00    +0.000 C 
ENDROOT
BRANCH   4   7
ATOM      7  O   UNL     1       3.228   1.732  18.499  0.00  0.00    +0.000 OA
ATOM      8  H   UNL     1       4.118   1.558  18.144  0.00  0.00    +0.000 HD
ENDBRANCH   4   7
BRANCH   5   9
ATOM      9  O   UNL     1       5.659   3.180  19.089  0.00  0.00    +0.000 OA
ATOM     10  H   UNL     1       5.459   2.239  19.246  0.00  0.00    +0.000 HD
ENDBRANCH   5   9
BRANCH   6  11
ATOM     11  O   UNL     1       5.441   6.056  18.766  0.00  0.00    +0.000 OA
ATOM     12  H   UNL     1       6.044   6.323  19.481  0.00  0.00    +0.000 HD
ENDBRANCH   6  11
BRANCH   1  13
ATOM     13  O   UNL     1       2.925   7.158  19.688  0.00  0.00    +0.000 OA
BRANCH  13  17
ATOM     14  C   UNL     1      -0.006   9.909  18.518  0.00  0.00    +0.000 A 
ATOM     15  C   UNL     1       0.791   9.300  17.549  0.00  0.00    +0.000 A 
ATOM     16  C   UNL     1       1.775   8.376  17.916  0.00  0.00    +0.000 A 
ATOM     17  C   UNL     1       1.969   8.044  19.258  0.00  0.00    +0.000 A 
ATOM     18  C   UNL     1       1.176   8.655  20.247  0.00  0.00    +0.000 A 
ATOM     19  C   UNL     1       0.190   9.579  19.865  0.00  0.00    +0.000 A 
BRANCH  14  21
ATOM     20  C   UNL     1      -2.113  10.455  17.314  0.00  0.00    +0.000 C 
ATOM     21  C   UNL     1      -1.077  10.818  18.086  0.00  0.00    +0.000 C 
BRANCH  20  22
ATOM     22  C   UNL     1      -3.178  11.395  16.851  0.00  0.00    +0.000 C 
BRANCH  22  24
ATOM     23  C   UNL     1      -3.039  10.140  14.870  0.00  0.00    +0.000 C 
ATOM     24  O   UNL     1      -3.118  11.443  15.429  0.00  0.00    +0.000 OA
ENDBRANCH  22  24
ENDBRANCH  20  22
ENDBRANCH  14  21
BRANCH  18  25
ATOM     25  O   UNL     1       1.419   8.290  21.550  0.00  0.00    +0.000 OA
ATOM     26  C   UNL     1       0.976   9.177  22.570  0.00  0.00    +0.000 C 
ENDBRANCH  18  25
ENDBRANCH  13  17
ENDBRANCH   1  13
BRANCH   3  27
ATOM     27  C   UNL     1       0.704   2.977  19.371  0.00  0.00    +0.000 C 
BRANCH  27  28
ATOM     28  O   UNL     1       0.325   1.958  18.448  0.00  0.00    +0.000 OA
ATOM     29  H   UNL     1      -0.018   2.426  17.663  0.00  0.00    +0.000 HD
ENDBRANCH  27  28
ENDBRANCH   3  27
TORSDOF 11
ENDMDL
MODEL 4
REMARK VINA RESULT:      -6.7      1.946      3.408
REMARK  Name = 
REMARK  13 active torsions:
REMARK  status: ('A' for Active; 'I' for Inactive)
REMARK    1  A    between atoms: C_1  and  O_2
REMARK    2  A    between atoms: O_2  and  C_3
REMARK    3  A    between atoms: C_3  and  C_4
REMARK    4  A    between atoms: C_5  and  C_6
REMARK    5  A    between atoms: C_9  and  O_10
REMARK    6  A    between atoms: O_10  and  C_11
REMARK    7  A    between atoms: C_13  and  C_14
REMARK    8  A    between atoms: C_14  and  O_15
REMARK    9  A    between atoms: C_16  and  O_17
REMARK   10  A    between atoms: C_18  and  O_19
REMARK   11  A    between atoms: C_20  and  O_21
REMARK   12  A    between atoms: C_22  and  O_23
REMARK   13  A    between atoms: O_23  and  C_24
REMARK                            x       y       z     vdW  Elec       q    Type
REMARK                         _______ _______ _______ _____ _____    ______ ____
ROOT
ATOM      1  C   UNL     1       5.914   4.191  15.105  0.00  0.00    +0.000 C 
ATOM      2  O   UNL     1       5.794   3.161  14.118  0.00  0.00    +0.000 OA
ATOM      3  C   UNL     1       5.914   3.641  12.774  0.00  0.00    +0.000 C 
ATOM      4  C   UNL     1       7.294   4.264  12.541  0.00  0.00    +0.000 C 
ATOM      5  C   UNL     1       7.532   5.378  13.573  0.00  0.00    +0.000 C 
ATOM      6  C   UNL     1       7.295   4.886  15.010  0.00  0.00    +0.000 C 
ENDROOT
BRANCH   4   7
ATOM      7  O   UNL     1       7.354   4.784  11.207  0.00  0.00    +0.000 OA
ATOM      8  H   UNL     1       7.134   5.732  11.227  0.00  0.00    +0.000 HD
ENDBRANCH   4   7
BRANCH   5   9
ATOM      9  O   UNL     1       8.848   5.920  13.405  0.00  0.00    +0.000 OA
ATOM     10  H   UNL     1       9.043   6.491  14.171  0.00  0.00    +0.000 HD
ENDBRANCH   5   9
BRANCH   6  11
ATOM     11  O   UNL     1       7.399   5.997  15.918  0.00  0.00    +0.000 OA
ATOM     12  H   UNL     1       6.624   6.003  16.505  0.00  0.00    +0.000 HD
ENDBRANCH   6  11
BRANCH   1  13
ATOM     13  O   UNL     1       5.788   3.642  16.422  0.00  0.00    +0.000 OA
BRANCH  13  17
ATOM     14  C   UNL     1       3.139   5.516  19.067  0.00  0.00    +0.000 A 
ATOM     15  C   UNL     1       2.654   4.978  17.876  0.00  0.00    +0.000 A 
ATOM     16  C   UNL     1       3.520   4.345  16.978  0.00  0.00    +0.000 A 
ATOM     17  C   UNL     1       4.882   4.237  17.265  0.00  0.00    +0.000 A 
ATOM     18  C   UNL     1       5.386   4.781  18.460  0.00  0.00    +0.000 A 
ATOM     19  C   UNL     1       4.506   5.411  19.354  0.00  0.00    +0.000 A 
BRANCH  14  21
ATOM     20  C   UNL     1       2.051   7.426  20.232  0.00  0.00    +0.000 C 
ATOM     21  C   UNL     1       2.186   6.108  20.017  0.00  0.00    +0.000 C 
BRANCH  20  22
ATOM     22  C   UNL     1       1.104   8.016  21.225  0.00  0.00    +0.000 C 
BRANCH  22  24
ATOM     23  C   UNL     1       1.086   9.439  19.356  0.00  0.00    +0.000 C 
ATOM     24  O   UNL     1       0.631   9.246  20.688  0.00  0.00    +0.000 OA
ENDBRANCH  22  24
ENDBRANCH  20  22
ENDBRANCH  14  21
BRANCH  18  25
ATOM     25  O   UNL     1       6.736   4.646  18.682  0.00  0.00    +0.000 OA
ATOM     26  C   UNL     1       7.385   5.685  19.405  0.00  0.00    +0.000 C 
ENDBRANCH  18  25
ENDBRANCH  13  17
ENDBRANCH   1  13
BRANCH   3  27
ATOM     27  C   UNL     1       5.653   2.460  11.828  0.00  0.00    +0.000 C 
BRANCH  27  28
ATOM     28  O   UNL     1       6.870   1.797  11.489  0.00  0.00    +0.000 OA
ATOM     29  H   UNL     1       6.817   0.917  11.909  0.00  0.00    +0.000 HD
ENDBRANCH  27  28
ENDBRANCH   3  27
TORSDOF 11
ENDMDL
MODEL 5
REMARK VINA RESULT:      -6.6      0.995      1.196
REMARK  Name = 
REMARK  13 active torsions:
REMARK  status: ('A' for Active; 'I' for Inactive)
REMARK    1  A    between atoms: C_1  and  O_2
REMARK    2  A    between atoms: O_2  and  C_3
REMARK    3  A    between atoms: C_3  and  C_4
REMARK    4  A    between atoms: C_5  and  C_6
REMARK    5  A    between atoms: C_9  and  O_10
REMARK    6  A    between atoms: O_10  and  C_11
REMARK    7  A    between atoms: C_13  and  C_14
REMARK    8  A    between atoms: C_14  and  O_15
REMARK    9  A    between atoms: C_16  and  O_17
REMARK   10  A    between atoms: C_18  and  O_19
REMARK   11  A    between atoms: C_20  and  O_21
REMARK   12  A    between atoms: C_22  and  O_23
REMARK   13  A    between atoms: O_23  and  C_24
REMARK                            x       y       z     vdW  Elec       q    Type
REMARK                         _______ _______ _______ _____ _____    ______ ____
ROOT
ATOM      1  C   UNL     1       4.803   5.356  17.744  0.00  0.00    +0.000 C 
ATOM      2  O   UNL     1       4.555   4.841  16.432  0.00  0.00    +0.000 OA
ATOM      3  C   UNL     1       5.640   5.051  15.521  0.00  0.00    +0.000 C 
ATOM      4  C   UNL     1       6.903   4.332  16.005  0.00  0.00    +0.000 C 
ATOM      5  C   UNL     1       7.246   4.803  17.428  0.00  0.00    +0.000 C 
ATOM      6  C   UNL     1       6.043   4.677  18.376  0.00  0.00    +0.000 C 
ENDROOT
BRANCH   4   7
ATOM      7  O   UNL     1       7.979   4.614  15.102  0.00  0.00    +0.000 OA
ATOM      8  H   UNL     1       7.691   4.413  14.194  0.00  0.00    +0.000 HD
ENDBRANCH   4   7
BRANCH   5   9
ATOM      9  O   UNL     1       8.387   4.085  17.914  0.00  0.00    +0.000 OA
ATOM     10  H   UNL     1       8.815   3.645  17.157  0.00  0.00    +0.000 HD
ENDBRANCH   5   9
BRANCH   6  11
ATOM     11  O   UNL     1       6.378   5.255  19.651  0.00  0.00    +0.000 OA
ATOM     12  H   UNL     1       6.715   6.157  19.513  0.00  0.00    +0.000 HD
ENDBRANCH   6  11
BRANCH   1  13
ATOM     13  O   UNL     1       3.682   5.109  18.600  0.00  0.00    +0.000 OA
BRANCH  13  17
ATOM     14  C   UNL     1       1.381   8.359  19.890  0.00  0.00    +0.000 A 
ATOM     15  C   UNL     1       2.074   8.444  18.683  0.00  0.00    +0.000 A 
ATOM     16  C   UNL     1       2.847   7.370  18.231  0.00  0.00    +0.000 A 
ATOM     17  C   UNL     1       2.931   6.193  18.978  0.00  0.00    +0.000 A 
ATOM     18  C   UNL     1       2.242   6.096  20.200  0.00  0.00    +0.000 A 
ATOM     19  C   UNL     1       1.467   7.181  20.642  0.00  0.00    +0.000 A 
BRANCH  14  21
ATOM     20  C   UNL     1       0.811  10.774  20.076  0.00  0.00    +0.000 C 
ATOM     21  C   UNL     1       0.522   9.482  20.294  0.00  0.00    +0.000 C 
BRANCH  20  22
ATOM     22  C   UNL     1      -0.052  11.908  20.521  0.00  0.00    +0.000 C 
BRANCH  22  24
ATOM     23  C   UNL     1      -0.182  13.589  22.157  0.00  0.00    +0.000 C 
ATOM     24  O   UNL     1       0.618  12.558  21.597  0.00  0.00    +0.000 OA
ENDBRANCH  22  24
ENDBRANCH  20  22
ENDBRANCH  14  21
BRANCH  18  25
ATOM     25  O   UNL     1       2.367   4.915  20.892  0.00  0.00    +0.000 OA
ATOM     26  C   UNL     1       1.319   3.963  20.755  0.00  0.00    +0.000 C 
ENDBRANCH  18  25
ENDBRANCH  13  17
ENDBRANCH   1  13
BRANCH   3  27
ATOM     27  C   UNL     1       5.196   4.557  14.137  0.00  0.00    +0.000 C 
BRANCH  27  28
ATOM     28  O   UNL     1       5.974   3.436  13.720  0.00  0.00    +0.000 OA
ATOM     29  H   UNL     1       5.923   2.792  14.453  0.00  0.00    +0.000 HD
ENDBRANCH  27  28
ENDBRANCH   3  27
TORSDOF 11
ENDMDL
MODEL 6
REMARK VINA RESULT:      -6.6      3.494      6.702
REMARK  Name = 
REMARK  13 active torsions:
REMARK  status: ('A' for Active; 'I' for Inactive)
REMARK    1  A    between atoms: C_1  and  O_2
REMARK    2  A    between atoms: O_2  and  C_3
REMARK    3  A    between atoms: C_3  and  C_4
REMARK    4  A    between atoms: C_5  and  C_6
REMARK    5  A    between atoms: C_9  and  O_10
REMARK    6  A    between atoms: O_10  and  C_11
REMARK    7  A    between atoms: C_13  and  C_14
REMARK    8  A    between atoms: C_14  and  O_15
REMARK    9  A    between atoms: C_16  and  O_17
REMARK   10  A    between atoms: C_18  and  O_19
REMARK   11  A    between atoms: C_20  and  O_21
REMARK   12  A    between atoms: C_22  and  O_23
REMARK   13  A    between atoms: O_23  and  C_24
REMARK                            x       y       z     vdW  Elec       q    Type
REMARK                         _______ _______ _______ _____ _____    ______ ____
ROOT
ATOM      1  C   UNL     1       4.231   3.878  18.421  0.00  0.00    +0.000 C 
ATOM      2  O   UNL     1       3.819   4.703  19.516  0.00  0.00    +0.000 OA
ATOM      3  C   UNL     1       2.397   4.786  19.665  0.00  0.00    +0.000 C 
ATOM      4  C   UNL     1       1.800   3.405  19.954  0.00  0.00    +0.000 C 
ATOM      5  C   UNL     1       2.206   2.429  18.838  0.00  0.00    +0.000 C 
ATOM      6  C   UNL     1       3.726   2.425  18.607  0.00  0.00    +0.000 C 
ENDROOT
BRANCH   4   7
ATOM      7  O   UNL     1       0.374   3.519  20.037  0.00  0.00    +0.000 OA
ATOM      8  H   UNL     1       0.033   3.853  19.189  0.00  0.00    +0.000 HD
ENDBRANCH   4   7
BRANCH   5   9
ATOM      9  O   UNL     1       1.708   1.118  19.135  0.00  0.00    +0.000 OA
ATOM     10  H   UNL     1       0.904   0.970  18.604  0.00  0.00    +0.000 HD
ENDBRANCH   5   9
BRANCH   6  11
ATOM     11  O   UNL     1       4.033   1.602  17.468  0.00  0.00    +0.000 OA
ATOM     12  H   UNL     1       4.779   1.019  17.687  0.00  0.00    +0.000 HD
ENDBRANCH   6  11
BRANCH   1  13
ATOM     13  O   UNL     1       5.660   3.837  18.333  0.00  0.00    +0.000 OA
BRANCH  13  17
ATOM     14  C   UNL     1       7.556   7.536  17.832  0.00  0.00    +0.000 A 
ATOM     15  C   UNL     1       7.855   6.756  18.949  0.00  0.00    +0.000 A 
ATOM     16  C   UNL     1       7.236   5.516  19.136  0.00  0.00    +0.000 A 
ATOM     17  C   UNL     1       6.314   5.037  18.203  0.00  0.00    +0.000 A 
ATOM     18  C   UNL     1       5.998   5.816  17.076  0.00  0.00    +0.000 A 
ATOM     19  C   UNL     1       6.629   7.057  16.898  0.00  0.00    +0.000 A 
BRANCH  14  21
ATOM     20  C   UNL     1       8.793   9.542  18.629  0.00  0.00    +0.000 C 
ATOM     21  C   UNL     1       8.282   8.799  17.634  0.00  0.00    +0.000 C 
BRANCH  20  22
ATOM     22  C   UNL     1       9.499  10.841  18.419  0.00  0.00    +0.000 C 
BRANCH  22  24
ATOM     23  C   UNL     1       9.332  12.155  20.360  0.00  0.00    +0.000 C 
ATOM     24  O   UNL     1      10.111  11.200  19.654  0.00  0.00    +0.000 OA
ENDBRANCH  22  24
ENDBRANCH  20  22
ENDBRANCH  14  21
BRANCH  18  25
ATOM     25  O   UNL     1       5.080   5.292  16.197  0.00  0.00    +0.000 OA
ATOM     26  C   UNL     1       5.577   4.750  14.979  0.00  0.00    +0.000 C 
ENDBRANCH  18  25
ENDBRANCH  13  17
ENDBRANCH   1  13
BRANCH   3  27
ATOM     27  C   UNL     1       2.099   5.785  20.792  0.00  0.00    +0.000 C 
BRANCH  27  28
ATOM     28  O   UNL     1       2.289   7.127  20.349  0.00  0.00    +0.000 OA
ATOM     29  H   UNL     1       1.419   7.561  20.438  0.00  0.00    +0.000 HD
ENDBRANCH  27  28
ENDBRANCH   3  27
TORSDOF 11
ENDMDL
MODEL 7
REMARK VINA RESULT:      -6.6      2.954      5.137
REMARK  Name = 
REMARK  13 active torsions:
REMARK  status: ('A' for Active; 'I' for Inactive)
REMARK    1  A    between atoms: C_1  and  O_2
REMARK    2  A    between atoms: O_2  and  C_3
REMARK    3  A    between atoms: C_3  and  C_4
REMARK    4  A    between atoms: C_5  and  C_6
REMARK    5  A    between atoms: C_9  and  O_10
REMARK    6  A    between atoms: O_10  and  C_11
REMARK    7  A    between atoms: C_13  and  C_14
REMARK    8  A    between atoms: C_14  and  O_15
REMARK    9  A    between atoms: C_16  and  O_17
REMARK   10  A    between atoms: C_18  and  O_19
REMARK   11  A    between atoms: C_20  and  O_21
REMARK   12  A    between atoms: C_22  and  O_23
REMARK   13  A    between atoms: O_23  and  C_24
REMARK                            x       y       z     vdW  Elec       q    Type
REMARK                         _______ _______ _______ _____ _____    ______ ____
ROOT
ATOM      1  C   UNL     1       2.785   5.977  19.469  0.00  0.00    +0.000 C 
ATOM      2  O   UNL     1       2.136   5.128  20.422  0.00  0.00    +0.000 OA
ATOM      3  C   UNL     1       2.053   3.760  20.005  0.00  0.00    +0.000 C 
ATOM      4  C   UNL     1       3.452   3.163  19.819  0.00  0.00    +0.000 C 
ATOM      5  C   UNL     1       4.246   4.022  18.822  0.00  0.00    +0.000 C 
ATOM      6  C   UNL     1       4.239   5.508  19.216  0.00  0.00    +0.000 C 
ENDROOT
BRANCH   4   7
ATOM      7  O   UNL     1       3.328   1.816  19.347  0.00  0.00    +0.000 OA
ATOM      8  H   UNL     1       2.632   1.365  19.857  0.00  0.00    +0.000 HD
ENDBRANCH   4   7
BRANCH   5   9
ATOM      9  O   UNL     1       5.578   3.509  18.694  0.00  0.00    +0.000 OA
ATOM     10  H   UNL     1       5.584   2.591  19.024  0.00  0.00    +0.000 HD
ENDBRANCH   5   9
BRANCH   6  11
ATOM     11  O   UNL     1       4.877   6.278  18.181  0.00  0.00    +0.000 OA
ATOM     12  H   UNL     1       5.452   6.947  18.589  0.00  0.00    +0.000 HD
ENDBRANCH   6  11
BRANCH   1  13
ATOM     13  O   UNL     1       2.836   7.325  19.951  0.00  0.00    +0.000 OA
BRANCH  13  17
ATOM     14  C   UNL     1      -0.074  10.032  18.636  0.00  0.00    +0.000 A 
ATOM     15  C   UNL     1       0.779   9.436  17.709  0.00  0.00    +0.000 A 
ATOM     16  C   UNL     1       1.757   8.526  18.124  0.00  0.00    +0.000 A 
ATOM     17  C   UNL     1       1.889   8.197  19.474  0.00  0.00    +0.000 A 
ATOM     18  C   UNL     1       1.040   8.795  20.422  0.00  0.00    +0.000 A 
ATOM     19  C   UNL     1       0.060   9.705  19.992  0.00  0.00    +0.000 A 
BRANCH  14  21
ATOM     20  C   UNL     1      -2.409  10.551  17.954  0.00  0.00    +0.000 C 
ATOM     21  C   UNL     1      -1.135  10.926  18.152  0.00  0.00    +0.000 C 
BRANCH  20  22
ATOM     22  C   UNL     1      -3.472  11.458  17.427  0.00  0.00    +0.000 C 
BRANCH  22  24
ATOM     23  C   UNL     1      -5.681  11.072  18.129  0.00  0.00    +0.000 C 
ATOM     24  O   UNL     1      -4.427  11.647  18.467  0.00  0.00    +0.000 OA
ENDBRANCH  22  24
ENDBRANCH  20  22
ENDBRANCH  14  21
BRANCH  18  25
ATOM     25  O   UNL     1       1.223   8.434  21.736  0.00  0.00    +0.000 OA
ATOM     26  C   UNL     1       0.721   9.316  22.732  0.00  0.00    +0.000 C 
ENDBRANCH  18  25
ENDBRANCH  13  17
ENDBRANCH   1  13
BRANCH   3  27
ATOM     27  C   UNL     1       1.241   2.995  21.060  0.00  0.00    +0.000 C 
BRANCH  27  28
ATOM     28  O   UNL     1       2.096   2.413  22.042  0.00  0.00    +0.000 OA
ATOM     29  H   UNL     1       1.644   1.600  22.337  0.00  0.00    +0.000 HD
ENDBRANCH  27  28
ENDBRANCH   3  27
TORSDOF 11
ENDMDL
MODEL 8
REMARK VINA RESULT:      -6.5      4.056      8.995
REMARK  Name = 
REMARK  13 active torsions:
REMARK  status: ('A' for Active; 'I' for Inactive)
REMARK    1  A    between atoms: C_1  and  O_2
REMARK    2  A    between atoms: O_2  and  C_3
REMARK    3  A    between atoms: C_3  and  C_4
REMARK    4  A    between atoms: C_5  and  C_6
REMARK    5  A    between atoms: C_9  and  O_10
REMARK    6  A    between atoms: O_10  and  C_11
REMARK    7  A    between atoms: C_13  and  C_14
REMARK    8  A    between atoms: C_14  and  O_15
REMARK    9  A    between atoms: C_16  and  O_17
REMARK   10  A    between atoms: C_18  and  O_19
REMARK   11  A    between atoms: C_20  and  O_21
REMARK   12  A    between atoms: C_22  and  O_23
REMARK   13  A    between atoms: O_23  and  C_24
REMARK                            x       y       z     vdW  Elec       q    Type
REMARK                         _______ _______ _______ _____ _____    ______ ____
ROOT
ATOM      1  C   UNL     1      -1.310  10.581  18.352  0.00  0.00    +0.000 C 
ATOM      2  O   UNL     1      -1.509  10.568  16.935  0.00  0.00    +0.000 OA
ATOM      3  C   UNL     1      -2.877  10.385  16.552  0.00  0.00    +0.000 C 
ATOM      4  C   UNL     1      -3.745  11.536  17.071  0.00  0.00    +0.000 C 
ATOM      5  C   UNL     1      -3.584  11.650  18.595  0.00  0.00    +0.000 C 
ATOM      6  C   UNL     1      -2.106  11.736  19.009  0.00  0.00    +0.000 C 
ENDROOT
BRANCH   4   7
ATOM      7  O   UNL     1      -5.112  11.289  16.719  0.00  0.00    +0.000 OA
ATOM      8  H   UNL     1      -5.536  10.785  17.436  0.00  0.00    +0.000 HD
ENDBRANCH   4   7
BRANCH   5   9
ATOM      9  O   UNL     1      -4.340  12.768  19.080  0.00  0.00    +0.000 OA
ATOM     10  H   UNL     1      -5.287  12.547  19.011  0.00  0.00    +0.000 HD
ENDBRANCH   5   9
BRANCH   6  11
ATOM     11  O   UNL     1      -2.010  11.704  20.445  0.00  0.00    +0.000 OA
ATOM     12  H   UNL     1      -1.120  11.408  20.698  0.00  0.00    +0.000 HD
ENDBRANCH   6  11
BRANCH   1  13
ATOM     13  O   UNL     1       0.075  10.770  18.663  0.00  0.00    +0.000 OA
BRANCH  13  17
ATOM     14  C   UNL     1       2.376   7.312  19.185  0.00  0.00    +0.000 A 
ATOM     15  C   UNL     1       2.246   7.865  17.912  0.00  0.00    +0.000 A 
ATOM     16  C   UNL     1       1.485   9.022  17.714  0.00  0.00    +0.000 A 
ATOM     17  C   UNL     1       0.849   9.643  18.790  0.00  0.00    +0.000 A 
ATOM     18  C   UNL     1       0.966   9.093  20.078  0.00  0.00    +0.000 A 
ATOM     19  C   UNL     1       1.736   7.933  20.264  0.00  0.00    +0.000 A 
BRANCH  14  21
ATOM     20  C   UNL     1       2.797   4.884  19.530  0.00  0.00    +0.000 C 
ATOM     21  C   UNL     1       3.245   6.139  19.363  0.00  0.00    +0.000 C 
BRANCH  20  22
ATOM     22  C   UNL     1       3.687   3.705  19.745  0.00  0.00    +0.000 C 
BRANCH  22  24
ATOM     23  C   UNL     1       2.914   2.466  17.905  0.00  0.00    +0.000 C 
ATOM     24  O   UNL     1       4.011   3.173  18.465  0.00  0.00    +0.000 OA
ENDBRANCH  22  24
ENDBRANCH  20  22
ENDBRANCH  14  21
BRANCH  18  25
ATOM     25  O   UNL     1       0.313   9.748  21.095  0.00  0.00    +0.000 OA
ATOM     26  C   UNL     1      -0.377   8.950  22.050  0.00  0.00    +0.000 C 
ENDBRANCH  18  25
ENDBRANCH  13  17
ENDBRANCH   1  13
BRANCH   3  27
ATOM     27  C   UNL     1      -2.927  10.277  15.021  0.00  0.00    +0.000 C 
BRANCH  27  28
ATOM     28  O   UNL     1      -4.227   9.891  14.578  0.00  0.00    +0.000 OA
ATOM     29  H   UNL     1      -4.087   9.404  13.743  0.00  0.00    +0.000 HD
ENDBRANCH  27  28
ENDBRANCH   3  27
TORSDOF 11
ENDMDL
MODEL 9
REMARK VINA RESULT:      -6.5      3.981      8.880
REMARK  Name = 
REMARK  13 active torsions:
REMARK  status: ('A' for Active; 'I' for Inactive)
REMARK    1  A    between atoms: C_1  and  O_2
REMARK    2  A    between atoms: O_2  and  C_3
REMARK    3  A    between atoms: C_3  and  C_4
REMARK    4  A    between atoms: C_5  and  C_6
REMARK    5  A    between atoms: C_9  and  O_10
REMARK    6  A    between atoms: O_10  and  C_11
REMARK    7  A    between atoms: C_13  and  C_14
REMARK    8  A    between atoms: C_14  and  O_15
REMARK    9  A    between atoms: C_16  and  O_17
REMARK   10  A    between atoms: C_18  and  O_19
REMARK   11  A    between atoms: C_20  and  O_21
REMARK   12  A    between atoms: C_22  and  O_23
REMARK   13  A    between atoms: O_23  and  C_24
REMARK                            x       y       z     vdW  Elec       q    Type
REMARK                         _______ _______ _______ _____ _____    ______ ____
ROOT
ATOM      1  C   UNL     1      -1.172  10.479  18.310  0.00  0.00    +0.000 C 
ATOM      2  O   UNL     1      -1.392  10.478  16.896  0.00  0.00    +0.000 OA
ATOM      3  C   UNL     1      -2.764  10.289  16.532  0.00  0.00    +0.000 C 
ATOM      4  C   UNL     1      -3.633  11.428  17.075  0.00  0.00    +0.000 C 
ATOM      5  C   UNL     1      -3.449  11.528  18.598  0.00  0.00    +0.000 C 
ATOM      6  C   UNL     1      -1.966  11.621  18.990  0.00  0.00    +0.000 C 
ENDROOT
BRANCH   4   7
ATOM      7  O   UNL     1      -5.003  11.173  16.742  0.00  0.00    +0.000 OA
ATOM      8  H   UNL     1      -5.476  10.888  17.545  0.00  0.00    +0.000 HD
ENDBRANCH   4   7
BRANCH   5   9
ATOM      9  O   UNL     1      -4.206  12.635  19.105  0.00  0.00    +0.000 OA
ATOM     10  H   UNL     1      -3.619  13.174  19.666  0.00  0.00    +0.000 HD
ENDBRANCH   5   9
BRANCH   6  11
ATOM     11  O   UNL     1      -1.848  11.575  20.424  0.00  0.00    +0.000 OA
ATOM     12  H   UNL     1      -1.307  10.808  20.675  0.00  0.00    +0.000 HD
ENDBRANCH   6  11
BRANCH   1  13
ATOM     13  O   UNL     1       0.217  10.675  18.601  0.00  0.00    +0.000 OA
BRANCH  13  17
ATOM     14  C   UNL     1       2.472   7.231  19.362  0.00  0.00    +0.000 A 
ATOM     15  C   UNL     1       2.454   7.771  18.076  0.00  0.00    +0.000 A 
ATOM     16  C   UNL     1       1.710   8.923  17.799  0.00  0.00    +0.000 A 
ATOM     17  C   UNL     1       0.979   9.553  18.808  0.00  0.00    +0.000 A 
ATOM     18  C   UNL     1       0.983   9.016  20.108  0.00  0.00    +0.000 A 
ATOM     19  C   UNL     1       1.737   7.862  20.374  0.00  0.00    +0.000 A 
BRANCH  14  21
ATOM     20  C   UNL     1       4.286   5.623  18.802  0.00  0.00    +0.000 C 
ATOM     21  C   UNL     1       3.324   6.064  19.629  0.00  0.00    +0.000 C 
BRANCH  20  22
ATOM     22  C   UNL     1       5.122   4.415  19.066  0.00  0.00    +0.000 C 
BRANCH  22  24
ATOM     23  C   UNL     1       7.121   5.648  19.140  0.00  0.00    +0.000 C 
ATOM     24  O   UNL     1       6.393   4.634  18.462  0.00  0.00    +0.000 OA
ENDBRANCH  22  24
ENDBRANCH  20  22
ENDBRANCH  14  21
BRANCH  18  25
ATOM     25  O   UNL     1       0.241   9.680  21.056  0.00  0.00    +0.000 OA
ATOM     26  C   UNL     1       0.538   9.415  22.422  0.00  0.00    +0.000 C 
ENDBRANCH  18  25
ENDBRANCH  13  17
ENDBRANCH   1  13
BRANCH   3  27
ATOM     27  C   UNL     1      -2.837  10.196  15.001  0.00  0.00    +0.000 C 
BRANCH  27  28
ATOM     28  O   UNL     1      -4.152   9.848  14.571  0.00  0.00    +0.000 OA
ATOM     29  H   UNL     1      -4.754  10.455  15.044  0.00  0.00    +0.000 HD
ENDBRANCH  27  28
ENDBRANCH   3  27
TORSDOF 11
ENDMDL
