MODEL 1
REMARK VINA RESULT:      -6.8      0.000      0.000
REMARK  Name = 
REMARK  15 active torsions:
REMARK  status: ('A' for Active; 'I' for Inactive)
REMARK    1  A    between atoms: C_1  and  C_2
REMARK    2  A    between atoms: C_2  and  O_3
REMARK    3  A    between atoms: O_3  and  C_4
REMARK    4  A    between atoms: C_4  and  C_6
REMARK    5  A    between atoms: C_7  and  C_8
REMARK    6  A    between atoms: N_12  and  C_13
REMARK    7  A    between atoms: C_13  and  C_14
REMARK    8  A    between atoms: C_14  and  C_15
REMARK    9  A    between atoms: C_15  and  O_17
REMARK   10  A    between atoms: O_17  and  C_18
REMARK   11  A    between atoms: C_18  and  C_19
REMARK   12  A    between atoms: C_19  and  O_20
REMARK   13  A    between atoms: O_20  and  C_21
REMARK   14  A    between atoms: C_22  and  C_23
REMARK   15  A    between atoms: C_27  and  N_28
REMARK                            x       y       z     vdW  Elec       q    Type
REMARK                         _______ _______ _______ _____ _____    ______ ____
ROOT
ATOM      1  C   UNL     1       3.133   3.402  19.709  0.00  0.00    +0.000 C 
ATOM      2  C   UNL     1       2.312   3.444  20.778  0.00  0.00    +0.000 C 
ATOM      3  C   UNL     1       2.075   2.365  21.804  0.00  0.00    +0.000 C 
ATOM      4  N   UNL     1       1.584   4.586  20.996  0.00  0.00    +0.000 N 
ATOM      5  C   UNL     1       1.757   5.789  20.379  0.00  0.00    +0.000 C 
ATOM      6  O   UNL     1       1.092   6.753  20.747  0.00  0.00    +0.000 OA
ATOM      7  N   UNL     1       2.770   5.846  19.439  0.00  0.00    +0.000 N 
ATOM      8  C   UNL     1       3.269   4.608  18.791  0.00  0.00    +0.000 C 
ATOM      9  H   UNL     1       0.929   4.621  21.768  0.00  0.00    +0.000 HD
ENDROOT
BRANCH   8  10
ATOM     10  C   UNL     1       4.688   4.773  18.249  0.00  0.00    +0.000 A 
ATOM     11  C   UNL     1       5.741   5.152  19.116  0.00  0.00    +0.000 A 
ATOM     12  C   UNL     1       7.024   5.370  18.620  0.00  0.00    +0.000 A 
ATOM     13  C   UNL     1       7.277   5.244  17.256  0.00  0.00    +0.000 A 
ATOM     14  C   UNL     1       6.236   4.882  16.390  0.00  0.00    +0.000 A 
ATOM     15  C   UNL     1       4.950   4.631  16.880  0.00  0.00    +0.000 A 
BRANCH  14  16
ATOM     16  N   UNL     1       6.481   4.796  14.946  0.00  0.00    +0.000 N 
ATOM     17  O   UNL     1       5.709   4.101  14.273  0.00  0.00    +0.000 OA
ATOM     18  O   UNL     1       7.453   5.415  14.489  0.00  0.00    +0.000 OA
ENDBRANCH  14  16
ENDBRANCH   8  10
BRANCH   1  19
ATOM     19  C   UNL     1       3.943   2.192  19.412  0.00  0.00    +0.000 C 
ATOM     20  O   UNL     1       3.753   1.439  18.471  0.00  0.00    +0.000 OA
BRANCH  19  21
ATOM     21  O   UNL     1       4.905   2.030  20.357  0.00  0.00    +0.000 OA
BRANCH  21  23
ATOM     22  C   UNL     1       5.864   0.608  22.014  0.00  0.00    +0.000 C 
ATOM     23  C   UNL     1       5.327   0.679  20.603  0.00  0.00    +0.000 C 
ENDBRANCH  21  23
ENDBRANCH  19  21
ENDBRANCH   1  19
BRANCH   7  24
ATOM     24  C   UNL     1       3.212   7.182  19.003  0.00  0.00    +0.000 C 
BRANCH  24  25
ATOM     25  C   UNL     1       2.573   7.695  17.724  0.00  0.00    +0.000 C 
BRANCH  25  26
ATOM     26  C   UNL     1       2.115   9.113  17.919  0.00  0.00    +0.000 C 
ATOM     27  O   UNL     1       2.708  10.118  17.563  0.00  0.00    +0.000 OA
BRANCH  26  28
ATOM     28  O   UNL     1       0.942   9.093  18.604  0.00  0.00    +0.000 OA
BRANCH  28  29
ATOM     29  C   UNL     1       0.272  10.351  18.582  0.00  0.00    +0.000 C 
BRANCH  29  30
ATOM     30  C   UNL     1      -1.234  10.197  18.507  0.00  0.00    +0.000 C 
BRANCH  30  31
ATOM     31  O   UNL     1      -1.568  10.025  17.131  0.00  0.00    +0.000 OA
ATOM     32  C   UNL     1      -2.507  10.985  16.683  0.00  0.00    +0.000 C 
ENDBRANCH  30  31
ENDBRANCH  29  30
ENDBRANCH  28  29
ENDBRANCH  26  28
ENDBRANCH  25  26
ENDBRANCH  24  25
ENDBRANCH   7  24
TORSDOF 12
ENDMDL
MODEL 2
REMARK VINA RESULT:      -6.7      1.203      1.636
REMARK  Name = 
REMARK  15 active torsions:
REMARK  status: ('A' for Active; 'I' for Inactive)
REMARK    1  A    between atoms: C_1  and  C_2
REMARK    2  A    between atoms: C_2  and  O_3
REMARK    3  A    between atoms: O_3  and  C_4
REMARK    4  A    between atoms: C_4  and  C_6
REMARK    5  A    between atoms: C_7  and  C_8
REMARK    6  A    between atoms: N_12  and  C_13
REMARK    7  A    between atoms: C_13  and  C_14
REMARK    8  A    between atoms: C_14  and  C_15
REMARK    9  A    between atoms: C_15  and  O_17
REMARK   10  A    between atoms: O_17  and  C_18
REMARK   11  A    between atoms: C_18  and  C_19
REMARK   12  A    between atoms: C_19  and  O_20
REMARK   13  A    between atoms: O_20  and  C_21
REMARK   14  A    between atoms: C_22  and  C_23
REMARK   15  A    between atoms: C_27  and  N_28
REMARK                            x       y       z     vdW  Elec       q    Type
REMARK                         _______ _______ _______ _____ _____    ______ ____
ROOT
ATOM      1  C   UNL     1       3.241   3.129  19.778  0.00  0.00    +0.000 C 
ATOM      2  C   UNL     1       2.411   3.135  20.841  0.00  0.00    +0.000 C 
ATOM      3  C   UNL     1       2.179   2.027  21.838  0.00  0.00    +0.000 C 
ATOM      4  N   UNL     1       1.668   4.262  21.082  0.00  0.00    +0.000 N 
ATOM      5  C   UNL     1       1.831   5.482  20.497  0.00  0.00    +0.000 C 
ATOM      6  O   UNL     1       1.151   6.428  20.883  0.00  0.00    +0.000 OA
ATOM      7  N   UNL     1       2.850   5.575  19.567  0.00  0.00    +0.000 N 
ATOM      8  C   UNL     1       3.368   4.360  18.892  0.00  0.00    +0.000 C 
ATOM      9  H   UNL     1       1.006   4.270  21.849  0.00  0.00    +0.000 HD
ENDROOT
BRANCH   8  10
ATOM     10  C   UNL     1       4.790   4.555  18.365  0.00  0.00    +0.000 A 
ATOM     11  C   UNL     1       5.823   4.966  19.242  0.00  0.00    +0.000 A 
ATOM     12  C   UNL     1       7.107   5.211  18.760  0.00  0.00    +0.000 A 
ATOM     13  C   UNL     1       7.379   5.083  17.400  0.00  0.00    +0.000 A 
ATOM     14  C   UNL     1       6.357   4.689  16.524  0.00  0.00    +0.000 A 
ATOM     15  C   UNL     1       5.072   4.411  17.001  0.00  0.00    +0.000 A 
BRANCH  14  16
ATOM     16  N   UNL     1       6.621   4.600  15.084  0.00  0.00    +0.000 N 
ATOM     17  O   UNL     1       7.597   5.219  14.640  0.00  0.00    +0.000 OA
ATOM     18  O   UNL     1       5.843   3.923  14.396  0.00  0.00    +0.000 OA
ENDBRANCH  14  16
ENDBRANCH   8  10
BRANCH   1  19
ATOM     19  C   UNL     1       4.067   1.937  19.457  0.00  0.00    +0.000 C 
ATOM     20  O   UNL     1       3.876   1.189  18.512  0.00  0.00    +0.000 OA
BRANCH  19  21
ATOM     21  O   UNL     1       5.048   1.784  20.385  0.00  0.00    +0.000 OA
BRANCH  21  23
ATOM     22  C   UNL     1       6.013   0.394  22.065  0.00  0.00    +0.000 C 
ATOM     23  C   UNL     1       5.447   0.433  20.664  0.00  0.00    +0.000 C 
ENDBRANCH  21  23
ENDBRANCH  19  21
ENDBRANCH   1  19
BRANCH   7  24
ATOM     24  C   UNL     1       3.278   6.926  19.168  0.00  0.00    +0.000 C 
BRANCH  24  25
ATOM     25  C   UNL     1       2.640   7.466  17.900  0.00  0.00    +0.000 C 
BRANCH  25  26
ATOM     26  C   UNL     1       2.031   8.813  18.171  0.00  0.00    +0.000 C 
ATOM     27  O   UNL     1       1.845   9.698  17.353  0.00  0.00    +0.000 OA
BRANCH  26  28
ATOM     28  O   UNL     1       1.762   8.901  19.500  0.00  0.00    +0.000 OA
BRANCH  28  29
ATOM     29  C   UNL     1       0.643   9.738  19.779  0.00  0.00    +0.000 C 
BRANCH  29  30
ATOM     30  C   UNL     1       0.894  10.656  20.959  0.00  0.00    +0.000 C 
BRANCH  30  31
ATOM     31  O   UNL     1      -0.328  11.343  21.220  0.00  0.00    +0.000 OA
ATOM     32  C   UNL     1      -0.903  10.962  22.457  0.00  0.00    +0.000 C 
ENDBRANCH  30  31
ENDBRANCH  29  30
ENDBRANCH  28  29
ENDBRANCH  26  28
ENDBRANCH  25  26
ENDBRANCH  24  25
ENDBRANCH   7  24
TORSDOF 12
ENDMDL
MODEL 3
REMARK VINA RESULT:      -6.6      1.262      2.200
REMARK  Name = 
REMARK  15 active torsions:
REMARK  status: ('A' for Active; 'I' for Inactive)
REMARK    1  A    between atoms: C_1  and  C_2
REMARK    2  A    between atoms: C_2  and  O_3
REMARK    3  A    between atoms: O_3  and  C_4
REMARK    4  A    between atoms: C_4  and  C_6
REMARK    5  A    between atoms: C_7  and  C_8
REMARK    6  A    between atoms: N_12  and  C_13
REMARK    7  A    between atoms: C_13  and  C_14
REMARK    8  A    between atoms: C_14  and  C_15
REMARK    9  A    between atoms: C_15  and  O_17
REMARK   10  A    between atoms: O_17  and  C_18
REMARK   11  A    between atoms: C_18  and  C_19
REMARK   12  A    between atoms: C_19  and  O_20
REMARK   13  A    between atoms: O_20  and  C_21
REMARK   14  A    between atoms: C_22  and  C_23
REMARK   15  A    between atoms: C_27  and  N_28
REMARK                            x       y       z     vdW  Elec       q    Type
REMARK                         _______ _______ _______ _____ _____    ______ ____
ROOT
ATOM      1  C   UNL     1       3.181   3.620  19.862  0.00  0.00    +0.000 C 
ATOM      2  C   UNL     1       2.372   3.682  20.938  0.00  0.00    +0.000 C 
ATOM      3  C   UNL     1       2.170   2.634  22.005  0.00  0.00    +0.000 C 
ATOM      4  N   UNL     1       1.620   4.814  21.125  0.00  0.00    +0.000 N 
ATOM      5  C   UNL     1       1.759   5.998  20.463  0.00  0.00    +0.000 C 
ATOM      6  O   UNL     1       1.075   6.959  20.804  0.00  0.00    +0.000 OA
ATOM      7  N   UNL     1       2.759   6.044  19.510  0.00  0.00    +0.000 N 
ATOM      8  C   UNL     1       3.279   4.795  18.901  0.00  0.00    +0.000 C 
ATOM      9  H   UNL     1       0.972   4.862  21.902  0.00  0.00    +0.000 HD
ENDROOT
BRANCH   8  10
ATOM     10  C   UNL     1       4.688   4.972  18.336  0.00  0.00    +0.000 A 
ATOM     11  C   UNL     1       5.744   5.396  19.179  0.00  0.00    +0.000 A 
ATOM     12  C   UNL     1       7.017   5.625  18.661  0.00  0.00    +0.000 A 
ATOM     13  C   UNL     1       7.256   5.466  17.298  0.00  0.00    +0.000 A 
ATOM     14  C   UNL     1       6.211   5.060  16.455  0.00  0.00    +0.000 A 
ATOM     15  C   UNL     1       4.937   4.797  16.968  0.00  0.00    +0.000 A 
BRANCH  14  16
ATOM     16  N   UNL     1       6.440   4.939  15.011  0.00  0.00    +0.000 N 
ATOM     17  O   UNL     1       7.527   5.332  14.568  0.00  0.00    +0.000 OA
ATOM     18  O   UNL     1       5.527   4.463  14.321  0.00  0.00    +0.000 OA
ENDBRANCH  14  16
ENDBRANCH   8  10
BRANCH   1  19
ATOM     19  C   UNL     1       4.015   2.418  19.599  0.00  0.00    +0.000 C 
ATOM     20  O   UNL     1       5.106   2.203  20.101  0.00  0.00    +0.000 OA
BRANCH  19  21
ATOM     21  O   UNL     1       3.400   1.610  18.697  0.00  0.00    +0.000 OA
BRANCH  21  23
ATOM     22  C   UNL     1       1.032   1.790  18.481  0.00  0.00    +0.000 C 
ATOM     23  C   UNL     1       2.364   2.217  17.909  0.00  0.00    +0.000 C 
ENDBRANCH  21  23
ENDBRANCH  19  21
ENDBRANCH   1  19
BRANCH   7  24
ATOM     24  C   UNL     1       3.165   7.372  19.021  0.00  0.00    +0.000 C 
BRANCH  24  25
ATOM     25  C   UNL     1       2.392   7.891  17.821  0.00  0.00    +0.000 C 
BRANCH  25  26
ATOM     26  C   UNL     1       1.991   9.321  18.056  0.00  0.00    +0.000 C 
ATOM     27  O   UNL     1       2.466  10.302  17.509  0.00  0.00    +0.000 OA
BRANCH  26  28
ATOM     28  O   UNL     1       1.033   9.344  19.020  0.00  0.00    +0.000 OA
BRANCH  28  29
ATOM     29  C   UNL     1       0.401  10.616  19.136  0.00  0.00    +0.000 C 
BRANCH  29  30
ATOM     30  C   UNL     1       0.628  11.247  20.495  0.00  0.00    +0.000 C 
BRANCH  30  31
ATOM     31  O   UNL     1       0.944  10.189  21.398  0.00  0.00    +0.000 OA
ATOM     32  C   UNL     1      -0.043  10.028  22.401  0.00  0.00    +0.000 C 
ENDBRANCH  30  31
ENDBRANCH  29  30
ENDBRANCH  28  29
ENDBRANCH  26  28
ENDBRANCH  25  26
ENDBRANCH  24  25
ENDBRANCH   7  24
TORSDOF 12
ENDMDL
MODEL 4
REMARK VINA RESULT:      -6.6      2.182      3.000
REMARK  Name = 
REMARK  15 active torsions:
REMARK  status: ('A' for Active; 'I' for Inactive)
REMARK    1  A    between atoms: C_1  and  C_2
REMARK    2  A    between atoms: C_2  and  O_3
REMARK    3  A    between atoms: O_3  and  C_4
REMARK    4  A    between atoms: C_4  and  C_6
REMARK    5  A    between atoms: C_7  and  C_8
REMARK    6  A    between atoms: N_12  and  C_13
REMARK    7  A    between atoms: C_13  and  C_14
REMARK    8  A    between atoms: C_14  and  C_15
REMARK    9  A    between atoms: C_15  and  O_17
REMARK   10  A    between atoms: O_17  and  C_18
REMARK   11  A    between atoms: C_18  and  C_19
REMARK   12  A    between atoms: C_19  and  O_20
REMARK   13  A    between atoms: O_20  and  C_21
REMARK   14  A    between atoms: C_22  and  C_23
REMARK   15  A    between atoms: C_27  and  N_28
REMARK                            x       y       z     vdW  Elec       q    Type
REMARK                         _______ _______ _______ _____ _____    ______ ____
ROOT
ATOM      1  C   UNL     1       3.000   4.413  19.643  0.00  0.00    +0.000 C 
ATOM      2  C   UNL     1       2.330   4.485  20.812  0.00  0.00    +0.000 C 
ATOM      3  C   UNL     1       2.269   3.450  21.908  0.00  0.00    +0.000 C 
ATOM      4  N   UNL     1       1.601   5.616  21.076  0.00  0.00    +0.000 N 
ATOM      5  C   UNL     1       1.649   6.792  20.389  0.00  0.00    +0.000 C 
ATOM      6  O   UNL     1       1.007   7.754  20.801  0.00  0.00    +0.000 OA
ATOM      7  N   UNL     1       2.523   6.831  19.318  0.00  0.00    +0.000 N 
ATOM      8  C   UNL     1       2.971   5.577  18.664  0.00  0.00    +0.000 C 
ATOM      9  H   UNL     1       1.055   5.671  21.928  0.00  0.00    +0.000 HD
ENDROOT
BRANCH   8  10
ATOM     10  C   UNL     1       4.298   5.754  17.926  0.00  0.00    +0.000 A 
ATOM     11  C   UNL     1       4.366   5.554  16.527  0.00  0.00    +0.000 A 
ATOM     12  C   UNL     1       5.582   5.648  15.855  0.00  0.00    +0.000 A 
ATOM     13  C   UNL     1       6.753   5.911  16.563  0.00  0.00    +0.000 A 
ATOM     14  C   UNL     1       6.695   6.096  17.951  0.00  0.00    +0.000 A 
ATOM     15  C   UNL     1       5.475   6.035  18.632  0.00  0.00    +0.000 A 
BRANCH  14  16
ATOM     16  N   UNL     1       7.929   6.323  18.712  0.00  0.00    +0.000 N 
ATOM     17  O   UNL     1       8.445   7.446  18.646  0.00  0.00    +0.000 OA
ATOM     18  O   UNL     1       8.386   5.373  19.363  0.00  0.00    +0.000 OA
ENDBRANCH  14  16
ENDBRANCH   8  10
BRANCH   1  19
ATOM     19  C   UNL     1       3.803   3.212  19.293  0.00  0.00    +0.000 C 
ATOM     20  O   UNL     1       4.869   2.913  19.804  0.00  0.00    +0.000 OA
BRANCH  19  21
ATOM     21  O   UNL     1       3.191   2.514  18.302  0.00  0.00    +0.000 OA
BRANCH  21  23
ATOM     22  C   UNL     1       0.835   2.235  18.555  0.00  0.00    +0.000 C 
ATOM     23  C   UNL     1       2.186   1.576  18.719  0.00  0.00    +0.000 C 
ENDBRANCH  21  23
ENDBRANCH  19  21
ENDBRANCH   1  19
BRANCH   7  24
ATOM     24  C   UNL     1       2.857   8.155  18.767  0.00  0.00    +0.000 C 
BRANCH  24  25
ATOM     25  C   UNL     1       1.950   8.646  17.652  0.00  0.00    +0.000 C 
BRANCH  25  26
ATOM     26  C   UNL     1       1.040   9.722  18.175  0.00  0.00    +0.000 C 
ATOM     27  O   UNL     1      -0.144   9.856  17.913  0.00  0.00    +0.000 OA
BRANCH  26  28
ATOM     28  O   UNL     1       1.770  10.555  18.961  0.00  0.00    +0.000 OA
BRANCH  28  29
ATOM     29  C   UNL     1       1.246  11.881  18.992  0.00  0.00    +0.000 C 
BRANCH  29  30
ATOM     30  C   UNL     1       1.390  12.523  20.357  0.00  0.00    +0.000 C 
BRANCH  30  31
ATOM     31  O   UNL     1       1.062  11.526  21.323  0.00  0.00    +0.000 OA
ATOM     32  C   UNL     1      -0.312  11.545  21.667  0.00  0.00    +0.000 C 
ENDBRANCH  30  31
ENDBRANCH  29  30
ENDBRANCH  28  29
ENDBRANCH  26  28
ENDBRANCH  25  26
ENDBRANCH  24  25
ENDBRANCH   7  24
TORSDOF 12
ENDMDL
MODEL 5
REMARK VINA RESULT:      -6.6      2.002      2.547
REMARK  Name = 
REMARK  15 active torsions:
REMARK  status: ('A' for Active; 'I' for Inactive)
REMARK    1  A    between atoms: C_1  and  C_2
REMARK    2  A    between atoms: C_2  and  O_3
REMARK    3  A    between atoms: O_3  and  C_4
REMARK    4  A    between atoms: C_4  and  C_6
REMARK    5  A    between atoms: C_7  and  C_8
REMARK    6  A    between atoms: N_12  and  C_13
REMARK    7  A    between atoms: C_13  and  C_14
REMARK    8  A    between atoms: C_14  and  C_15
REMARK    9  A    between atoms: C_15  and  O_17
REMARK   10  A    between atoms: O_17  and  C_18
REMARK   11  A    between atoms: C_18  and  C_19
REMARK   12  A    between atoms: C_19  and  O_20
REMARK   13  A    between atoms: O_20  and  C_21
REMARK   14  A    between atoms: C_22  and  C_23
REMARK   15  A    between atoms: C_27  and  N_28
REMARK                            x       y       z     vdW  Elec       q    Type
REMARK                         _______ _______ _______ _____ _____    ______ ____
ROOT
ATOM      1  C   UNL     1       3.036   4.264  19.702  0.00  0.00    +0.000 C 
ATOM      2  C   UNL     1       2.352   4.353  20.860  0.00  0.00    +0.000 C 
ATOM      3  C   UNL     1       2.271   3.332  21.968  0.00  0.00    +0.000 C 
ATOM      4  N   UNL     1       1.625   5.490  21.102  0.00  0.00    +0.000 N 
ATOM      5  C   UNL     1       1.688   6.658  20.401  0.00  0.00    +0.000 C 
ATOM      6  O   UNL     1       1.046   7.628  20.793  0.00  0.00    +0.000 OA
ATOM      7  N   UNL     1       2.576   6.679  19.342  0.00  0.00    +0.000 N 
ATOM      8  C   UNL     1       3.025   5.415  18.708  0.00  0.00    +0.000 C 
ATOM      9  H   UNL     1       1.068   5.558  21.946  0.00  0.00    +0.000 HD
ENDROOT
BRANCH   8  10
ATOM     10  C   UNL     1       4.363   5.576  17.986  0.00  0.00    +0.000 A 
ATOM     11  C   UNL     1       4.457   5.319  16.597  0.00  0.00    +0.000 A 
ATOM     12  C   UNL     1       5.684   5.398  15.942  0.00  0.00    +0.000 A 
ATOM     13  C   UNL     1       6.839   5.705  16.657  0.00  0.00    +0.000 A 
ATOM     14  C   UNL     1       6.755   5.948  18.036  0.00  0.00    +0.000 A 
ATOM     15  C   UNL     1       5.524   5.902  18.698  0.00  0.00    +0.000 A 
BRANCH  14  16
ATOM     16  N   UNL     1       7.973   6.222  18.806  0.00  0.00    +0.000 N 
ATOM     17  O   UNL     1       8.441   5.300  19.487  0.00  0.00    +0.000 OA
ATOM     18  O   UNL     1       8.452   7.363  18.739  0.00  0.00    +0.000 OA
ENDBRANCH  14  16
ENDBRANCH   8  10
BRANCH   1  19
ATOM     19  C   UNL     1       3.837   3.054  19.377  0.00  0.00    +0.000 C 
ATOM     20  O   UNL     1       5.017   2.906  19.649  0.00  0.00    +0.000 OA
BRANCH  19  21
ATOM     21  O   UNL     1       3.072   2.153  18.708  0.00  0.00    +0.000 OA
BRANCH  21  23
ATOM     22  C   UNL     1       0.687   2.106  18.706  0.00  0.00    +0.000 C 
ATOM     23  C   UNL     1       1.916   2.680  18.038  0.00  0.00    +0.000 C 
ENDBRANCH  21  23
ENDBRANCH  19  21
ENDBRANCH   1  19
BRANCH   7  24
ATOM     24  C   UNL     1       2.924   7.995  18.779  0.00  0.00    +0.000 C 
BRANCH  24  25
ATOM     25  C   UNL     1       2.027   8.482  17.654  0.00  0.00    +0.000 C 
BRANCH  25  26
ATOM     26  C   UNL     1       1.224   9.665  18.121  0.00  0.00    +0.000 C 
ATOM     27  O   UNL     1       1.641  10.606  18.776  0.00  0.00    +0.000 OA
BRANCH  26  28
ATOM     28  O   UNL     1      -0.064   9.489  17.728  0.00  0.00    +0.000 OA
BRANCH  28  29
ATOM     29  C   UNL     1      -0.929  10.518  18.204  0.00  0.00    +0.000 C 
BRANCH  29  30
ATOM     30  C   UNL     1      -2.326  10.406  17.626  0.00  0.00    +0.000 C 
BRANCH  30  31
ATOM     31  O   UNL     1      -2.180  10.147  16.231  0.00  0.00    +0.000 OA
ATOM     32  C   UNL     1      -3.158  10.817  15.456  0.00  0.00    +0.000 C 
ENDBRANCH  30  31
ENDBRANCH  29  30
ENDBRANCH  28  29
ENDBRANCH  26  28
ENDBRANCH  25  26
ENDBRANCH  24  25
ENDBRANCH   7  24
TORSDOF 12
ENDMDL
MODEL 6
REMARK VINA RESULT:      -6.5      1.266      1.691
REMARK  Name = 
REMARK  15 active torsions:
REMARK  status: ('A' for Active; 'I' for Inactive)
REMARK    1  A    between atoms: C_1  and  C_2
REMARK    2  A    between atoms: C_2  and  O_3
REMARK    3  A    between atoms: O_3  and  C_4
REMARK    4  A    between atoms: C_4  and  C_6
REMARK    5  A    between atoms: C_7  and  C_8
REMARK    6  A    between atoms: N_12  and  C_13
REMARK    7  A    between atoms: C_13  and  C_14
REMARK    8  A    between atoms: C_14  and  C_15
REMARK    9  A    between atoms: C_15  and  O_17
REMARK   10  A    between atoms: O_17  and  C_18
REMARK   11  A    between atoms: C_18  and  C_19
REMARK   12  A    between atoms: C_19  and  O_20
REMARK   13  A    between atoms: O_20  and  C_21
REMARK   14  A    between atoms: C_22  and  C_23
REMARK   15  A    between atoms: C_27  and  N_28
REMARK                            x       y       z     vdW  Elec       q    Type
REMARK                         _______ _______ _______ _____ _____    ______ ____
ROOT
ATOM      1  C   UNL     1       3.186   4.209  19.666  0.00  0.00    +0.000 C 
ATOM      2  C   UNL     1       2.461   4.365  20.792  0.00  0.00    +0.000 C 
ATOM      3  C   UNL     1       2.300   3.387  21.930  0.00  0.00    +0.000 C 
ATOM      4  N   UNL     1       1.770   5.536  20.966  0.00  0.00    +0.000 N 
ATOM      5  C   UNL     1       1.904   6.675  20.228  0.00  0.00    +0.000 C 
ATOM      6  O   UNL     1       1.284   7.681  20.561  0.00  0.00    +0.000 OA
ATOM      7  N   UNL     1       2.832   6.625  19.205  0.00  0.00    +0.000 N 
ATOM      8  C   UNL     1       3.257   5.324  18.633  0.00  0.00    +0.000 C 
ATOM      9  H   UNL     1       1.184   5.654  21.784  0.00  0.00    +0.000 HD
ENDROOT
BRANCH   8  10
ATOM     10  C   UNL     1       4.626   5.410  17.959  0.00  0.00    +0.000 A 
ATOM     11  C   UNL     1       5.739   5.918  18.672  0.00  0.00    +0.000 A 
ATOM     12  C   UNL     1       6.975   6.063  18.047  0.00  0.00    +0.000 A 
ATOM     13  C   UNL     1       7.121   5.735  16.701  0.00  0.00    +0.000 A 
ATOM     14  C   UNL     1       6.019   5.245  15.985  0.00  0.00    +0.000 A 
ATOM     15  C   UNL     1       4.781   5.066  16.610  0.00  0.00    +0.000 A 
BRANCH  14  16
ATOM     16  N   UNL     1       6.149   4.945  14.555  0.00  0.00    +0.000 N 
ATOM     17  O   UNL     1       5.258   4.267  14.027  0.00  0.00    +0.000 OA
ATOM     18  O   UNL     1       7.150   5.377  13.965  0.00  0.00    +0.000 OA
ENDBRANCH  14  16
ENDBRANCH   8  10
BRANCH   1  19
ATOM     19  C   UNL     1       3.952   2.960  19.414  0.00  0.00    +0.000 C 
ATOM     20  O   UNL     1       4.966   2.633  20.008  0.00  0.00    +0.000 OA
BRANCH  19  21
ATOM     21  O   UNL     1       3.376   2.253  18.408  0.00  0.00    +0.000 OA
BRANCH  21  23
ATOM     22  C   UNL     1       0.993   2.229  18.492  0.00  0.00    +0.000 C 
ATOM     23  C   UNL     1       2.250   1.439  18.773  0.00  0.00    +0.000 C 
ENDBRANCH  21  23
ENDBRANCH  19  21
ENDBRANCH   1  19
BRANCH   7  24
ATOM     24  C   UNL     1       3.250   7.907  18.611  0.00  0.00    +0.000 C 
BRANCH  24  25
ATOM     25  C   UNL     1       2.372   8.423  17.485  0.00  0.00    +0.000 C 
BRANCH  25  26
ATOM     26  C   UNL     1       1.799   9.761  17.861  0.00  0.00    +0.000 C 
ATOM     27  O   UNL     1       2.432  10.775  18.100  0.00  0.00    +0.000 OA
BRANCH  26  28
ATOM     28  O   UNL     1       0.447   9.642  17.935  0.00  0.00    +0.000 OA
BRANCH  28  29
ATOM     29  C   UNL     1      -0.124  10.483  18.932  0.00  0.00    +0.000 C 
BRANCH  29  30
ATOM     30  C   UNL     1      -1.019  11.553  18.337  0.00  0.00    +0.000 C 
BRANCH  30  31
ATOM     31  O   UNL     1      -2.312  11.382  18.913  0.00  0.00    +0.000 OA
ATOM     32  C   UNL     1      -3.322  11.237  17.930  0.00  0.00    +0.000 C 
ENDBRANCH  30  31
ENDBRANCH  29  30
ENDBRANCH  28  29
ENDBRANCH  26  28
ENDBRANCH  25  26
ENDBRANCH  24  25
ENDBRANCH   7  24
TORSDOF 12
ENDMDL
MODEL 7
REMARK VINA RESULT:      -6.5      3.108      6.503
REMARK  Name = 
REMARK  15 active torsions:
REMARK  status: ('A' for Active; 'I' for Inactive)
REMARK    1  A    between atoms: C_1  and  C_2
REMARK    2  A    between atoms: C_2  and  O_3
REMARK    3  A    between atoms: O_3  and  C_4
REMARK    4  A    between atoms: C_4  and  C_6
REMARK    5  A    between atoms: C_7  and  C_8
REMARK    6  A    between atoms: N_12  and  C_13
REMARK    7  A    between atoms: C_13  and  C_14
REMARK    8  A    between atoms: C_14  and  C_15
REMARK    9  A    between atoms: C_15  and  O_17
REMARK   10  A    between atoms: O_17  and  C_18
REMARK   11  A    between atoms: C_18  and  C_19
REMARK   12  A    between atoms: C_19  and  O_20
REMARK   13  A    between atoms: O_20  and  C_21
REMARK   14  A    between atoms: C_22  and  C_23
REMARK   15  A    between atoms: C_27  and  N_28
REMARK                            x       y       z     vdW  Elec       q    Type
REMARK                         _______ _______ _______ _____ _____    ______ ____
ROOT
ATOM      1  C   UNL     1       2.834   4.054  18.590  0.00  0.00    +0.000 C 
ATOM      2  C   UNL     1       3.549   3.072  18.004  0.00  0.00    +0.000 C 
ATOM      3  C   UNL     1       3.029   1.857  17.277  0.00  0.00    +0.000 C 
ATOM      4  N   UNL     1       4.918   3.145  18.052  0.00  0.00    +0.000 N 
ATOM      5  C   UNL     1       5.660   4.222  18.435  0.00  0.00    +0.000 C 
ATOM      6  O   UNL     1       6.883   4.174  18.336  0.00  0.00    +0.000 OA
ATOM      7  N   UNL     1       4.946   5.345  18.812  0.00  0.00    +0.000 N 
ATOM      8  C   UNL     1       3.535   5.228  19.256  0.00  0.00    +0.000 C 
ATOM      9  H   UNL     1       5.473   2.395  17.658  0.00  0.00    +0.000 HD
ENDROOT
BRANCH   8  10
ATOM     10  C   UNL     1       2.768   6.539  19.089  0.00  0.00    +0.000 A 
ATOM     11  C   UNL     1       2.766   7.208  17.842  0.00  0.00    +0.000 A 
ATOM     12  C   UNL     1       2.126   8.436  17.696  0.00  0.00    +0.000 A 
ATOM     13  C   UNL     1       1.503   9.033  18.789  0.00  0.00    +0.000 A 
ATOM     14  C   UNL     1       1.513   8.383  20.032  0.00  0.00    +0.000 A 
ATOM     15  C   UNL     1       2.126   7.135  20.182  0.00  0.00    +0.000 A 
BRANCH  14  16
ATOM     16  N   UNL     1       0.904   9.027  21.200  0.00  0.00    +0.000 N 
ATOM     17  O   UNL     1       0.052   8.387  21.830  0.00  0.00    +0.000 OA
ATOM     18  O   UNL     1       1.269  10.178  21.479  0.00  0.00    +0.000 OA
ENDBRANCH  14  16
ENDBRANCH   8  10
BRANCH   1  19
ATOM     19  C   UNL     1       1.348   4.030  18.580  0.00  0.00    +0.000 C 
ATOM     20  O   UNL     1       0.656   4.151  17.583  0.00  0.00    +0.000 OA
BRANCH  19  21
ATOM     21  O   UNL     1       0.874   3.882  19.844  0.00  0.00    +0.000 OA
BRANCH  21  23
ATOM     22  C   UNL     1       1.865   3.102  21.868  0.00  0.00    +0.000 C 
ATOM     23  C   UNL     1       1.281   2.691  20.536  0.00  0.00    +0.000 C 
ENDBRANCH  21  23
ENDBRANCH  19  21
ENDBRANCH   1  19
BRANCH   7  24
ATOM     24  C   UNL     1       5.685   6.616  18.903  0.00  0.00    +0.000 C 
BRANCH  24  25
ATOM     25  C   UNL     1       5.955   7.310  17.580  0.00  0.00    +0.000 C 
BRANCH  25  26
ATOM     26  C   UNL     1       7.410   7.180  17.225  0.00  0.00    +0.000 C 
ATOM     27  O   UNL     1       7.870   6.548  16.288  0.00  0.00    +0.000 OA
BRANCH  26  28
ATOM     28  O   UNL     1       8.139   7.850  18.155  0.00  0.00    +0.000 OA
BRANCH  28  29
ATOM     29  C   UNL     1       8.162   9.256  17.925  0.00  0.00    +0.000 C 
BRANCH  29  30
ATOM     30  C   UNL     1       9.055   9.984  18.911  0.00  0.00    +0.000 C 
BRANCH  30  31
ATOM     31  O   UNL     1       9.814  10.932  18.163  0.00  0.00    +0.000 OA
ATOM     32  C   UNL     1       9.915  12.180  18.826  0.00  0.00    +0.000 C 
ENDBRANCH  30  31
ENDBRANCH  29  30
ENDBRANCH  28  29
ENDBRANCH  26  28
ENDBRANCH  25  26
ENDBRANCH  24  25
ENDBRANCH   7  24
TORSDOF 12
ENDMDL
MODEL 8
REMARK VINA RESULT:      -6.5      1.829      2.388
REMARK  Name = 
REMARK  15 active torsions:
REMARK  status: ('A' for Active; 'I' for Inactive)
REMARK    1  A    between atoms: C_1  and  C_2
REMARK    2  A    between atoms: C_2  and  O_3
REMARK    3  A    between atoms: O_3  and  C_4
REMARK    4  A    between atoms: C_4  and  C_6
REMARK    5  A    between atoms: C_7  and  C_8
REMARK    6  A    between atoms: N_12  and  C_13
REMARK    7  A    between atoms: C_13  and  C_14
REMARK    8  A    between atoms: C_14  and  C_15
REMARK    9  A    between atoms: C_15  and  O_17
REMARK   10  A    between atoms: O_17  and  C_18
REMARK   11  A    between atoms: C_18  and  C_19
REMARK   12  A    between atoms: C_19  and  O_20
REMARK   13  A    between atoms: O_20  and  C_21
REMARK   14  A    between atoms: C_22  and  C_23
REMARK   15  A    between atoms: C_27  and  N_28
REMARK                            x       y       z     vdW  Elec       q    Type
REMARK                         _______ _______ _______ _____ _____    ______ ____
ROOT
ATOM      1  C   UNL     1       3.064   3.465  19.668  0.00  0.00    +0.000 C 
ATOM      2  C   UNL     1       2.350   3.498  20.811  0.00  0.00    +0.000 C 
ATOM      3  C   UNL     1       2.231   2.419  21.859  0.00  0.00    +0.000 C 
ATOM      4  N   UNL     1       1.627   4.628  21.096  0.00  0.00    +0.000 N 
ATOM      5  C   UNL     1       1.719   5.831  20.462  0.00  0.00    +0.000 C 
ATOM      6  O   UNL     1       1.076   6.785  20.890  0.00  0.00    +0.000 OA
ATOM      7  N   UNL     1       2.635   5.901  19.429  0.00  0.00    +0.000 N 
ATOM      8  C   UNL     1       3.090   4.669  18.739  0.00  0.00    +0.000 C 
ATOM      9  H   UNL     1       1.048   4.655  21.927  0.00  0.00    +0.000 HD
ENDROOT
BRANCH   8  10
ATOM     10  C   UNL     1       4.448   4.855  18.062  0.00  0.00    +0.000 A 
ATOM     11  C   UNL     1       4.637   4.441  16.722  0.00  0.00    +0.000 A 
ATOM     12  C   UNL     1       5.888   4.545  16.117  0.00  0.00    +0.000 A 
ATOM     13  C   UNL     1       6.975   5.033  16.838  0.00  0.00    +0.000 A 
ATOM     14  C   UNL     1       6.797   5.433  18.171  0.00  0.00    +0.000 A 
ATOM     15  C   UNL     1       5.540   5.362  18.779  0.00  0.00    +0.000 A 
BRANCH  14  16
ATOM     16  N   UNL     1       7.946   5.901  18.954  0.00  0.00    +0.000 N 
ATOM     17  O   UNL     1       8.338   7.059  18.763  0.00  0.00    +0.000 OA
ATOM     18  O   UNL     1       8.463   5.104  19.750  0.00  0.00    +0.000 OA
ENDBRANCH  14  16
ENDBRANCH   8  10
BRANCH   1  19
ATOM     19  C   UNL     1       3.862   2.267  19.298  0.00  0.00    +0.000 C 
ATOM     20  O   UNL     1       3.625   1.537  18.350  0.00  0.00    +0.000 OA
BRANCH  19  21
ATOM     21  O   UNL     1       4.875   2.087  20.185  0.00  0.00    +0.000 OA
BRANCH  21  23
ATOM     22  C   UNL     1       5.705   0.658  21.905  0.00  0.00    +0.000 C 
ATOM     23  C   UNL     1       5.228   0.724  20.472  0.00  0.00    +0.000 C 
ENDBRANCH  21  23
ENDBRANCH  19  21
ENDBRANCH   1  19
BRANCH   7  24
ATOM     24  C   UNL     1       3.010   7.242  18.949  0.00  0.00    +0.000 C 
BRANCH  24  25
ATOM     25  C   UNL     1       2.071   7.855  17.925  0.00  0.00    +0.000 C 
BRANCH  25  26
ATOM     26  C   UNL     1       1.999   9.343  18.128  0.00  0.00    +0.000 C 
ATOM     27  O   UNL     1       2.398  10.197  17.354  0.00  0.00    +0.000 OA
BRANCH  26  28
ATOM     28  O   UNL     1       1.452   9.582  19.348  0.00  0.00    +0.000 OA
BRANCH  28  29
ATOM     29  C   UNL     1       0.101  10.028  19.267  0.00  0.00    +0.000 C 
BRANCH  29  30
ATOM     30  C   UNL     1      -0.661   9.787  20.555  0.00  0.00    +0.000 C 
BRANCH  30  31
ATOM     31  O   UNL     1       0.151  10.280  21.618  0.00  0.00    +0.000 OA
ATOM     32  C   UNL     1      -0.588  11.065  22.537  0.00  0.00    +0.000 C 
ENDBRANCH  30  31
ENDBRANCH  29  30
ENDBRANCH  28  29
ENDBRANCH  26  28
ENDBRANCH  25  26
ENDBRANCH  24  25
ENDBRANCH   7  24
TORSDOF 12
ENDMDL
MODEL 9
REMARK VINA RESULT:      -6.5      1.371      2.117
REMARK  Name = 
REMARK  15 active torsions:
REMARK  status: ('A' for Active; 'I' for Inactive)
REMARK    1  A    between atoms: C_1  and  C_2
REMARK    2  A    between atoms: C_2  and  O_3
REMARK    3  A    between atoms: O_3  and  C_4
REMARK    4  A    between atoms: C_4  and  C_6
REMARK    5  A    between atoms: C_7  and  C_8
REMARK    6  A    between atoms: N_12  and  C_13
REMARK    7  A    between atoms: C_13  and  C_14
REMARK    8  A    between atoms: C_14  and  C_15
REMARK    9  A    between atoms: C_15  and  O_17
REMARK   10  A    between atoms: O_17  and  C_18
REMARK   11  A    between atoms: C_18  and  C_19
REMARK   12  A    between atoms: C_19  and  O_20
REMARK   13  A    between atoms: O_20  and  C_21
REMARK   14  A    between atoms: C_22  and  C_23
REMARK   15  A    between atoms: C_27  and  N_28
REMARK                            x       y       z     vdW  Elec       q    Type
REMARK                         _______ _______ _______ _____ _____    ______ ____
ROOT
ATOM      1  C   UNL     1       3.377   3.336  20.004  0.00  0.00    +0.000 C 
ATOM      2  C   UNL     1       2.491   3.346  21.020  0.00  0.00    +0.000 C 
ATOM      3  C   UNL     1       2.251   2.269  22.048  0.00  0.00    +0.000 C 
ATOM      4  N   UNL     1       1.688   4.447  21.174  0.00  0.00    +0.000 N 
ATOM      5  C   UNL     1       1.832   5.650  20.548  0.00  0.00    +0.000 C 
ATOM      6  O   UNL     1       1.092   6.579  20.858  0.00  0.00    +0.000 OA
ATOM      7  N   UNL     1       2.896   5.751  19.671  0.00  0.00    +0.000 N 
ATOM      8  C   UNL     1       3.502   4.535  19.076  0.00  0.00    +0.000 C 
ATOM      9  H   UNL     1       0.985   4.456  21.904  0.00  0.00    +0.000 HD
ENDROOT
BRANCH   8  10
ATOM     10  C   UNL     1       4.941   4.773  18.619  0.00  0.00    +0.000 A 
ATOM     11  C   UNL     1       5.899   5.286  19.525  0.00  0.00    +0.000 A 
ATOM     12  C   UNL     1       7.196   5.569  19.101  0.00  0.00    +0.000 A 
ATOM     13  C   UNL     1       7.553   5.377  17.769  0.00  0.00    +0.000 A 
ATOM     14  C   UNL     1       6.605   4.881  16.863  0.00  0.00    +0.000 A 
ATOM     15  C   UNL     1       5.309   4.564  17.283  0.00  0.00    +0.000 A 
BRANCH  14  16
ATOM     16  N   UNL     1       6.957   4.722  15.448  0.00  0.00    +0.000 N 
ATOM     17  O   UNL     1       6.430   3.791  14.826  0.00  0.00    +0.000 OA
ATOM     18  O   UNL     1       7.771   5.522  14.964  0.00  0.00    +0.000 OA
ENDBRANCH  14  16
ENDBRANCH   8  10
BRANCH   1  19
ATOM     19  C   UNL     1       4.270   2.170  19.778  0.00  0.00    +0.000 C 
ATOM     20  O   UNL     1       5.215   1.867  20.488  0.00  0.00    +0.000 OA
BRANCH  19  21
ATOM     21  O   UNL     1       3.900   1.508  18.652  0.00  0.00    +0.000 OA
BRANCH  21  23
ATOM     22  C   UNL     1       2.415   2.302  16.962  0.00  0.00    +0.000 C 
ATOM     23  C   UNL     1       2.511   1.596  18.296  0.00  0.00    +0.000 C 
ENDBRANCH  21  23
ENDBRANCH  19  21
ENDBRANCH   1  19
BRANCH   7  24
ATOM     24  C   UNL     1       3.288   7.104  19.240  0.00  0.00    +0.000 C 
BRANCH  24  25
ATOM     25  C   UNL     1       2.704   7.562  17.915  0.00  0.00    +0.000 C 
BRANCH  25  26
ATOM     26  C   UNL     1       2.018   8.887  18.093  0.00  0.00    +0.000 C 
ATOM     27  O   UNL     1       1.845   9.732  17.229  0.00  0.00    +0.000 OA
BRANCH  26  28
ATOM     28  O   UNL     1       1.660   9.012  19.397  0.00  0.00    +0.000 OA
BRANCH  28  29
ATOM     29  C   UNL     1       0.643   9.990  19.597  0.00  0.00    +0.000 C 
BRANCH  29  30
ATOM     30  C   UNL     1       0.222  10.091  21.050  0.00  0.00    +0.000 C 
BRANCH  30  31
ATOM     31  O   UNL     1       0.908  11.211  21.605  0.00  0.00    +0.000 OA
ATOM     32  C   UNL     1       0.671  12.401  20.876  0.00  0.00    +0.000 C 
ENDBRANCH  30  31
ENDBRANCH  29  30
ENDBRANCH  28  29
ENDBRANCH  26  28
ENDBRANCH  25  26
ENDBRANCH  24  25
ENDBRANCH   7  24
TORSDOF 12
ENDMDL
