MODEL 1
REMARK VINA RESULT:      -6.6      0.000      0.000
REMARK  Name = 
REMARK  3 active torsions:
REMARK  status: ('A' for Active; 'I' for Inactive)
REMARK    1  A    between atoms: C_2  and  C_3
REMARK    2  A    between atoms: C_3  and  S_4
REMARK    3  A    between atoms: S_4  and  C_5
REMARK                            x       y       z     vdW  Elec       q    Type
REMARK                         _______ _______ _______ _____ _____    ______ ____
ROOT
ATOM      1  O   UNL     1       5.358   7.079  16.104  0.00  0.00    +0.000 OA
ATOM      2  C   UNL     1       4.812   6.139  16.690  0.00  0.00    +0.000 C 
ATOM      3  N   UNL     1       3.993   6.463  17.743  0.00  0.00    +0.000 N 
ATOM      4  C   UNL     1       3.322   5.616  18.624  0.00  0.00    +0.000 A 
ATOM      5  C   UNL     1       2.543   6.193  19.624  0.00  0.00    +0.000 A 
ATOM      6  C   UNL     1       1.892   5.366  20.544  0.00  0.00    +0.000 A 
ATOM      7  C   UNL     1       2.036   3.990  20.439  0.00  0.00    +0.000 A 
ATOM      8 CL   UNL     1       1.274   2.935  21.553  0.00  0.00    +0.000 Cl
ATOM      9  C   UNL     1       2.819   3.497  19.411  0.00  0.00    +0.000 A 
ATOM     10  N   UNL     1       3.458   4.283  18.512  0.00  0.00    +0.000 NA
ATOM     11  H   UNL     1       3.920   7.460  17.889  0.00  0.00    +0.000 HD
ENDROOT
BRANCH   2  12
ATOM     12  C   UNL     1       4.999   4.676  16.303  0.00  0.00    +0.000 C 
BRANCH  12  13
ATOM     13  S   UNL     1       6.750   4.197  16.222  0.00  0.00    +0.000 S 
BRANCH  13  14
ATOM     14  C   UNL     1       7.101   4.592  14.555  0.00  0.00    +0.000 A 
ATOM     15  N   UNL     1       7.959   5.525  14.200  0.00  0.00    +0.000 NA
ATOM     16  N   UNL     1       8.058   5.654  12.827  0.00  0.00    +0.000 NA
ATOM     17  C   UNL     1       7.269   4.804  12.204  0.00  0.00    +0.000 A 
ATOM     18  S   UNL     1       6.351   3.789  13.237  0.00  0.00    +0.000 S 
ENDBRANCH  13  14
ENDBRANCH  12  13
ENDBRANCH   2  12
TORSDOF 3
ENDMDL
MODEL 2
REMARK VINA RESULT:      -6.4      3.879      6.543
REMARK  Name = 
REMARK  3 active torsions:
REMARK  status: ('A' for Active; 'I' for Inactive)
REMARK    1  A    between atoms: C_2  and  C_3
REMARK    2  A    between atoms: C_3  and  S_4
REMARK    3  A    between atoms: S_4  and  C_5
REMARK                            x       y       z     vdW  Elec       q    Type
REMARK                         _______ _______ _______ _____ _____    ______ ____
ROOT
ATOM      1  O   UNL     1       7.208   5.606  19.973  0.00  0.00    +0.000 OA
ATOM      2  C   UNL     1       6.622   5.084  19.020  0.00  0.00    +0.000 C 
ATOM      3  N   UNL     1       7.208   5.222  17.787  0.00  0.00    +0.000 N 
ATOM      4  C   UNL     1       6.734   4.813  16.541  0.00  0.00    +0.000 A 
ATOM      5  C   UNL     1       7.523   5.073  15.422  0.00  0.00    +0.000 A 
ATOM      6  C   UNL     1       7.053   4.706  14.158  0.00  0.00    +0.000 A 
ATOM      7  C   UNL     1       5.813   4.093  14.046  0.00  0.00    +0.000 A 
ATOM      8 CL   UNL     1       5.185   3.643  12.517  0.00  0.00    +0.000 Cl
ATOM      9  C   UNL     1       5.098   3.862  15.207  0.00  0.00    +0.000 A 
ATOM     10  N   UNL     1       5.537   4.210  16.440  0.00  0.00    +0.000 NA
ATOM     11  H   UNL     1       8.083   5.726  17.824  0.00  0.00    +0.000 HD
ENDROOT
BRANCH   2  12
ATOM     12  C   UNL     1       5.315   4.309  19.151  0.00  0.00    +0.000 C 
BRANCH  12  13
ATOM     13  S   UNL     1       3.902   5.389  19.526  0.00  0.00    +0.000 S 
BRANCH  13  14
ATOM     14  C   UNL     1       2.581   4.287  19.215  0.00  0.00    +0.000 A 
ATOM     15  N   UNL     1       2.160   3.990  18.003  0.00  0.00    +0.000 NA
ATOM     16  N   UNL     1       1.101   3.101  18.018  0.00  0.00    +0.000 NA
ATOM     17  C   UNL     1       0.772   2.762  19.247  0.00  0.00    +0.000 A 
ATOM     18  S   UNL     1       1.721   3.495  20.471  0.00  0.00    +0.000 S 
ENDBRANCH  13  14
ENDBRANCH  12  13
ENDBRANCH   2  12
TORSDOF 3
ENDMDL
MODEL 3
REMARK VINA RESULT:      -6.4      3.223      3.920
REMARK  Name = 
REMARK  3 active torsions:
REMARK  status: ('A' for Active; 'I' for Inactive)
REMARK    1  A    between atoms: C_2  and  C_3
REMARK    2  A    between atoms: C_3  and  S_4
REMARK    3  A    between atoms: S_4  and  C_5
REMARK                            x       y       z     vdW  Elec       q    Type
REMARK                         _______ _______ _______ _____ _____    ______ ____
ROOT
ATOM      1  O   UNL     1       3.976   4.283  19.668  0.00  0.00    +0.000 OA
ATOM      2  C   UNL     1       3.638   5.377  19.206  0.00  0.00    +0.000 C 
ATOM      3  N   UNL     1       2.830   6.156  19.997  0.00  0.00    +0.000 N 
ATOM      4  C   UNL     1       2.236   7.382  19.703  0.00  0.00    +0.000 A 
ATOM      5  C   UNL     1       1.448   7.981  20.684  0.00  0.00    +0.000 A 
ATOM      6  C   UNL     1       0.810   9.192  20.399  0.00  0.00    +0.000 A 
ATOM      7  C   UNL     1       0.977   9.770  19.149  0.00  0.00    +0.000 A 
ATOM      8 CL   UNL     1       0.201  11.244  18.746  0.00  0.00    +0.000 Cl
ATOM      9  C   UNL     1       1.784   9.116  18.236  0.00  0.00    +0.000 A 
ATOM     10  N   UNL     1       2.409   7.942  18.493  0.00  0.00    +0.000 NA
ATOM     11  H   UNL     1       2.633   5.731  20.892  0.00  0.00    +0.000 HD
ENDROOT
BRANCH   2  12
ATOM     12  C   UNL     1       4.070   5.888  17.837  0.00  0.00    +0.000 C 
BRANCH  12  13
ATOM     13  S   UNL     1       5.823   6.368  17.796  0.00  0.00    +0.000 S 
BRANCH  13  14
ATOM     14  C   UNL     1       6.303   5.653  16.274  0.00  0.00    +0.000 A 
ATOM     15  N   UNL     1       7.449   5.917  15.682  0.00  0.00    +0.000 NA
ATOM     16  N   UNL     1       7.594   5.233  14.489  0.00  0.00    +0.000 NA
ATOM     17  C   UNL     1       6.547   4.477  14.235  0.00  0.00    +0.000 A 
ATOM     18  S   UNL     1       5.312   4.539  15.423  0.00  0.00    +0.000 S 
ENDBRANCH  13  14
ENDBRANCH  12  13
ENDBRANCH   2  12
TORSDOF 3
ENDMDL
MODEL 4
REMARK VINA RESULT:      -6.3      1.319      1.594
REMARK  Name = 
REMARK  3 active torsions:
REMARK  status: ('A' for Active; 'I' for Inactive)
REMARK    1  A    between atoms: C_2  and  C_3
REMARK    2  A    between atoms: C_3  and  S_4
REMARK    3  A    between atoms: S_4  and  C_5
REMARK                            x       y       z     vdW  Elec       q    Type
REMARK                         _______ _______ _______ _____ _____    ______ ____
ROOT
ATOM      1  O   UNL     1       4.649   6.994  16.273  0.00  0.00    +0.000 OA
ATOM      2  C   UNL     1       4.520   6.279  17.271  0.00  0.00    +0.000 C 
ATOM      3  N   UNL     1       3.320   5.629  17.412  0.00  0.00    +0.000 N 
ATOM      4  C   UNL     1       2.872   4.834  18.466  0.00  0.00    +0.000 A 
ATOM      5  C   UNL     1       1.597   4.279  18.374  0.00  0.00    +0.000 A 
ATOM      6  C   UNL     1       1.111   3.510  19.435  0.00  0.00    +0.000 A 
ATOM      7  C   UNL     1       1.908   3.316  20.554  0.00  0.00    +0.000 A 
ATOM      8 CL   UNL     1       1.349   2.397  21.888  0.00  0.00    +0.000 Cl
ATOM      9  C   UNL     1       3.165   3.892  20.562  0.00  0.00    +0.000 A 
ATOM     10  N   UNL     1       3.652   4.642  19.543  0.00  0.00    +0.000 NA
ATOM     11  H   UNL     1       2.688   5.804  16.643  0.00  0.00    +0.000 HD
ENDROOT
BRANCH   2  12
ATOM     12  C   UNL     1       5.608   6.088  18.322  0.00  0.00    +0.000 C 
BRANCH  12  13
ATOM     13  S   UNL     1       6.623   4.612  18.011  0.00  0.00    +0.000 S 
BRANCH  13  14
ATOM     14  C   UNL     1       6.800   4.720  16.275  0.00  0.00    +0.000 A 
ATOM     15  N   UNL     1       7.579   5.600  15.682  0.00  0.00    +0.000 NA
ATOM     16  N   UNL     1       7.544   5.490  14.304  0.00  0.00    +0.000 NA
ATOM     17  C   UNL     1       6.739   4.523  13.917  0.00  0.00    +0.000 A 
ATOM     18  S   UNL     1       5.967   3.679  15.194  0.00  0.00    +0.000 S 
ENDBRANCH  13  14
ENDBRANCH  12  13
ENDBRANCH   2  12
TORSDOF 3
ENDMDL
MODEL 5
REMARK VINA RESULT:      -6.3      4.336      6.264
REMARK  Name = 
REMARK  3 active torsions:
REMARK  status: ('A' for Active; 'I' for Inactive)
REMARK    1  A    between atoms: C_2  and  C_3
REMARK    2  A    between atoms: C_3  and  S_4
REMARK    3  A    between atoms: S_4  and  C_5
REMARK                            x       y       z     vdW  Elec       q    Type
REMARK                         _______ _______ _______ _____ _____    ______ ____
ROOT
ATOM      1  O   UNL     1       4.046   1.983  19.294  0.00  0.00    +0.000 OA
ATOM      2  C   UNL     1       4.423   2.982  18.675  0.00  0.00    +0.000 C 
ATOM      3  N   UNL     1       5.554   3.604  19.140  0.00  0.00    +0.000 N 
ATOM      4  C   UNL     1       6.153   4.782  18.695  0.00  0.00    +0.000 A 
ATOM      5  C   UNL     1       7.310   5.214  19.340  0.00  0.00    +0.000 A 
ATOM      6  C   UNL     1       7.907   6.412  18.938  0.00  0.00    +0.000 A 
ATOM      7  C   UNL     1       7.335   7.142  17.905  0.00  0.00    +0.000 A 
ATOM      8 CL   UNL     1       8.019   8.626  17.388  0.00  0.00    +0.000 Cl
ATOM      9  C   UNL     1       6.193   6.638  17.311  0.00  0.00    +0.000 A 
ATOM     10  N   UNL     1       5.600   5.480  17.689  0.00  0.00    +0.000 NA
ATOM     11  H   UNL     1       5.959   3.133  19.938  0.00  0.00    +0.000 HD
ENDROOT
BRANCH   2  12
ATOM     12  C   UNL     1       3.709   3.537  17.447  0.00  0.00    +0.000 C 
BRANCH  12  13
ATOM     13  S   UNL     1       1.952   3.883  17.761  0.00  0.00    +0.000 S 
BRANCH  13  14
ATOM     14  C   UNL     1       2.084   5.414  18.594  0.00  0.00    +0.000 A 
ATOM     15  N   UNL     1       2.314   6.554  17.977  0.00  0.00    +0.000 NA
ATOM     16  N   UNL     1       2.380   7.621  18.853  0.00  0.00    +0.000 NA
ATOM     17  C   UNL     1       2.191   7.238  20.098  0.00  0.00    +0.000 A 
ATOM     18  S   UNL     1       1.920   5.557  20.297  0.00  0.00    +0.000 S 
ENDBRANCH  13  14
ENDBRANCH  12  13
ENDBRANCH   2  12
TORSDOF 3
ENDMDL
MODEL 6
REMARK VINA RESULT:      -6.2      3.647      6.498
REMARK  Name = 
REMARK  3 active torsions:
REMARK  status: ('A' for Active; 'I' for Inactive)
REMARK    1  A    between atoms: C_2  and  C_3
REMARK    2  A    between atoms: C_3  and  S_4
REMARK    3  A    between atoms: S_4  and  C_5
REMARK                            x       y       z     vdW  Elec       q    Type
REMARK                         _______ _______ _______ _____ _____    ______ ____
ROOT
ATOM      1  O   UNL     1       7.698   6.874  17.947  0.00  0.00    +0.000 OA
ATOM      2  C   UNL     1       7.170   5.991  17.264  0.00  0.00    +0.000 C 
ATOM      3  N   UNL     1       7.540   5.933  15.943  0.00  0.00    +0.000 N 
ATOM      4  C   UNL     1       7.052   5.105  14.932  0.00  0.00    +0.000 A 
ATOM      5  C   UNL     1       7.594   5.239  13.656  0.00  0.00    +0.000 A 
ATOM      6  C   UNL     1       7.095   4.447  12.618  0.00  0.00    +0.000 A 
ATOM      7  C   UNL     1       6.073   3.546  12.883  0.00  0.00    +0.000 A 
ATOM      8 CL   UNL     1       5.415   2.567  11.640  0.00  0.00    +0.000 Cl
ATOM      9  C   UNL     1       5.598   3.467  14.179  0.00  0.00    +0.000 A 
ATOM     10  N   UNL     1       6.069   4.227  15.197  0.00  0.00    +0.000 NA
ATOM     11  H   UNL     1       8.236   6.624  15.701  0.00  0.00    +0.000 HD
ENDROOT
BRANCH   2  12
ATOM     12  C   UNL     1       6.160   4.989  17.809  0.00  0.00    +0.000 C 
BRANCH  12  13
ATOM     13  S   UNL     1       4.562   5.759  18.206  0.00  0.00    +0.000 S 
BRANCH  13  14
ATOM     14  C   UNL     1       3.530   4.347  18.201  0.00  0.00    +0.000 A 
ATOM     15  N   UNL     1       2.395   4.286  17.536  0.00  0.00    +0.000 NA
ATOM     16  N   UNL     1       1.759   3.068  17.694  0.00  0.00    +0.000 NA
ATOM     17  C   UNL     1       2.449   2.260  18.471  0.00  0.00    +0.000 A 
ATOM     18  S   UNL     1       3.916   2.916  19.065  0.00  0.00    +0.000 S 
ENDBRANCH  13  14
ENDBRANCH  12  13
ENDBRANCH   2  12
TORSDOF 3
ENDMDL
MODEL 7
REMARK VINA RESULT:      -6.2      4.423      5.335
REMARK  Name = 
REMARK  3 active torsions:
REMARK  status: ('A' for Active; 'I' for Inactive)
REMARK    1  A    between atoms: C_2  and  C_3
REMARK    2  A    between atoms: C_3  and  S_4
REMARK    3  A    between atoms: S_4  and  C_5
REMARK                            x       y       z     vdW  Elec       q    Type
REMARK                         _______ _______ _______ _____ _____    ______ ____
ROOT
ATOM      1  O   UNL     1       2.743   4.450  20.551  0.00  0.00    +0.000 OA
ATOM      2  C   UNL     1       2.619   5.529  19.964  0.00  0.00    +0.000 C 
ATOM      3  N   UNL     1       2.022   6.547  20.665  0.00  0.00    +0.000 N 
ATOM      4  C   UNL     1       1.682   7.828  20.233  0.00  0.00    +0.000 A 
ATOM      5  C   UNL     1       1.075   8.689  21.145  0.00  0.00    +0.000 A 
ATOM      6  C   UNL     1       0.690   9.965  20.724  0.00  0.00    +0.000 A 
ATOM      7  C   UNL     1       0.921  10.345  19.410  0.00  0.00    +0.000 A 
ATOM      8 CL   UNL     1       0.451  11.891  18.841  0.00  0.00    +0.000 Cl
ATOM      9  C   UNL     1       1.539   9.435  18.571  0.00  0.00    +0.000 A 
ATOM     10  N   UNL     1       1.918   8.194  18.961  0.00  0.00    +0.000 NA
ATOM     11  H   UNL     1       1.778   6.280  21.609  0.00  0.00    +0.000 HD
ENDROOT
BRANCH   2  12
ATOM     12  C   UNL     1       3.092   5.776  18.536  0.00  0.00    +0.000 C 
BRANCH  12  13
ATOM     13  S   UNL     1       4.213   4.474  17.941  0.00  0.00    +0.000 S 
BRANCH  13  14
ATOM     14  C   UNL     1       5.743   5.102  18.509  0.00  0.00    +0.000 A 
ATOM     15  N   UNL     1       6.207   4.883  19.722  0.00  0.00    +0.000 NA
ATOM     16  N   UNL     1       7.431   5.489  19.933  0.00  0.00    +0.000 NA
ATOM     17  C   UNL     1       7.841   6.137  18.863  0.00  0.00    +0.000 A 
ATOM     18  S   UNL     1       6.773   6.059  17.525  0.00  0.00    +0.000 S 
ENDBRANCH  13  14
ENDBRANCH  12  13
ENDBRANCH   2  12
TORSDOF 3
ENDMDL
MODEL 8
REMARK VINA RESULT:      -6.2      3.463      5.746
REMARK  Name = 
REMARK  3 active torsions:
REMARK  status: ('A' for Active; 'I' for Inactive)
REMARK    1  A    between atoms: C_2  and  C_3
REMARK    2  A    between atoms: C_3  and  S_4
REMARK    3  A    between atoms: S_4  and  C_5
REMARK                            x       y       z     vdW  Elec       q    Type
REMARK                         _______ _______ _______ _____ _____    ______ ____
ROOT
ATOM      1  O   UNL     1       5.393   4.714  16.038  0.00  0.00    +0.000 OA
ATOM      2  C   UNL     1       4.711   4.978  17.033  0.00  0.00    +0.000 C 
ATOM      3  N   UNL     1       4.011   6.158  17.005  0.00  0.00    +0.000 N 
ATOM      4  C   UNL     1       3.237   6.743  18.006  0.00  0.00    +0.000 A 
ATOM      5  C   UNL     1       2.620   7.962  17.731  0.00  0.00    +0.000 A 
ATOM      6  C   UNL     1       1.870   8.585  18.732  0.00  0.00    +0.000 A 
ATOM      7  C   UNL     1       1.756   7.977  19.974  0.00  0.00    +0.000 A 
ATOM      8 CL   UNL     1       0.863   8.712  21.238  0.00  0.00    +0.000 Cl
ATOM      9  C   UNL     1       2.390   6.763  20.161  0.00  0.00    +0.000 A 
ATOM     10  N   UNL     1       3.122   6.144  19.203  0.00  0.00    +0.000 NA
ATOM     11  H   UNL     1       4.128   6.661  16.136  0.00  0.00    +0.000 HD
ENDROOT
BRANCH   2  12
ATOM     12  C   UNL     1       4.610   4.072  18.255  0.00  0.00    +0.000 C 
BRANCH  12  13
ATOM     13  S   UNL     1       3.367   2.762  18.049  0.00  0.00    +0.000 S 
BRANCH  13  14
ATOM     14  C   UNL     1       2.688   2.726  19.660  0.00  0.00    +0.000 A 
ATOM     15  N   UNL     1       3.407   2.507  20.741  0.00  0.00    +0.000 NA
ATOM     16  N   UNL     1       2.643   2.521  21.892  0.00  0.00    +0.000 NA
ATOM     17  C   UNL     1       1.374   2.755  21.628  0.00  0.00    +0.000 A 
ATOM     18  S   UNL     1       1.018   2.976  19.966  0.00  0.00    +0.000 S 
ENDBRANCH  13  14
ENDBRANCH  12  13
ENDBRANCH   2  12
TORSDOF 3
ENDMDL
MODEL 9
REMARK VINA RESULT:      -6.1      3.803      6.433
REMARK  Name = 
REMARK  3 active torsions:
REMARK  status: ('A' for Active; 'I' for Inactive)
REMARK    1  A    between atoms: C_2  and  C_3
REMARK    2  A    between atoms: C_3  and  S_4
REMARK    3  A    between atoms: S_4  and  C_5
REMARK                            x       y       z     vdW  Elec       q    Type
REMARK                         _______ _______ _______ _____ _____    ______ ____
ROOT
ATOM      1  O   UNL     1       7.721   6.790  18.257  0.00  0.00    +0.000 OA
ATOM      2  C   UNL     1       7.268   5.885  17.549  0.00  0.00    +0.000 C 
ATOM      3  N   UNL     1       7.533   5.964  16.205  0.00  0.00    +0.000 N 
ATOM      4  C   UNL     1       7.085   5.141  15.173  0.00  0.00    +0.000 A 
ATOM      5  C   UNL     1       7.497   5.432  13.874  0.00  0.00    +0.000 A 
ATOM      6  C   UNL     1       7.030   4.644  12.819  0.00  0.00    +0.000 A 
ATOM      7  C   UNL     1       6.169   3.590  13.088  0.00  0.00    +0.000 A 
ATOM      8 CL   UNL     1       5.555   2.606  11.826  0.00  0.00    +0.000 Cl
ATOM      9  C   UNL     1       5.817   3.361  14.406  0.00  0.00    +0.000 A 
ATOM     10  N   UNL     1       6.258   4.115  15.441  0.00  0.00    +0.000 NA
ATOM     11  H   UNL     1       8.104   6.763  15.965  0.00  0.00    +0.000 HD
ENDROOT
BRANCH   2  12
ATOM     12  C   UNL     1       6.454   4.715  18.089  0.00  0.00    +0.000 C 
BRANCH  12  13
ATOM     13  S   UNL     1       4.942   5.254  18.942  0.00  0.00    +0.000 S 
BRANCH  13  14
ATOM     14  C   UNL     1       3.908   3.878  18.637  0.00  0.00    +0.000 A 
ATOM     15  N   UNL     1       4.068   2.711  19.225  0.00  0.00    +0.000 NA
ATOM     16  N   UNL     1       3.130   1.782  18.814  0.00  0.00    +0.000 NA
ATOM     17  C   UNL     1       2.297   2.294  17.933  0.00  0.00    +0.000 A 
ATOM     18  S   UNL     1       2.590   3.937  17.540  0.00  0.00    +0.000 S 
ENDBRANCH  13  14
ENDBRANCH  12  13
ENDBRANCH   2  12
TORSDOF 3
ENDMDL
