MODEL 1
REMARK VINA RESULT:      -7.8      0.000      0.000
REMARK  Name = 
REMARK  9 active torsions:
REMARK  status: ('A' for Active; 'I' for Inactive)
REMARK    1  A    between atoms: C_1  and  C_2
REMARK    2  A    between atoms: C_2  and  O_4
REMARK    3  A    between atoms: O_4  and  C_5
REMARK    4  A    between atoms: C_5  and  C_6
REMARK    5  A    between atoms: C_5  and  C_16
REMARK    6  A    between atoms: C_6  and  C_7
REMARK    7  A    between atoms: C_16  and  C_18
REMARK    8  A    between atoms: C_18  and  C_19
REMARK    9  A    between atoms: C_18  and  C_20
REMARK                            x       y       z     vdW  Elec       q    Type
REMARK                         _______ _______ _______ _____ _____    ______ ____
ROOT
ATOM      1  C   UNL     1       4.968   3.596  17.149  0.00  0.00    +0.000 C 
ENDROOT
BRANCH   1   2
ATOM      2  C   UNL     1       3.902   4.344  17.897  0.00  0.00    +0.000 A 
ATOM      3  C   UNL     1       3.488   5.640  17.648  0.00  0.00    +0.000 A 
ATOM      4  N   UNL     1       2.534   5.976  18.565  0.00  0.00    +0.000 N 
ATOM      5  C   UNL     1       2.271   4.909  19.388  0.00  0.00    +0.000 A 
ATOM      6  C   UNL     1       1.373   4.801  20.456  0.00  0.00    +0.000 A 
ATOM      7  C   UNL     1       1.291   3.570  21.111  0.00  0.00    +0.000 A 
ATOM      8  C   UNL     1       2.067   2.489  20.700  0.00  0.00    +0.000 A 
ATOM      9  C   UNL     1       2.967   2.618  19.636  0.00  0.00    +0.000 A 
ATOM     10  C   UNL     1       3.088   3.857  18.972  0.00  0.00    +0.000 A 
ATOM     11  H   UNL     1       2.072   6.873  18.626  0.00  0.00    +0.000 HD
ENDBRANCH   1   2
BRANCH   1  12
ATOM     12  C   UNL     1       5.924   4.500  16.355  0.00  0.00    +0.000 C 
BRANCH  12  13
ATOM     13  C   UNL     1       7.136   4.822  17.235  0.00  0.00    +0.000 C 
ATOM     14  O   UNL     1       8.168   4.148  17.161  0.00  0.00    +0.000 OA
BRANCH  13  15
ATOM     15  C   UNL     1       7.042   6.020  18.190  0.00  0.00    +0.000 C 
ATOM     16  C   UNL     1       7.844   5.794  19.466  0.00  0.00    +0.000 C 
ATOM     17  C   UNL     1       7.539   7.292  17.492  0.00  0.00    +0.000 C 
ENDBRANCH  13  15
ENDBRANCH  12  13
BRANCH  12  18
ATOM     18  O   UNL     1       6.445   3.754  15.229  0.00  0.00    +0.000 OA
BRANCH  18  20
ATOM     19  C   UNL     1       6.022   3.679  12.925  0.00  0.00    +0.000 C 
ATOM     20  C   UNL     1       6.638   4.428  14.070  0.00  0.00    +0.000 C 
ATOM     21  O   UNL     1       7.239   5.485  13.952  0.00  0.00    +0.000 OA
ENDBRANCH  18  20
ENDBRANCH  12  18
ENDBRANCH   1  12
TORSDOF 6
ENDMDL
MODEL 2
REMARK VINA RESULT:      -7.6      1.354      1.607
REMARK  Name = 
REMARK  9 active torsions:
REMARK  status: ('A' for Active; 'I' for Inactive)
REMARK    1  A    between atoms: C_1  and  C_2
REMARK    2  A    between atoms: C_2  and  O_4
REMARK    3  A    between atoms: O_4  and  C_5
REMARK    4  A    between atoms: C_5  and  C_6
REMARK    5  A    between atoms: C_5  and  C_16
REMARK    6  A    between atoms: C_6  and  C_7
REMARK    7  A    between atoms: C_16  and  C_18
REMARK    8  A    between atoms: C_18  and  C_19
REMARK    9  A    between atoms: C_18  and  C_20
REMARK                            x       y       z     vdW  Elec       q    Type
REMARK                         _______ _______ _______ _____ _____    ______ ____
ROOT
ATOM      1  C   UNL     1       5.018   3.595  17.455  0.00  0.00    +0.000 C 
ENDROOT
BRANCH   1   2
ATOM      2  C   UNL     1       3.583   3.704  17.887  0.00  0.00    +0.000 A 
ATOM      3  C   UNL     1       2.527   4.138  17.107  0.00  0.00    +0.000 A 
ATOM      4  N   UNL     1       1.394   4.134  17.868  0.00  0.00    +0.000 N 
ATOM      5  C   UNL     1       1.669   3.659  19.126  0.00  0.00    +0.000 A 
ATOM      6  C   UNL     1       0.819   3.480  20.223  0.00  0.00    +0.000 A 
ATOM      7  C   UNL     1       1.370   2.945  21.390  0.00  0.00    +0.000 A 
ATOM      8  C   UNL     1       2.715   2.590  21.447  0.00  0.00    +0.000 A 
ATOM      9  C   UNL     1       3.554   2.784  20.343  0.00  0.00    +0.000 A 
ATOM     10  C   UNL     1       3.029   3.346  19.160  0.00  0.00    +0.000 A 
ATOM     11  H   UNL     1       0.478   4.424  17.554  0.00  0.00    +0.000 HD
ENDBRANCH   1   2
BRANCH   1  12
ATOM     12  C   UNL     1       5.478   4.736  16.533  0.00  0.00    +0.000 C 
BRANCH  12  13
ATOM     13  C   UNL     1       5.819   5.955  17.396  0.00  0.00    +0.000 C 
ATOM     14  O   UNL     1       4.930   6.705  17.810  0.00  0.00    +0.000 OA
BRANCH  13  15
ATOM     15  C   UNL     1       7.291   6.201  17.755  0.00  0.00    +0.000 C 
ATOM     16  C   UNL     1       7.686   7.661  17.560  0.00  0.00    +0.000 C 
ATOM     17  C   UNL     1       7.557   5.789  19.208  0.00  0.00    +0.000 C 
ENDBRANCH  13  15
ENDBRANCH  12  13
BRANCH  12  18
ATOM     18  O   UNL     1       6.720   4.348  15.897  0.00  0.00    +0.000 OA
BRANCH  18  20
ATOM     19  C   UNL     1       5.899   3.889  13.749  0.00  0.00    +0.000 C 
ATOM     20  C   UNL     1       6.874   4.663  14.588  0.00  0.00    +0.000 C 
ATOM     21  O   UNL     1       7.693   5.447  14.135  0.00  0.00    +0.000 OA
ENDBRANCH  18  20
ENDBRANCH  12  18
ENDBRANCH   1  12
TORSDOF 6
ENDMDL
MODEL 3
REMARK VINA RESULT:      -7.6      0.809      1.128
REMARK  Name = 
REMARK  9 active torsions:
REMARK  status: ('A' for Active; 'I' for Inactive)
REMARK    1  A    between atoms: C_1  and  C_2
REMARK    2  A    between atoms: C_2  and  O_4
REMARK    3  A    between atoms: O_4  and  C_5
REMARK    4  A    between atoms: C_5  and  C_6
REMARK    5  A    between atoms: C_5  and  C_16
REMARK    6  A    between atoms: C_6  and  C_7
REMARK    7  A    between atoms: C_16  and  C_18
REMARK    8  A    between atoms: C_18  and  C_19
REMARK    9  A    between atoms: C_18  and  C_20
REMARK                            x       y       z     vdW  Elec       q    Type
REMARK                         _______ _______ _______ _____ _____    ______ ____
ROOT
ATOM      1  C   UNL     1       4.315   4.240  16.556  0.00  0.00    +0.000 C 
ENDROOT
BRANCH   1   2
ATOM      2  C   UNL     1       3.513   4.867  17.659  0.00  0.00    +0.000 A 
ATOM      3  C   UNL     1       3.371   6.223  17.896  0.00  0.00    +0.000 A 
ATOM      4  N   UNL     1       2.602   6.392  19.011  0.00  0.00    +0.000 N 
ATOM      5  C   UNL     1       2.189   5.174  19.492  0.00  0.00    +0.000 A 
ATOM      6  C   UNL     1       1.392   4.871  20.601  0.00  0.00    +0.000 A 
ATOM      7  C   UNL     1       1.104   3.526  20.844  0.00  0.00    +0.000 A 
ATOM      8  C   UNL     1       1.584   2.528  20.000  0.00  0.00    +0.000 A 
ATOM      9  C   UNL     1       2.388   2.848  18.899  0.00  0.00    +0.000 A 
ATOM     10  C   UNL     1       2.715   4.197  18.645  0.00  0.00    +0.000 A 
ATOM     11  H   UNL     1       2.355   7.282  19.421  0.00  0.00    +0.000 HD
ENDBRANCH   1   2
BRANCH   1  12
ATOM     12  C   UNL     1       5.728   4.827  16.402  0.00  0.00    +0.000 C 
BRANCH  12  13
ATOM     13  C   UNL     1       6.446   4.731  17.752  0.00  0.00    +0.000 C 
ATOM     14  O   UNL     1       6.110   3.888  18.589  0.00  0.00    +0.000 OA
BRANCH  13  15
ATOM     15  C   UNL     1       7.612   5.692  18.023  0.00  0.00    +0.000 C 
ATOM     16  C   UNL     1       7.345   7.082  17.455  0.00  0.00    +0.000 C 
ATOM     17  C   UNL     1       7.872   5.796  19.530  0.00  0.00    +0.000 C 
ENDBRANCH  13  15
ENDBRANCH  12  13
BRANCH  12  18
ATOM     18  O   UNL     1       6.484   3.989  15.496  0.00  0.00    +0.000 OA
BRANCH  18  20
ATOM     19  C   UNL     1       6.213   3.822  13.173  0.00  0.00    +0.000 C 
ATOM     20  C   UNL     1       6.872   4.535  14.318  0.00  0.00    +0.000 C 
ATOM     21  O   UNL     1       7.656   5.461  14.186  0.00  0.00    +0.000 OA
ENDBRANCH  18  20
ENDBRANCH  12  18
ENDBRANCH   1  12
TORSDOF 6
ENDMDL
MODEL 4
REMARK VINA RESULT:      -7.5      1.273      1.424
REMARK  Name = 
REMARK  9 active torsions:
REMARK  status: ('A' for Active; 'I' for Inactive)
REMARK    1  A    between atoms: C_1  and  C_2
REMARK    2  A    between atoms: C_2  and  O_4
REMARK    3  A    between atoms: O_4  and  C_5
REMARK    4  A    between atoms: C_5  and  C_6
REMARK    5  A    between atoms: C_5  and  C_16
REMARK    6  A    between atoms: C_6  and  C_7
REMARK    7  A    between atoms: C_16  and  C_18
REMARK    8  A    between atoms: C_18  and  C_19
REMARK    9  A    between atoms: C_18  and  C_20
REMARK                            x       y       z     vdW  Elec       q    Type
REMARK                         _______ _______ _______ _____ _____    ______ ____
ROOT
ATOM      1  C   UNL     1       4.766   3.085  17.191  0.00  0.00    +0.000 C 
ENDROOT
BRANCH   1   2
ATOM      2  C   UNL     1       3.418   3.396  17.776  0.00  0.00    +0.000 A 
ATOM      3  C   UNL     1       2.339   3.933  17.097  0.00  0.00    +0.000 A 
ATOM      4  N   UNL     1       1.313   4.106  17.980  0.00  0.00    +0.000 N 
ATOM      5  C   UNL     1       1.673   3.648  19.223  0.00  0.00    +0.000 A 
ATOM      6  C   UNL     1       0.943   3.624  20.417  0.00  0.00    +0.000 A 
ATOM      7  C   UNL     1       1.558   3.067  21.541  0.00  0.00    +0.000 A 
ATOM      8  C   UNL     1       2.845   2.542  21.465  0.00  0.00    +0.000 A 
ATOM      9  C   UNL     1       3.565   2.583  20.265  0.00  0.00    +0.000 A 
ATOM     10  C   UNL     1       2.978   3.162  19.120  0.00  0.00    +0.000 A 
ATOM     11  H   UNL     1       0.409   4.501  17.756  0.00  0.00    +0.000 HD
ENDBRANCH   1   2
BRANCH   1  12
ATOM     12  C   UNL     1       5.541   4.325  16.718  0.00  0.00    +0.000 C 
BRANCH  12  13
ATOM     13  C   UNL     1       6.140   5.023  17.943  0.00  0.00    +0.000 C 
ATOM     14  O   UNL     1       6.644   4.369  18.860  0.00  0.00    +0.000 OA
BRANCH  13  15
ATOM     15  C   UNL     1       6.122   6.558  17.984  0.00  0.00    +0.000 C 
ATOM     16  C   UNL     1       7.460   7.153  17.560  0.00  0.00    +0.000 C 
ATOM     17  C   UNL     1       5.011   7.098  17.077  0.00  0.00    +0.000 C 
ENDBRANCH  13  15
ENDBRANCH  12  13
BRANCH  12  18
ATOM     18  O   UNL     1       6.671   3.893  15.922  0.00  0.00    +0.000 OA
BRANCH  18  20
ATOM     19  C   UNL     1       5.974   3.938  13.684  0.00  0.00    +0.000 C 
ATOM     20  C   UNL     1       6.873   4.518  14.737  0.00  0.00    +0.000 C 
ATOM     21  O   UNL     1       7.679   5.412  14.531  0.00  0.00    +0.000 OA
ENDBRANCH  18  20
ENDBRANCH  12  18
ENDBRANCH   1  12
TORSDOF 6
ENDMDL
MODEL 5
REMARK VINA RESULT:      -7.5      1.771      3.513
REMARK  Name = 
REMARK  9 active torsions:
REMARK  status: ('A' for Active; 'I' for Inactive)
REMARK    1  A    between atoms: C_1  and  C_2
REMARK    2  A    between atoms: C_2  and  O_4
REMARK    3  A    between atoms: O_4  and  C_5
REMARK    4  A    between atoms: C_5  and  C_6
REMARK    5  A    between atoms: C_5  and  C_16
REMARK    6  A    between atoms: C_6  and  C_7
REMARK    7  A    between atoms: C_16  and  C_18
REMARK    8  A    between atoms: C_18  and  C_19
REMARK    9  A    between atoms: C_18  and  C_20
REMARK                            x       y       z     vdW  Elec       q    Type
REMARK                         _______ _______ _______ _____ _____    ______ ____
ROOT
ATOM      1  C   UNL     1       4.942   6.439  16.348  0.00  0.00    +0.000 C 
ENDROOT
BRANCH   1   2
ATOM      2  C   UNL     1       3.875   6.149  17.364  0.00  0.00    +0.000 A 
ATOM      3  C   UNL     1       3.278   7.070  18.205  0.00  0.00    +0.000 A 
ATOM      4  N   UNL     1       2.390   6.414  19.008  0.00  0.00    +0.000 N 
ATOM      5  C   UNL     1       2.350   5.081  18.682  0.00  0.00    +0.000 A 
ATOM      6  C   UNL     1       1.590   4.045  19.235  0.00  0.00    +0.000 A 
ATOM      7  C   UNL     1       1.732   2.770  18.682  0.00  0.00    +0.000 A 
ATOM      8  C   UNL     1       2.590   2.549  17.608  0.00  0.00    +0.000 A 
ATOM      9  C   UNL     1       3.351   3.596  17.073  0.00  0.00    +0.000 A 
ATOM     10  C   UNL     1       3.245   4.888  17.629  0.00  0.00    +0.000 A 
ATOM     11  H   UNL     1       1.828   6.843  19.731  0.00  0.00    +0.000 HD
ENDBRANCH   1   2
BRANCH   1  12
ATOM     12  C   UNL     1       6.366   6.127  16.834  0.00  0.00    +0.000 C 
BRANCH  12  13
ATOM     13  C   UNL     1       6.969   5.052  15.924  0.00  0.00    +0.000 C 
ATOM     14  O   UNL     1       7.799   4.248  16.359  0.00  0.00    +0.000 OA
BRANCH  13  15
ATOM     15  C   UNL     1       6.492   4.984  14.467  0.00  0.00    +0.000 C 
ATOM     16  C   UNL     1       7.642   5.170  13.484  0.00  0.00    +0.000 C 
ATOM     17  C   UNL     1       5.802   3.641  14.199  0.00  0.00    +0.000 C 
ENDBRANCH  13  15
ENDBRANCH  12  13
BRANCH  12  18
ATOM     18  O   UNL     1       7.190   7.303  16.649  0.00  0.00    +0.000 OA
BRANCH  18  20
ATOM     19  C   UNL     1       8.022   6.739  18.767  0.00  0.00    +0.000 C 
ATOM     20  C   UNL     1       7.800   7.816  17.744  0.00  0.00    +0.000 C 
ATOM     21  O   UNL     1       8.115   8.985  17.904  0.00  0.00    +0.000 OA
ENDBRANCH  18  20
ENDBRANCH  12  18
ENDBRANCH   1  12
TORSDOF 6
ENDMDL
MODEL 6
REMARK VINA RESULT:      -7.5      2.135      3.890
REMARK  Name = 
REMARK  9 active torsions:
REMARK  status: ('A' for Active; 'I' for Inactive)
REMARK    1  A    between atoms: C_1  and  C_2
REMARK    2  A    between atoms: C_2  and  O_4
REMARK    3  A    between atoms: O_4  and  C_5
REMARK    4  A    between atoms: C_5  and  C_6
REMARK    5  A    between atoms: C_5  and  C_16
REMARK    6  A    between atoms: C_6  and  C_7
REMARK    7  A    between atoms: C_16  and  C_18
REMARK    8  A    between atoms: C_18  and  C_19
REMARK    9  A    between atoms: C_18  and  C_20
REMARK                            x       y       z     vdW  Elec       q    Type
REMARK                         _______ _______ _______ _____ _____    ______ ____
ROOT
ATOM      1  C   UNL     1       5.046   6.252  17.883  0.00  0.00    +0.000 C 
ENDROOT
BRANCH   1   2
ATOM      2  C   UNL     1       4.687   4.921  18.480  0.00  0.00    +0.000 A 
ATOM      3  C   UNL     1       5.524   4.106  19.221  0.00  0.00    +0.000 A 
ATOM      4  N   UNL     1       4.846   2.968  19.548  0.00  0.00    +0.000 N 
ATOM      5  C   UNL     1       3.557   3.033  19.081  0.00  0.00    +0.000 A 
ATOM      6  C   UNL     1       2.517   2.102  19.187  0.00  0.00    +0.000 A 
ATOM      7  C   UNL     1       1.281   2.446  18.633  0.00  0.00    +0.000 A 
ATOM      8  C   UNL     1       1.094   3.679  18.012  0.00  0.00    +0.000 A 
ATOM      9  C   UNL     1       2.148   4.594  17.907  0.00  0.00    +0.000 A 
ATOM     10  C   UNL     1       3.413   4.262  18.436  0.00  0.00    +0.000 A 
ATOM     11  H   UNL     1       5.226   2.191  20.072  0.00  0.00    +0.000 HD
ENDBRANCH   1   2
BRANCH   1  12
ATOM     12  C   UNL     1       6.190   6.186  16.859  0.00  0.00    +0.000 C 
BRANCH  12  13
ATOM     13  C   UNL     1       5.584   6.094  15.455  0.00  0.00    +0.000 C 
ATOM     14  O   UNL     1       4.904   7.017  14.997  0.00  0.00    +0.000 OA
BRANCH  13  15
ATOM     15  C   UNL     1       5.870   4.836  14.623  0.00  0.00    +0.000 C 
ATOM     16  C   UNL     1       7.193   4.939  13.874  0.00  0.00    +0.000 C 
ATOM     17  C   UNL     1       5.889   3.597  15.527  0.00  0.00    +0.000 C 
ENDBRANCH  13  15
ENDBRANCH  12  13
BRANCH  12  18
ATOM     18  O   UNL     1       6.915   7.439  16.890  0.00  0.00    +0.000 OA
BRANCH  18  20
ATOM     19  C   UNL     1       8.228   9.062  17.956  0.00  0.00    +0.000 C 
ATOM     20  C   UNL     1       7.791   7.627  17.907  0.00  0.00    +0.000 C 
ATOM     21  O   UNL     1       8.193   6.763  18.670  0.00  0.00    +0.000 OA
ENDBRANCH  18  20
ENDBRANCH  12  18
ENDBRANCH   1  12
TORSDOF 6
ENDMDL
MODEL 7
REMARK VINA RESULT:      -7.5      2.707      6.235
REMARK  Name = 
REMARK  9 active torsions:
REMARK  status: ('A' for Active; 'I' for Inactive)
REMARK    1  A    between atoms: C_1  and  C_2
REMARK    2  A    between atoms: C_2  and  O_4
REMARK    3  A    between atoms: O_4  and  C_5
REMARK    4  A    between atoms: C_5  and  C_6
REMARK    5  A    between atoms: C_5  and  C_16
REMARK    6  A    between atoms: C_6  and  C_7
REMARK    7  A    between atoms: C_16  and  C_18
REMARK    8  A    between atoms: C_18  and  C_19
REMARK    9  A    between atoms: C_18  and  C_20
REMARK                            x       y       z     vdW  Elec       q    Type
REMARK                         _______ _______ _______ _____ _____    ______ ____
ROOT
ATOM      1  C   UNL     1       4.529   4.032  16.571  0.00  0.00    +0.000 C 
ENDROOT
BRANCH   1   2
ATOM      2  C   UNL     1       5.717   4.548  15.810  0.00  0.00    +0.000 A 
ATOM      3  C   UNL     1       6.727   5.345  16.318  0.00  0.00    +0.000 A 
ATOM      4  N   UNL     1       7.599   5.637  15.309  0.00  0.00    +0.000 N 
ATOM      5  C   UNL     1       7.213   5.008  14.151  0.00  0.00    +0.000 A 
ATOM      6  C   UNL     1       7.805   5.021  12.883  0.00  0.00    +0.000 A 
ATOM      7  C   UNL     1       7.206   4.256  11.880  0.00  0.00    +0.000 A 
ATOM      8  C   UNL     1       6.068   3.498  12.143  0.00  0.00    +0.000 A 
ATOM      9  C   UNL     1       5.483   3.503  13.416  0.00  0.00    +0.000 A 
ATOM     10  C   UNL     1       6.054   4.286  14.441  0.00  0.00    +0.000 A 
ATOM     11  H   UNL     1       8.421   6.220  15.397  0.00  0.00    +0.000 HD
ENDBRANCH   1   2
BRANCH   1  12
ATOM     12  C   UNL     1       4.785   3.847  18.075  0.00  0.00    +0.000 C 
BRANCH  12  13
ATOM     13  C   UNL     1       4.526   5.182  18.782  0.00  0.00    +0.000 C 
ATOM     14  O   UNL     1       5.364   5.663  19.551  0.00  0.00    +0.000 OA
BRANCH  13  15
ATOM     15  C   UNL     1       3.211   5.917  18.486  0.00  0.00    +0.000 C 
ATOM     16  C   UNL     1       2.422   6.201  19.759  0.00  0.00    +0.000 C 
ATOM     17  C   UNL     1       3.495   7.234  17.755  0.00  0.00    +0.000 C 
ENDBRANCH  13  15
ENDBRANCH  12  13
BRANCH  12  18
ATOM     18  O   UNL     1       3.802   2.926  18.606  0.00  0.00    +0.000 OA
BRANCH  18  20
ATOM     19  C   UNL     1       2.751   2.635  20.681  0.00  0.00    +0.000 C 
ATOM     20  C   UNL     1       3.998   2.462  19.863  0.00  0.00    +0.000 C 
ATOM     21  O   UNL     1       5.036   1.985  20.293  0.00  0.00    +0.000 OA
ENDBRANCH  18  20
ENDBRANCH  12  18
ENDBRANCH   1  12
TORSDOF 6
ENDMDL
MODEL 8
REMARK VINA RESULT:      -7.4      1.528      3.536
REMARK  Name = 
REMARK  9 active torsions:
REMARK  status: ('A' for Active; 'I' for Inactive)
REMARK    1  A    between atoms: C_1  and  C_2
REMARK    2  A    between atoms: C_2  and  O_4
REMARK    3  A    between atoms: O_4  and  C_5
REMARK    4  A    between atoms: C_5  and  C_6
REMARK    5  A    between atoms: C_5  and  C_16
REMARK    6  A    between atoms: C_6  and  C_7
REMARK    7  A    between atoms: C_16  and  C_18
REMARK    8  A    between atoms: C_18  and  C_19
REMARK    9  A    between atoms: C_18  and  C_20
REMARK                            x       y       z     vdW  Elec       q    Type
REMARK                         _______ _______ _______ _____ _____    ______ ____
ROOT
ATOM      1  C   UNL     1       4.008   4.219  16.501  0.00  0.00    +0.000 C 
ENDROOT
BRANCH   1   2
ATOM      2  C   UNL     1       3.472   3.303  17.564  0.00  0.00    +0.000 A 
ATOM      3  C   UNL     1       3.613   1.928  17.602  0.00  0.00    +0.000 A 
ATOM      4  N   UNL     1       2.954   1.453  18.699  0.00  0.00    +0.000 N 
ATOM      5  C   UNL     1       2.417   2.493  19.417  0.00  0.00    +0.000 A 
ATOM      6  C   UNL     1       1.669   2.474  20.600  0.00  0.00    +0.000 A 
ATOM      7  C   UNL     1       1.270   3.702  21.133  0.00  0.00    +0.000 A 
ATOM      8  C   UNL     1       1.618   4.898  20.512  0.00  0.00    +0.000 A 
ATOM      9  C   UNL     1       2.359   4.898  19.323  0.00  0.00    +0.000 A 
ATOM     10  C   UNL     1       2.755   3.672  18.750  0.00  0.00    +0.000 A 
ATOM     11  H   UNL     1       2.878   0.479  18.959  0.00  0.00    +0.000 HD
ENDBRANCH   1   2
BRANCH   1  12
ATOM     12  C   UNL     1       5.539   4.354  16.510  0.00  0.00    +0.000 C 
BRANCH  12  13
ATOM     13  C   UNL     1       5.969   5.115  15.251  0.00  0.00    +0.000 C 
ATOM     14  O   UNL     1       5.698   6.311  15.111  0.00  0.00    +0.000 OA
BRANCH  13  15
ATOM     15  C   UNL     1       6.770   4.356  14.184  0.00  0.00    +0.000 C 
ATOM     16  C   UNL     1       5.860   3.678  13.166  0.00  0.00    +0.000 C 
ATOM     17  C   UNL     1       7.724   5.313  13.459  0.00  0.00    +0.000 C 
ENDBRANCH  13  15
ENDBRANCH  12  13
BRANCH  12  18
ATOM     18  O   UNL     1       5.926   5.193  17.625  0.00  0.00    +0.000 OA
BRANCH  18  20
ATOM     19  C   UNL     1       7.670   6.676  18.130  0.00  0.00    +0.000 C 
ATOM     20  C   UNL     1       7.245   5.250  17.932  0.00  0.00    +0.000 C 
ATOM     21  O   UNL     1       7.998   4.294  18.022  0.00  0.00    +0.000 OA
ENDBRANCH  18  20
ENDBRANCH  12  18
ENDBRANCH   1  12
TORSDOF 6
ENDMDL
MODEL 9
REMARK VINA RESULT:      -7.4      1.850      3.415
REMARK  Name = 
REMARK  9 active torsions:
REMARK  status: ('A' for Active; 'I' for Inactive)
REMARK    1  A    between atoms: C_1  and  C_2
REMARK    2  A    between atoms: C_2  and  O_4
REMARK    3  A    between atoms: O_4  and  C_5
REMARK    4  A    between atoms: C_5  and  C_6
REMARK    5  A    between atoms: C_5  and  C_16
REMARK    6  A    between atoms: C_6  and  C_7
REMARK    7  A    between atoms: C_16  and  C_18
REMARK    8  A    between atoms: C_18  and  C_19
REMARK    9  A    between atoms: C_18  and  C_20
REMARK                            x       y       z     vdW  Elec       q    Type
REMARK                         _______ _______ _______ _____ _____    ______ ____
ROOT
ATOM      1  C   UNL     1       3.789   5.950  17.414  0.00  0.00    +0.000 C 
ENDROOT
BRANCH   1   2
ATOM      2  C   UNL     1       3.227   4.609  17.790  0.00  0.00    +0.000 A 
ATOM      3  C   UNL     1       3.135   3.503  16.965  0.00  0.00    +0.000 A 
ATOM      4  N   UNL     1       2.530   2.493  17.657  0.00  0.00    +0.000 N 
ATOM      5  C   UNL     1       2.263   2.893  18.943  0.00  0.00    +0.000 A 
ATOM      6  C   UNL     1       1.659   2.192  19.993  0.00  0.00    +0.000 A 
ATOM      7  C   UNL     1       1.537   2.844  21.222  0.00  0.00    +0.000 A 
ATOM      8  C   UNL     1       2.013   4.141  21.393  0.00  0.00    +0.000 A 
ATOM      9  C   UNL     1       2.606   4.832  20.329  0.00  0.00    +0.000 A 
ATOM     10  C   UNL     1       2.720   4.205  19.070  0.00  0.00    +0.000 A 
ATOM     11  H   UNL     1       2.319   1.576  17.288  0.00  0.00    +0.000 HD
ENDBRANCH   1   2
BRANCH   1  12
ATOM     12  C   UNL     1       5.297   5.932  17.120  0.00  0.00    +0.000 C 
BRANCH  12  13
ATOM     13  C   UNL     1       5.501   6.048  15.606  0.00  0.00    +0.000 C 
ATOM     14  O   UNL     1       5.022   6.995  14.974  0.00  0.00    +0.000 OA
BRANCH  13  15
ATOM     15  C   UNL     1       6.340   4.972  14.902  0.00  0.00    +0.000 C 
ATOM     16  C   UNL     1       7.033   4.050  15.899  0.00  0.00    +0.000 C 
ATOM     17  C   UNL     1       5.455   4.142  13.965  0.00  0.00    +0.000 C 
ENDBRANCH  13  15
ENDBRANCH  12  13
BRANCH  12  18
ATOM     18  O   UNL     1       5.898   7.121  17.687  0.00  0.00    +0.000 OA
BRANCH  18  20
ATOM     19  C   UNL     1       7.779   6.218  18.754  0.00  0.00    +0.000 C 
ATOM     20  C   UNL     1       7.251   7.178  17.728  0.00  0.00    +0.000 C 
ATOM     21  O   UNL     1       7.954   7.910  17.051  0.00  0.00    +0.000 OA
ENDBRANCH  18  20
ENDBRANCH  12  18
ENDBRANCH   1  12
TORSDOF 6
ENDMDL
