MODEL 1
REMARK VINA RESULT:      -7.0      0.000      0.000
REMARK  Name = 
REMARK  0 active torsions:
REMARK  status: ('A' for Active; 'I' for Inactive)
REMARK                            x       y       z     vdW  Elec       q    Type
REMARK                         _______ _______ _______ _____ _____    ______ ____
ROOT
ATOM      1  C   UNL     1       5.605   4.935  17.630  0.00  0.00    +0.000 C 
ATOM      2  C   UNL     1       4.243   5.615  17.819  0.00  0.00    +0.000 C 
ATOM      3  C   UNL     1       3.390   4.481  18.362  0.00  0.00    +0.000 C 
ATOM      4  C   UNL     1       2.143   4.845  19.186  0.00  0.00    +0.000 C 
ATOM      5  C   UNL     1       1.536   3.546  19.778  0.00  0.00    +0.000 C 
ATOM      6  C   UNL     1       1.127   2.604  18.633  0.00  0.00    +0.000 C 
ATOM      7  C   UNL     1       2.356   2.248  17.783  0.00  0.00    +0.000 C 
ATOM      8  C   UNL     1       3.434   1.568  18.647  0.00  0.00    +0.000 C 
ATOM      9  C   UNL     1       3.840   2.482  19.818  0.00  0.00    +0.000 C 
ATOM     10  C   UNL     1       2.575   2.804  20.649  0.00  0.00    +0.000 C 
ATOM     11  C   UNL     1       4.396   3.824  19.320  0.00  0.00    +0.000 C 
ATOM     12  N   UNL     1       5.663   3.805  18.580  0.00  0.00    +0.000 NA
ATOM     13  C   UNL     1       2.949   3.537  17.210  0.00  0.00    +0.000 C 
ATOM     14  H   UNL     1       6.436   3.949  19.233  0.00  0.00    +0.000 HD
ENDROOT
TORSDOF 0
ENDMDL
MODEL 2
REMARK VINA RESULT:      -6.9      0.890      1.039
REMARK  Name = 
REMARK  0 active torsions:
REMARK  status: ('A' for Active; 'I' for Inactive)
REMARK                            x       y       z     vdW  Elec       q    Type
REMARK                         _______ _______ _______ _____ _____    ______ ____
ROOT
ATOM      1  C   UNL     1       4.606   4.878  17.086  0.00  0.00    +0.000 C 
ATOM      2  C   UNL     1       3.668   5.760  17.919  0.00  0.00    +0.000 C 
ATOM      3  C   UNL     1       2.897   4.734  18.731  0.00  0.00    +0.000 C 
ATOM      4  C   UNL     1       2.261   5.190  20.055  0.00  0.00    +0.000 C 
ATOM      5  C   UNL     1       1.686   3.949  20.789  0.00  0.00    +0.000 C 
ATOM      6  C   UNL     1       0.607   3.291  19.912  0.00  0.00    +0.000 C 
ATOM      7  C   UNL     1       1.219   2.850  18.573  0.00  0.00    +0.000 C 
ATOM      8  C   UNL     1       2.371   1.855  18.804  0.00  0.00    +0.000 C 
ATOM      9  C   UNL     1       3.451   2.484  19.704  0.00  0.00    +0.000 C 
ATOM     10  C   UNL     1       2.793   2.900  21.041  0.00  0.00    +0.000 C 
ATOM     11  C   UNL     1       4.033   3.760  19.080  0.00  0.00    +0.000 C 
ATOM     12  N   UNL     1       4.805   3.622  17.839  0.00  0.00    +0.000 NA
ATOM     13  C   UNL     1       1.787   4.080  17.862  0.00  0.00    +0.000 C 
ATOM     14  H   UNL     1       5.795   3.516  18.070  0.00  0.00    +0.000 HD
ENDROOT
TORSDOF 0
ENDMDL
MODEL 3
REMARK VINA RESULT:      -6.6      1.251      1.616
REMARK  Name = 
REMARK  0 active torsions:
REMARK  status: ('A' for Active; 'I' for Inactive)
REMARK                            x       y       z     vdW  Elec       q    Type
REMARK                         _______ _______ _______ _____ _____    ______ ____
ROOT
ATOM      1  C   UNL     1       6.890   4.733  17.356  0.00  0.00    +0.000 C 
ATOM      2  C   UNL     1       5.833   5.775  16.968  0.00  0.00    +0.000 C 
ATOM      3  C   UNL     1       4.565   5.180  17.557  0.00  0.00    +0.000 C 
ATOM      4  C   UNL     1       3.399   6.134  17.874  0.00  0.00    +0.000 C 
ATOM      5  C   UNL     1       2.293   5.343  18.622  0.00  0.00    +0.000 C 
ATOM      6  C   UNL     1       1.783   4.203  17.723  0.00  0.00    +0.000 C 
ATOM      7  C   UNL     1       2.939   3.253  17.376  0.00  0.00    +0.000 C 
ATOM      8  C   UNL     1       3.558   2.661  18.656  0.00  0.00    +0.000 C 
ATOM      9  C   UNL     1       4.051   3.786  19.585  0.00  0.00    +0.000 C 
ATOM     10  C   UNL     1       2.854   4.709  19.915  0.00  0.00    +0.000 C 
ATOM     11  C   UNL     1       5.109   4.662  18.898  0.00  0.00    +0.000 C 
ATOM     12  N   UNL     1       6.397   4.043  18.566  0.00  0.00    +0.000 NA
ATOM     13  C   UNL     1       4.025   4.044  16.645  0.00  0.00    +0.000 C 
ATOM     14  H   UNL     1       7.052   4.196  19.336  0.00  0.00    +0.000 HD
ENDROOT
TORSDOF 0
ENDMDL
MODEL 4
REMARK VINA RESULT:      -6.6      1.711      2.754
REMARK  Name = 
REMARK  0 active torsions:
REMARK  status: ('A' for Active; 'I' for Inactive)
REMARK                            x       y       z     vdW  Elec       q    Type
REMARK                         _______ _______ _______ _____ _____    ______ ____
ROOT
ATOM      1  C   UNL     1       2.587   6.887  19.784  0.00  0.00    +0.000 C 
ATOM      2  C   UNL     1       2.623   6.252  18.388  0.00  0.00    +0.000 C 
ATOM      3  C   UNL     1       2.503   4.772  18.706  0.00  0.00    +0.000 C 
ATOM      4  C   UNL     1       1.958   3.840  17.609  0.00  0.00    +0.000 C 
ATOM      5  C   UNL     1       1.757   2.423  18.210  0.00  0.00    +0.000 C 
ATOM      6  C   UNL     1       3.110   1.882  18.705  0.00  0.00    +0.000 C 
ATOM      7  C   UNL     1       3.682   2.813  19.785  0.00  0.00    +0.000 C 
ATOM      8  C   UNL     1       2.708   2.930  20.972  0.00  0.00    +0.000 C 
ATOM      9  C   UNL     1       1.337   3.444  20.494  0.00  0.00    +0.000 C 
ATOM     10  C   UNL     1       0.797   2.471  19.419  0.00  0.00    +0.000 C 
ATOM     11  C   UNL     1       1.452   4.822  19.827  0.00  0.00    +0.000 C 
ATOM     12  N   UNL     1       1.854   5.956  20.667  0.00  0.00    +0.000 NA
ATOM     13  C   UNL     1       3.869   4.207  19.184  0.00  0.00    +0.000 C 
ATOM     14  H   UNL     1       1.018   6.418  21.030  0.00  0.00    +0.000 HD
ENDROOT
TORSDOF 0
ENDMDL
MODEL 5
REMARK VINA RESULT:      -6.6      1.093      1.471
REMARK  Name = 
REMARK  0 active torsions:
REMARK  status: ('A' for Active; 'I' for Inactive)
REMARK                            x       y       z     vdW  Elec       q    Type
REMARK                         _______ _______ _______ _____ _____    ______ ____
ROOT
ATOM      1  C   UNL     1       5.285   5.466  18.082  0.00  0.00    +0.000 C 
ATOM      2  C   UNL     1       4.076   5.253  17.162  0.00  0.00    +0.000 C 
ATOM      3  C   UNL     1       3.180   4.365  18.009  0.00  0.00    +0.000 C 
ATOM      4  C   UNL     1       1.672   4.363  17.706  0.00  0.00    +0.000 C 
ATOM      5  C   UNL     1       0.943   3.533  18.796  0.00  0.00    +0.000 C 
ATOM      6  C   UNL     1       1.464   2.087  18.771  0.00  0.00    +0.000 C 
ATOM      7  C   UNL     1       2.976   2.070  19.048  0.00  0.00    +0.000 C 
ATOM      8  C   UNL     1       3.283   2.705  20.417  0.00  0.00    +0.000 C 
ATOM      9  C   UNL     1       2.744   4.147  20.475  0.00  0.00    +0.000 C 
ATOM     10  C   UNL     1       1.221   4.112  20.202  0.00  0.00    +0.000 C 
ATOM     11  C   UNL     1       3.370   5.027  19.384  0.00  0.00    +0.000 C 
ATOM     12  N   UNL     1       4.808   5.304  19.472  0.00  0.00    +0.000 NA
ATOM     13  C   UNL     1       3.682   2.896  17.972  0.00  0.00    +0.000 C 
ATOM     14  H   UNL     1       4.951   6.177  19.985  0.00  0.00    +0.000 HD
ENDROOT
TORSDOF 0
ENDMDL
MODEL 6
REMARK VINA RESULT:      -6.5      1.607      3.514
REMARK  Name = 
REMARK  0 active torsions:
REMARK  status: ('A' for Active; 'I' for Inactive)
REMARK                            x       y       z     vdW  Elec       q    Type
REMARK                         _______ _______ _______ _____ _____    ______ ____
ROOT
ATOM      1  C   UNL     1       2.132   2.589  21.889  0.00  0.00    +0.000 C 
ATOM      2  C   UNL     1       1.084   2.950  20.829  0.00  0.00    +0.000 C 
ATOM      3  C   UNL     1       1.918   3.673  19.785  0.00  0.00    +0.000 C 
ATOM      4  C   UNL     1       1.388   3.718  18.341  0.00  0.00    +0.000 C 
ATOM      5  C   UNL     1       2.475   4.343  17.427  0.00  0.00    +0.000 C 
ATOM      6  C   UNL     1       2.778   5.775  17.899  0.00  0.00    +0.000 C 
ATOM      7  C   UNL     1       3.286   5.753  19.348  0.00  0.00    +0.000 C 
ATOM      8  C   UNL     1       4.558   4.894  19.463  0.00  0.00    +0.000 C 
ATOM      9  C   UNL     1       4.286   3.461  18.970  0.00  0.00    +0.000 C 
ATOM     10  C   UNL     1       3.789   3.533  17.507  0.00  0.00    +0.000 C 
ATOM     11  C   UNL     1       3.173   2.786  19.784  0.00  0.00    +0.000 C 
ATOM     12  N   UNL     1       3.437   2.506  21.200  0.00  0.00    +0.000 NA
ATOM     13  C   UNL     1       2.209   5.130  20.238  0.00  0.00    +0.000 C 
ATOM     14  H   UNL     1       3.811   1.559  21.291  0.00  0.00    +0.000 HD
ENDROOT
TORSDOF 0
ENDMDL
MODEL 7
REMARK VINA RESULT:      -6.5      1.689      3.591
REMARK  Name = 
REMARK  0 active torsions:
REMARK  status: ('A' for Active; 'I' for Inactive)
REMARK                            x       y       z     vdW  Elec       q    Type
REMARK                         _______ _______ _______ _____ _____    ______ ____
ROOT
ATOM      1  C   UNL     1       1.484   2.893  21.442  0.00  0.00    +0.000 C 
ATOM      2  C   UNL     1       2.957   2.583  21.151  0.00  0.00    +0.000 C 
ATOM      3  C   UNL     1       3.166   3.254  19.804  0.00  0.00    +0.000 C 
ATOM      4  C   UNL     1       4.600   3.653  19.411  0.00  0.00    +0.000 C 
ATOM      5  C   UNL     1       4.549   4.471  18.094  0.00  0.00    +0.000 C 
ATOM      6  C   UNL     1       3.941   3.605  16.977  0.00  0.00    +0.000 C 
ATOM      7  C   UNL     1       2.518   3.176  17.362  0.00  0.00    +0.000 C 
ATOM      8  C   UNL     1       1.626   4.409  17.600  0.00  0.00    +0.000 C 
ATOM      9  C   UNL     1       2.229   5.306  18.696  0.00  0.00    +0.000 C 
ATOM     10  C   UNL     1       3.655   5.721  18.260  0.00  0.00    +0.000 C 
ATOM     11  C   UNL     1       2.375   4.552  20.026  0.00  0.00    +0.000 C 
ATOM     12  N   UNL     1       1.147   4.131  20.709  0.00  0.00    +0.000 NA
ATOM     13  C   UNL     1       2.580   2.376  18.664  0.00  0.00    +0.000 C 
ATOM     14  H   UNL     1       0.867   4.855  21.374  0.00  0.00    +0.000 HD
ENDROOT
TORSDOF 0
ENDMDL
MODEL 8
REMARK VINA RESULT:      -6.5      1.888      3.617
REMARK  Name = 
REMARK  0 active torsions:
REMARK  status: ('A' for Active; 'I' for Inactive)
REMARK                            x       y       z     vdW  Elec       q    Type
REMARK                         _______ _______ _______ _____ _____    ______ ____
ROOT
ATOM      1  C   UNL     1       1.289   2.634  21.425  0.00  0.00    +0.000 C 
ATOM      2  C   UNL     1       2.389   3.687  21.611  0.00  0.00    +0.000 C 
ATOM      3  C   UNL     1       2.768   4.013  20.176  0.00  0.00    +0.000 C 
ATOM      4  C   UNL     1       3.421   5.377  19.894  0.00  0.00    +0.000 C 
ATOM      5  C   UNL     1       3.555   5.561  18.359  0.00  0.00    +0.000 C 
ATOM      6  C   UNL     1       4.446   4.446  17.786  0.00  0.00    +0.000 C 
ATOM      7  C   UNL     1       3.821   3.073  18.080  0.00  0.00    +0.000 C 
ATOM      8  C   UNL     1       2.414   2.975  17.462  0.00  0.00    +0.000 C 
ATOM      9  C   UNL     1       1.511   4.100  18.001  0.00  0.00    +0.000 C 
ATOM     10  C   UNL     1       2.173   5.459  17.673  0.00  0.00    +0.000 C 
ATOM     11  C   UNL     1       1.374   4.031  19.529  0.00  0.00    +0.000 C 
ATOM     12  N   UNL     1       0.679   2.872  20.100  0.00  0.00    +0.000 NA
ATOM     13  C   UNL     1       3.689   2.906  19.594  0.00  0.00    +0.000 C 
ATOM     14  H   UNL     1      -0.311   3.097  20.216  0.00  0.00    +0.000 HD
ENDROOT
TORSDOF 0
ENDMDL
MODEL 9
REMARK VINA RESULT:      -6.5      1.144      2.402
REMARK  Name = 
REMARK  0 active torsions:
REMARK  status: ('A' for Active; 'I' for Inactive)
REMARK                            x       y       z     vdW  Elec       q    Type
REMARK                         _______ _______ _______ _____ _____    ______ ____
ROOT
ATOM      1  C   UNL     1       5.439   5.894  17.928  0.00  0.00    +0.000 C 
ATOM      2  C   UNL     1       5.539   4.946  19.130  0.00  0.00    +0.000 C 
ATOM      3  C   UNL     1       4.215   4.204  19.064  0.00  0.00    +0.000 C 
ATOM      4  C   UNL     1       4.130   2.818  19.728  0.00  0.00    +0.000 C 
ATOM      5  C   UNL     1       2.757   2.181  19.385  0.00  0.00    +0.000 C 
ATOM      6  C   UNL     1       1.629   3.073  19.932  0.00  0.00    +0.000 C 
ATOM      7  C   UNL     1       1.712   4.470  19.299  0.00  0.00    +0.000 C 
ATOM      8  C   UNL     1       1.597   4.378  17.766  0.00  0.00    +0.000 C 
ATOM      9  C   UNL     1       2.702   3.467  17.198  0.00  0.00    +0.000 C 
ATOM     10  C   UNL     1       2.571   2.072  17.855  0.00  0.00    +0.000 C 
ATOM     11  C   UNL     1       4.101   3.992  17.546  0.00  0.00    +0.000 C 
ATOM     12  N   UNL     1       4.517   5.269  16.957  0.00  0.00    +0.000 NA
ATOM     13  C   UNL     1       3.071   5.085  19.638  0.00  0.00    +0.000 C 
ATOM     14  H   UNL     1       5.015   5.090  16.082  0.00  0.00    +0.000 HD
ENDROOT
TORSDOF 0
ENDMDL
