MODEL 1
REMARK VINA RESULT:      -7.7      0.000      0.000
REMARK  Name = 
REMARK  4 active torsions:
REMARK  status: ('A' for Active; 'I' for Inactive)
REMARK    1  A    between atoms: C_1  and  C_2
REMARK    2  A    between atoms: C_2  and  C_3
REMARK    3  A    between atoms: C_3  and  N_4
REMARK    4  A    between atoms: C_7  and  C_8
REMARK                            x       y       z     vdW  Elec       q    Type
REMARK                         _______ _______ _______ _____ _____    ______ ____
ROOT
ATOM      1  N   UNL     1       5.533   4.142  13.877  0.00  0.00    +0.000 N 
ATOM      2  C   UNL     1       5.976   4.327  15.171  0.00  0.00    +0.000 A 
ATOM      3  C   UNL     1       4.987   4.225  16.274  0.00  0.00    +0.000 A 
ATOM      4  C   UNL     1       5.398   4.371  17.539  0.00  0.00    +0.000 A 
ATOM      5  C   UNL     1       6.832   4.655  17.802  0.00  0.00    +0.000 A 
ATOM      6  O   UNL     1       7.276   4.811  18.935  0.00  0.00    +0.000 OA
ATOM      7  N   UNL     1       7.633   4.741  16.693  0.00  0.00    +0.000 N 
ATOM      8  N   UNL     1       7.236   4.575  15.401  0.00  0.00    +0.000 NA
ATOM      9  H   UNL     1       4.597   3.766  13.775  0.00  0.00    +0.000 HD
ATOM     10  H   UNL     1       8.613   4.945  16.842  0.00  0.00    +0.000 HD
ENDROOT
BRANCH   4  11
ATOM     11  C   UNL     1       4.418   4.268  18.624  0.00  0.00    +0.000 A 
ATOM     12  C   UNL     1       4.128   3.031  19.214  0.00  0.00    +0.000 A 
ATOM     13  C   UNL     1       3.152   2.939  20.208  0.00  0.00    +0.000 A 
ATOM     14  C   UNL     1       2.461   4.079  20.617  0.00  0.00    +0.000 A 
ATOM     15  C   UNL     1       2.747   5.315  20.037  0.00  0.00    +0.000 A 
ATOM     16  C   UNL     1       3.723   5.409  19.044  0.00  0.00    +0.000 A 
ENDBRANCH   4  11
BRANCH   1  17
ATOM     17  C   UNL     1       6.455   3.728  12.830  0.00  0.00    +0.000 C 
BRANCH  17  19
ATOM     18  C   UNL     1       4.353   3.253  11.545  0.00  0.00    +0.000 C 
ATOM     19  C   UNL     1       5.764   2.778  11.858  0.00  0.00    +0.000 C 
ENDBRANCH  17  19
ENDBRANCH   1  17
TORSDOF 3
ENDMDL
MODEL 2
REMARK VINA RESULT:      -7.7      0.071      1.175
REMARK  Name = 
REMARK  4 active torsions:
REMARK  status: ('A' for Active; 'I' for Inactive)
REMARK    1  A    between atoms: C_1  and  C_2
REMARK    2  A    between atoms: C_2  and  C_3
REMARK    3  A    between atoms: C_3  and  N_4
REMARK    4  A    between atoms: C_7  and  C_8
REMARK                            x       y       z     vdW  Elec       q    Type
REMARK                         _______ _______ _______ _____ _____    ______ ____
ROOT
ATOM      1  N   UNL     1       5.543   4.138  13.887  0.00  0.00    +0.000 N 
ATOM      2  C   UNL     1       5.959   4.324  15.189  0.00  0.00    +0.000 A 
ATOM      3  C   UNL     1       4.946   4.239  16.271  0.00  0.00    +0.000 A 
ATOM      4  C   UNL     1       5.330   4.386  17.543  0.00  0.00    +0.000 A 
ATOM      5  C   UNL     1       6.761   4.656  17.837  0.00  0.00    +0.000 A 
ATOM      6  O   UNL     1       7.181   4.812  18.979  0.00  0.00    +0.000 OA
ATOM      7  N   UNL     1       7.587   4.727  16.745  0.00  0.00    +0.000 N 
ATOM      8  N   UNL     1       7.217   4.559  15.446  0.00  0.00    +0.000 NA
ATOM      9  H   UNL     1       4.605   3.773  13.766  0.00  0.00    +0.000 HD
ATOM     10  H   UNL     1       8.566   4.921  16.915  0.00  0.00    +0.000 HD
ENDROOT
BRANCH   4  11
ATOM     11  C   UNL     1       4.325   4.300  18.607  0.00  0.00    +0.000 A 
ATOM     12  C   UNL     1       3.649   5.444  19.050  0.00  0.00    +0.000 A 
ATOM     13  C   UNL     1       2.735   5.356  20.101  0.00  0.00    +0.000 A 
ATOM     14  C   UNL     1       2.490   4.127  20.714  0.00  0.00    +0.000 A 
ATOM     15  C   UNL     1       3.155   2.983  20.275  0.00  0.00    +0.000 A 
ATOM     16  C   UNL     1       4.069   3.069  19.224  0.00  0.00    +0.000 A 
ENDBRANCH   4  11
BRANCH   1  17
ATOM     17  C   UNL     1       6.483   3.709  12.862  0.00  0.00    +0.000 C 
BRANCH  17  19
ATOM     18  C   UNL     1       4.406   3.269  11.526  0.00  0.00    +0.000 C 
ATOM     19  C   UNL     1       5.800   2.770  11.874  0.00  0.00    +0.000 C 
ENDBRANCH  17  19
ENDBRANCH   1  17
TORSDOF 3
ENDMDL
MODEL 3
REMARK VINA RESULT:      -7.5      1.081      1.112
REMARK  Name = 
REMARK  4 active torsions:
REMARK  status: ('A' for Active; 'I' for Inactive)
REMARK    1  A    between atoms: C_1  and  C_2
REMARK    2  A    between atoms: C_2  and  C_3
REMARK    3  A    between atoms: C_3  and  N_4
REMARK    4  A    between atoms: C_7  and  C_8
REMARK                            x       y       z     vdW  Elec       q    Type
REMARK                         _______ _______ _______ _____ _____    ______ ____
ROOT
ATOM      1  N   UNL     1       5.334   4.259  14.151  0.00  0.00    +0.000 N 
ATOM      2  C   UNL     1       5.512   4.263  15.520  0.00  0.00    +0.000 A 
ATOM      3  C   UNL     1       4.315   4.118  16.386  0.00  0.00    +0.000 A 
ATOM      4  C   UNL     1       4.465   4.089  17.715  0.00  0.00    +0.000 A 
ATOM      5  C   UNL     1       5.828   4.229  18.288  0.00  0.00    +0.000 A 
ATOM      6  O   UNL     1       6.038   4.222  19.497  0.00  0.00    +0.000 OA
ATOM      7  N   UNL     1       6.842   4.373  17.377  0.00  0.00    +0.000 N 
ATOM      8  N   UNL     1       6.711   4.384  16.023  0.00  0.00    +0.000 NA
ATOM      9  H   UNL     1       4.420   3.972  13.821  0.00  0.00    +0.000 HD
ATOM     10  H   UNL     1       7.782   4.482  17.741  0.00  0.00    +0.000 HD
ENDROOT
BRANCH   4  11
ATOM     11  C   UNL     1       3.279   3.944  18.564  0.00  0.00    +0.000 A 
ATOM     12  C   UNL     1       2.571   2.737  18.607  0.00  0.00    +0.000 A 
ATOM     13  C   UNL     1       1.411   2.629  19.377  0.00  0.00    +0.000 A 
ATOM     14  C   UNL     1       0.953   3.726  20.107  0.00  0.00    +0.000 A 
ATOM     15  C   UNL     1       1.656   4.931  20.073  0.00  0.00    +0.000 A 
ATOM     16  C   UNL     1       2.816   5.039  19.304  0.00  0.00    +0.000 A 
ENDBRANCH   4  11
BRANCH   1  17
ATOM     17  C   UNL     1       6.427   3.892  13.263  0.00  0.00    +0.000 C 
BRANCH  17  19
ATOM     18  C   UNL     1       4.523   3.363  11.717  0.00  0.00    +0.000 C 
ATOM     19  C   UNL     1       5.926   2.971  12.156  0.00  0.00    +0.000 C 
ENDBRANCH  17  19
ENDBRANCH   1  17
TORSDOF 3
ENDMDL
MODEL 4
REMARK VINA RESULT:      -7.4      1.182      1.675
REMARK  Name = 
REMARK  4 active torsions:
REMARK  status: ('A' for Active; 'I' for Inactive)
REMARK    1  A    between atoms: C_1  and  C_2
REMARK    2  A    between atoms: C_2  and  C_3
REMARK    3  A    between atoms: C_3  and  N_4
REMARK    4  A    between atoms: C_7  and  C_8
REMARK                            x       y       z     vdW  Elec       q    Type
REMARK                         _______ _______ _______ _____ _____    ______ ____
ROOT
ATOM      1  N   UNL     1       5.482   4.239  14.221  0.00  0.00    +0.000 N 
ATOM      2  C   UNL     1       5.580   4.230  15.598  0.00  0.00    +0.000 A 
ATOM      3  C   UNL     1       4.338   4.042  16.389  0.00  0.00    +0.000 A 
ATOM      4  C   UNL     1       4.411   4.001  17.724  0.00  0.00    +0.000 A 
ATOM      5  C   UNL     1       5.733   4.169  18.379  0.00  0.00    +0.000 A 
ATOM      6  O   UNL     1       5.872   4.153  19.598  0.00  0.00    +0.000 OA
ATOM      7  N   UNL     1       6.795   4.352  17.532  0.00  0.00    +0.000 N 
ATOM      8  N   UNL     1       6.743   4.376  16.172  0.00  0.00    +0.000 NA
ATOM      9  H   UNL     1       4.597   3.932  13.834  0.00  0.00    +0.000 HD
ATOM     10  H   UNL     1       7.708   4.480  17.951  0.00  0.00    +0.000 HD
ENDROOT
BRANCH   4  11
ATOM     11  C   UNL     1       3.181   3.814  18.500  0.00  0.00    +0.000 A 
ATOM     12  C   UNL     1       2.603   4.882  19.198  0.00  0.00    +0.000 A 
ATOM     13  C   UNL     1       1.464   4.678  19.978  0.00  0.00    +0.000 A 
ATOM     14  C   UNL     1       0.896   3.407  20.065  0.00  0.00    +0.000 A 
ATOM     15  C   UNL     1       1.463   2.339  19.370  0.00  0.00    +0.000 A 
ATOM     16  C   UNL     1       2.601   2.542  18.590  0.00  0.00    +0.000 A 
ENDBRANCH   4  11
BRANCH   1  17
ATOM     17  C   UNL     1       6.635   3.912  13.395  0.00  0.00    +0.000 C 
BRANCH  17  19
ATOM     18  C   UNL     1       4.672   3.260  11.975  0.00  0.00    +0.000 C 
ATOM     19  C   UNL     1       6.184   3.420  12.024  0.00  0.00    +0.000 C 
ENDBRANCH  17  19
ENDBRANCH   1  17
TORSDOF 3
ENDMDL
MODEL 5
REMARK VINA RESULT:      -7.3      2.017      6.026
REMARK  Name = 
REMARK  4 active torsions:
REMARK  status: ('A' for Active; 'I' for Inactive)
REMARK    1  A    between atoms: C_1  and  C_2
REMARK    2  A    between atoms: C_2  and  C_3
REMARK    3  A    between atoms: C_3  and  N_4
REMARK    4  A    between atoms: C_7  and  C_8
REMARK                            x       y       z     vdW  Elec       q    Type
REMARK                         _______ _______ _______ _____ _____    ______ ____
ROOT
ATOM      1  N   UNL     1       2.809   4.216  18.064  0.00  0.00    +0.000 N 
ATOM      2  C   UNL     1       4.164   4.222  17.805  0.00  0.00    +0.000 A 
ATOM      3  C   UNL     1       4.609   4.224  16.388  0.00  0.00    +0.000 A 
ATOM      4  C   UNL     1       5.917   4.260  16.111  0.00  0.00    +0.000 A 
ATOM      5  C   UNL     1       6.890   4.271  17.232  0.00  0.00    +0.000 A 
ATOM      6  O   UNL     1       8.104   4.292  17.051  0.00  0.00    +0.000 OA
ATOM      7  N   UNL     1       6.346   4.248  18.490  0.00  0.00    +0.000 N 
ATOM      8  N   UNL     1       5.019   4.233  18.791  0.00  0.00    +0.000 NA
ATOM      9  H   UNL     1       2.202   4.400  17.274  0.00  0.00    +0.000 HD
ATOM     10  H   UNL     1       6.987   4.244  19.274  0.00  0.00    +0.000 HD
ENDROOT
BRANCH   4  11
ATOM     11  C   UNL     1       6.349   4.264  14.710  0.00  0.00    +0.000 A 
ATOM     12  C   UNL     1       7.346   5.144  14.269  0.00  0.00    +0.000 A 
ATOM     13  C   UNL     1       7.709   5.176  12.922  0.00  0.00    +0.000 A 
ATOM     14  C   UNL     1       7.079   4.330  12.008  0.00  0.00    +0.000 A 
ATOM     15  C   UNL     1       6.090   3.447  12.441  0.00  0.00    +0.000 A 
ATOM     16  C   UNL     1       5.726   3.414  13.787  0.00  0.00    +0.000 A 
ENDBRANCH   4  11
BRANCH   1  17
ATOM     17  C   UNL     1       2.296   4.710  19.334  0.00  0.00    +0.000 C 
BRANCH  17  19
ATOM     18  C   UNL     1       0.912   2.668  18.875  0.00  0.00    +0.000 C 
ATOM     19  C   UNL     1       1.229   3.766  19.879  0.00  0.00    +0.000 C 
ENDBRANCH  17  19
ENDBRANCH   1  17
TORSDOF 3
ENDMDL
MODEL 6
REMARK VINA RESULT:      -7.2      1.381      2.065
REMARK  Name = 
REMARK  4 active torsions:
REMARK  status: ('A' for Active; 'I' for Inactive)
REMARK    1  A    between atoms: C_1  and  C_2
REMARK    2  A    between atoms: C_2  and  C_3
REMARK    3  A    between atoms: C_3  and  N_4
REMARK    4  A    between atoms: C_7  and  C_8
REMARK                            x       y       z     vdW  Elec       q    Type
REMARK                         _______ _______ _______ _____ _____    ______ ____
ROOT
ATOM      1  N   UNL     1       5.510   4.127  13.528  0.00  0.00    +0.000 N 
ATOM      2  C   UNL     1       5.903   4.833  14.647  0.00  0.00    +0.000 A 
ATOM      3  C   UNL     1       4.880   5.141  15.679  0.00  0.00    +0.000 A 
ATOM      4  C   UNL     1       5.243   5.798  16.786  0.00  0.00    +0.000 A 
ATOM      5  C   UNL     1       6.657   6.224  16.940  0.00  0.00    +0.000 A 
ATOM      6  O   UNL     1       7.056   6.840  17.924  0.00  0.00    +0.000 OA
ATOM      7  N   UNL     1       7.492   5.891  15.906  0.00  0.00    +0.000 N 
ATOM      8  N   UNL     1       7.146   5.205  14.782  0.00  0.00    +0.000 NA
ATOM      9  H   UNL     1       4.590   3.703  13.567  0.00  0.00    +0.000 HD
ATOM     10  H   UNL     1       8.461   6.179  15.979  0.00  0.00    +0.000 HD
ENDROOT
BRANCH   4  11
ATOM     11  C   UNL     1       4.229   6.098  17.801  0.00  0.00    +0.000 A 
ATOM     12  C   UNL     1       3.453   7.261  17.719  0.00  0.00    +0.000 A 
ATOM     13  C   UNL     1       2.530   7.563  18.722  0.00  0.00    +0.000 A 
ATOM     14  C   UNL     1       2.377   6.705  19.811  0.00  0.00    +0.000 A 
ATOM     15  C   UNL     1       3.143   5.542  19.898  0.00  0.00    +0.000 A 
ATOM     16  C   UNL     1       4.065   5.240  18.896  0.00  0.00    +0.000 A 
ENDBRANCH   4  11
BRANCH   1  17
ATOM     17  C   UNL     1       6.480   3.367  12.753  0.00  0.00    +0.000 C 
BRANCH  17  19
ATOM     18  C   UNL     1       4.397   3.168  11.369  0.00  0.00    +0.000 C 
ATOM     19  C   UNL     1       5.783   2.601  11.634  0.00  0.00    +0.000 C 
ENDBRANCH  17  19
ENDBRANCH   1  17
TORSDOF 3
ENDMDL
MODEL 7
REMARK VINA RESULT:      -7.2      1.926      6.114
REMARK  Name = 
REMARK  4 active torsions:
REMARK  status: ('A' for Active; 'I' for Inactive)
REMARK    1  A    between atoms: C_1  and  C_2
REMARK    2  A    between atoms: C_2  and  C_3
REMARK    3  A    between atoms: C_3  and  N_4
REMARK    4  A    between atoms: C_7  and  C_8
REMARK                            x       y       z     vdW  Elec       q    Type
REMARK                         _______ _______ _______ _____ _____    ______ ____
ROOT
ATOM      1  N   UNL     1       2.820   4.442  18.236  0.00  0.00    +0.000 N 
ATOM      2  C   UNL     1       4.165   4.378  17.931  0.00  0.00    +0.000 A 
ATOM      3  C   UNL     1       4.562   4.377  16.500  0.00  0.00    +0.000 A 
ATOM      4  C   UNL     1       5.861   4.346  16.180  0.00  0.00    +0.000 A 
ATOM      5  C   UNL     1       6.870   4.289  17.268  0.00  0.00    +0.000 A 
ATOM      6  O   UNL     1       8.076   4.247  17.047  0.00  0.00    +0.000 OA
ATOM      7  N   UNL     1       6.366   4.278  18.543  0.00  0.00    +0.000 N 
ATOM      8  N   UNL     1       5.051   4.330  18.888  0.00  0.00    +0.000 NA
ATOM      9  H   UNL     1       2.199   4.670  17.469  0.00  0.00    +0.000 HD
ATOM     10  H   UNL     1       7.032   4.227  19.306  0.00  0.00    +0.000 HD
ENDROOT
BRANCH   4  11
ATOM     11  C   UNL     1       6.247   4.347  14.766  0.00  0.00    +0.000 A 
ATOM     12  C   UNL     1       5.634   3.477  13.855  0.00  0.00    +0.000 A 
ATOM     13  C   UNL     1       6.050   3.449  12.522  0.00  0.00    +0.000 A 
ATOM     14  C   UNL     1       7.078   4.289  12.093  0.00  0.00    +0.000 A 
ATOM     15  C   UNL     1       7.689   5.161  12.994  0.00  0.00    +0.000 A 
ATOM     16  C   UNL     1       7.275   5.190  14.326  0.00  0.00    +0.000 A 
ENDBRANCH   4  11
BRANCH   1  17
ATOM     17  C   UNL     1       2.377   4.944  19.528  0.00  0.00    +0.000 C 
BRANCH  17  19
ATOM     18  C   UNL     1       1.999   2.986  21.051  0.00  0.00    +0.000 C 
ATOM     19  C   UNL     1       1.339   4.006  20.135  0.00  0.00    +0.000 C 
ENDBRANCH  17  19
ENDBRANCH   1  17
TORSDOF 3
ENDMDL
MODEL 8
REMARK VINA RESULT:      -7.1      0.939      1.603
REMARK  Name = 
REMARK  4 active torsions:
REMARK  status: ('A' for Active; 'I' for Inactive)
REMARK    1  A    between atoms: C_1  and  C_2
REMARK    2  A    between atoms: C_2  and  C_3
REMARK    3  A    between atoms: C_3  and  N_4
REMARK    4  A    between atoms: C_7  and  C_8
REMARK                            x       y       z     vdW  Elec       q    Type
REMARK                         _______ _______ _______ _____ _____    ______ ____
ROOT
ATOM      1  N   UNL     1       5.362   4.274  14.658  0.00  0.00    +0.000 N 
ATOM      2  C   UNL     1       5.681   4.530  15.976  0.00  0.00    +0.000 A 
ATOM      3  C   UNL     1       4.644   4.284  17.011  0.00  0.00    +0.000 A 
ATOM      4  C   UNL     1       4.939   4.496  18.298  0.00  0.00    +0.000 A 
ATOM      5  C   UNL     1       6.291   4.995  18.655  0.00  0.00    +0.000 A 
ATOM      6  O   UNL     1       6.626   5.221  19.813  0.00  0.00    +0.000 OA
ATOM      7  N   UNL     1       7.146   5.196  17.602  0.00  0.00    +0.000 N 
ATOM      8  N   UNL     1       6.870   4.966  16.289  0.00  0.00    +0.000 NA
ATOM      9  H   UNL     1       4.503   3.761  14.498  0.00  0.00    +0.000 HD
ATOM     10  H   UNL     1       8.072   5.547  17.814  0.00  0.00    +0.000 HD
ENDROOT
BRANCH   4  11
ATOM     11  C   UNL     1       3.912   4.250  19.315  0.00  0.00    +0.000 A 
ATOM     12  C   UNL     1       3.087   5.288  19.766  0.00  0.00    +0.000 A 
ATOM     13  C   UNL     1       2.150   5.054  20.774  0.00  0.00    +0.000 A 
ATOM     14  C   UNL     1       2.033   3.782  21.337  0.00  0.00    +0.000 A 
ATOM     15  C   UNL     1       2.847   2.742  20.889  0.00  0.00    +0.000 A 
ATOM     16  C   UNL     1       3.784   2.976  19.881  0.00  0.00    +0.000 A 
ENDBRANCH   4  11
BRANCH   1  17
ATOM     17  C   UNL     1       6.407   4.001  13.683  0.00  0.00    +0.000 C 
BRANCH  17  19
ATOM     18  C   UNL     1       6.878   2.739  11.565  0.00  0.00    +0.000 C 
ATOM     19  C   UNL     1       5.806   3.408  12.413  0.00  0.00    +0.000 C 
ENDBRANCH  17  19
ENDBRANCH   1  17
TORSDOF 3
ENDMDL
MODEL 9
REMARK VINA RESULT:      -7.1      2.042      2.328
REMARK  Name = 
REMARK  4 active torsions:
REMARK  status: ('A' for Active; 'I' for Inactive)
REMARK    1  A    between atoms: C_1  and  C_2
REMARK    2  A    between atoms: C_2  and  C_3
REMARK    3  A    between atoms: C_3  and  N_4
REMARK    4  A    between atoms: C_7  and  C_8
REMARK                            x       y       z     vdW  Elec       q    Type
REMARK                         _______ _______ _______ _____ _____    ______ ____
ROOT
ATOM      1  N   UNL     1       5.799   4.047  14.649  0.00  0.00    +0.000 N 
ATOM      2  C   UNL     1       5.160   4.826  15.593  0.00  0.00    +0.000 A 
ATOM      3  C   UNL     1       4.308   4.150  16.603  0.00  0.00    +0.000 A 
ATOM      4  C   UNL     1       3.703   4.881  17.546  0.00  0.00    +0.000 A 
ATOM      5  C   UNL     1       3.881   6.355  17.540  0.00  0.00    +0.000 A 
ATOM      6  O   UNL     1       3.347   7.087  18.368  0.00  0.00    +0.000 OA
ATOM      7  N   UNL     1       4.679   6.851  16.542  0.00  0.00    +0.000 N 
ATOM      8  N   UNL     1       5.319   6.122  15.588  0.00  0.00    +0.000 NA
ATOM      9  H   UNL     1       5.794   3.048  14.818  0.00  0.00    +0.000 HD
ATOM     10  H   UNL     1       4.810   7.855  16.507  0.00  0.00    +0.000 HD
ENDROOT
BRANCH   4  11
ATOM     11  C   UNL     1       2.864   4.207  18.542  0.00  0.00    +0.000 A 
ATOM     12  C   UNL     1       3.321   4.012  19.852  0.00  0.00    +0.000 A 
ATOM     13  C   UNL     1       2.534   3.320  20.774  0.00  0.00    +0.000 A 
ATOM     14  C   UNL     1       1.289   2.818  20.394  0.00  0.00    +0.000 A 
ATOM     15  C   UNL     1       0.825   3.013  19.093  0.00  0.00    +0.000 A 
ATOM     16  C   UNL     1       1.610   3.705  18.170  0.00  0.00    +0.000 A 
ENDBRANCH   4  11
BRANCH   1  17
ATOM     17  C   UNL     1       6.997   4.530  13.979  0.00  0.00    +0.000 C 
BRANCH  17  19
ATOM     18  C   UNL     1       5.768   3.266  12.193  0.00  0.00    +0.000 C 
ATOM     19  C   UNL     1       6.975   4.138  12.505  0.00  0.00    +0.000 C 
ENDBRANCH  17  19
ENDBRANCH   1  17
TORSDOF 3
ENDMDL
