MODEL 1
REMARK VINA RESULT:      -7.4      0.000      0.000
REMARK  Name = 
REMARK  9 active torsions:
REMARK  status: ('A' for Active; 'I' for Inactive)
REMARK    1  A    between atoms: C_4  and  C_5
REMARK    2  A    between atoms: N_7  and  O_8
REMARK    3  A    between atoms: N_9  and  S_10
REMARK    4  A    between atoms: S_10  and  C_13
REMARK    5  A    between atoms: C_16  and  O_17
REMARK    6  A    between atoms: O_17  and  C_18
REMARK    7  A    between atoms: C_18  and  C_19
REMARK    8  A    between atoms: C_19  and  O_20
REMARK    9  A    between atoms: O_20  and  C_21
REMARK                            x       y       z     vdW  Elec       q    Type
REMARK                         _______ _______ _______ _____ _____    ______ ____
ROOT
ATOM      1  S   UNL     1       4.192   5.377  18.714  0.00  0.00    +0.000 S 
ATOM      2  O   UNL     1       3.403   4.184  18.496  0.00  0.00    +0.000 OA
ATOM      3  O   UNL     1       5.124   5.480  19.810  0.00  0.00    +0.000 OA
ENDROOT
BRANCH   1   8
ATOM      4  C   UNL     1       6.468   3.978  14.396  0.00  0.00    +0.000 C 
ATOM      5  C   UNL     1       6.087   4.818  15.368  0.00  0.00    +0.000 C 
ATOM      6  C   UNL     1       6.884   5.997  15.829  0.00  0.00    +0.000 C 
ATOM      7  C   UNL     1       6.452   6.136  17.291  0.00  0.00    +0.000 C 
ATOM      8  N   UNL     1       5.025   5.707  17.274  0.00  0.00    +0.000 NA
ATOM      9  C   UNL     1       4.887   4.636  16.253  0.00  0.00    +0.000 C 
BRANCH   7  10
ATOM     10  C   UNL     1       7.389   5.347  18.195  0.00  0.00    +0.000 C 
ATOM     11  O   UNL     1       7.755   4.193  17.977  0.00  0.00    +0.000 OA
ATOM     12  N   UNL     1       7.831   6.053  19.298  0.00  0.00    +0.000 N 
ATOM     13  H   UNL     1       7.300   6.815  19.708  0.00  0.00    +0.000 HD
BRANCH  12  14
ATOM     14  O   UNL     1       8.603   5.291  20.210  0.00  0.00    +0.000 OA
ATOM     15  H   UNL     1       9.430   5.129  19.702  0.00  0.00    +0.000 HD
ENDBRANCH  12  14
ENDBRANCH   7  10
ENDBRANCH   1   8
BRANCH   1  16
ATOM     16  C   UNL     1       3.040   6.713  18.901  0.00  0.00    +0.000 A 
ATOM     17  C   UNL     1       2.878   7.652  17.887  0.00  0.00    +0.000 A 
ATOM     18  C   UNL     1       2.084   8.772  18.106  0.00  0.00    +0.000 A 
ATOM     19  C   UNL     1       1.389   8.933  19.308  0.00  0.00    +0.000 A 
ATOM     20  C   UNL     1       1.494   7.947  20.295  0.00  0.00    +0.000 A 
ATOM     21  C   UNL     1       2.333   6.844  20.101  0.00  0.00    +0.000 A 
BRANCH  19  22
ATOM     22  O   UNL     1       0.586  10.009  19.604  0.00  0.00    +0.000 OA
BRANCH  22  23
ATOM     23  C   UNL     1      -0.064   9.923  20.874  0.00  0.00    +0.000 C 
BRANCH  23  24
ATOM     24  C   UNL     1      -0.086  11.259  21.597  0.00  0.00    +0.000 C 
BRANCH  24  25
ATOM     25  O   UNL     1      -0.256  10.975  22.989  0.00  0.00    +0.000 OA
ATOM     26  C   UNL     1      -0.216   9.584  23.261  0.00  0.00    +0.000 C 
ENDBRANCH  24  25
ENDBRANCH  23  24
ENDBRANCH  22  23
ENDBRANCH  19  22
ENDBRANCH   1  16
TORSDOF 8
ENDMDL
MODEL 2
REMARK VINA RESULT:      -7.4      3.868      6.743
REMARK  Name = 
REMARK  9 active torsions:
REMARK  status: ('A' for Active; 'I' for Inactive)
REMARK    1  A    between atoms: C_4  and  C_5
REMARK    2  A    between atoms: N_7  and  O_8
REMARK    3  A    between atoms: N_9  and  S_10
REMARK    4  A    between atoms: S_10  and  C_13
REMARK    5  A    between atoms: C_16  and  O_17
REMARK    6  A    between atoms: O_17  and  C_18
REMARK    7  A    between atoms: C_18  and  C_19
REMARK    8  A    between atoms: C_19  and  O_20
REMARK    9  A    between atoms: O_20  and  C_21
REMARK                            x       y       z     vdW  Elec       q    Type
REMARK                         _______ _______ _______ _____ _____    ______ ____
ROOT
ATOM      1  S   UNL     1       5.607   4.436  17.872  0.00  0.00    +0.000 S 
ATOM      2  O   UNL     1       5.962   3.720  19.079  0.00  0.00    +0.000 OA
ATOM      3  O   UNL     1       5.746   3.838  16.567  0.00  0.00    +0.000 OA
ENDROOT
BRANCH   1   8
ATOM      4  C   UNL     1       1.592   5.824  20.654  0.00  0.00    +0.000 C 
ATOM      5  C   UNL     1       2.262   5.500  19.540  0.00  0.00    +0.000 C 
ATOM      6  C   UNL     1       1.659   4.802  18.361  0.00  0.00    +0.000 C 
ATOM      7  C   UNL     1       2.858   4.055  17.772  0.00  0.00    +0.000 C 
ATOM      8  N   UNL     1       4.006   4.966  18.047  0.00  0.00    +0.000 NA
ATOM      9  C   UNL     1       3.745   5.642  19.346  0.00  0.00    +0.000 C 
BRANCH   7  10
ATOM     10  C   UNL     1       2.947   2.654  18.358  0.00  0.00    +0.000 C 
ATOM     11  O   UNL     1       2.239   2.239  19.275  0.00  0.00    +0.000 OA
ATOM     12  N   UNL     1       3.891   1.849  17.750  0.00  0.00    +0.000 N 
ATOM     13  H   UNL     1       4.711   2.225  17.284  0.00  0.00    +0.000 HD
BRANCH  12  14
ATOM     14  O   UNL     1       4.069   0.586  18.366  0.00  0.00    +0.000 OA
ATOM     15  H   UNL     1       3.812   0.767  19.299  0.00  0.00    +0.000 HD
ENDBRANCH  12  14
ENDBRANCH   7  10
ENDBRANCH   1   8
BRANCH   1  16
ATOM     16  C   UNL     1       6.587   5.915  17.861  0.00  0.00    +0.000 A 
ATOM     17  C   UNL     1       7.705   6.026  18.681  0.00  0.00    +0.000 A 
ATOM     18  C   UNL     1       8.374   7.242  18.771  0.00  0.00    +0.000 A 
ATOM     19  C   UNL     1       7.981   8.336  17.995  0.00  0.00    +0.000 A 
ATOM     20  C   UNL     1       6.903   8.194  17.114  0.00  0.00    +0.000 A 
ATOM     21  C   UNL     1       6.192   6.991  17.058  0.00  0.00    +0.000 A 
BRANCH  19  22
ATOM     22  O   UNL     1       8.586   9.569  18.025  0.00  0.00    +0.000 OA
BRANCH  22  23
ATOM     23  C   UNL     1       9.085   9.946  19.310  0.00  0.00    +0.000 C 
BRANCH  23  24
ATOM     24  C   UNL     1       9.986  11.166  19.239  0.00  0.00    +0.000 C 
BRANCH  24  25
ATOM     25  O   UNL     1      10.071  11.541  17.861  0.00  0.00    +0.000 OA
ATOM     26  C   UNL     1      11.272  12.234  17.567  0.00  0.00    +0.000 C 
ENDBRANCH  24  25
ENDBRANCH  23  24
ENDBRANCH  22  23
ENDBRANCH  19  22
ENDBRANCH   1  16
TORSDOF 8
ENDMDL
MODEL 3
REMARK VINA RESULT:      -7.3      1.205      1.752
REMARK  Name = 
REMARK  9 active torsions:
REMARK  status: ('A' for Active; 'I' for Inactive)
REMARK    1  A    between atoms: C_4  and  C_5
REMARK    2  A    between atoms: N_7  and  O_8
REMARK    3  A    between atoms: N_9  and  S_10
REMARK    4  A    between atoms: S_10  and  C_13
REMARK    5  A    between atoms: C_16  and  O_17
REMARK    6  A    between atoms: O_17  and  C_18
REMARK    7  A    between atoms: C_18  and  C_19
REMARK    8  A    between atoms: C_19  and  O_20
REMARK    9  A    between atoms: O_20  and  C_21
REMARK                            x       y       z     vdW  Elec       q    Type
REMARK                         _______ _______ _______ _____ _____    ______ ____
ROOT
ATOM      1  S   UNL     1       4.230   4.028  18.502  0.00  0.00    +0.000 S 
ATOM      2  O   UNL     1       3.321   2.982  18.081  0.00  0.00    +0.000 OA
ATOM      3  O   UNL     1       5.365   3.750  19.346  0.00  0.00    +0.000 OA
ENDROOT
BRANCH   1   8
ATOM      4  C   UNL     1       6.537   4.097  13.978  0.00  0.00    +0.000 C 
ATOM      5  C   UNL     1       5.953   4.614  15.068  0.00  0.00    +0.000 C 
ATOM      6  C   UNL     1       6.308   5.935  15.674  0.00  0.00    +0.000 C 
ATOM      7  C   UNL     1       5.962   5.726  17.150  0.00  0.00    +0.000 C 
ATOM      8  N   UNL     1       4.784   4.813  17.105  0.00  0.00    +0.000 NA
ATOM      9  C   UNL     1       4.963   3.900  15.945  0.00  0.00    +0.000 C 
BRANCH   7  10
ATOM     10  C   UNL     1       7.180   5.225  17.912  0.00  0.00    +0.000 C 
ATOM     11  O   UNL     1       7.971   4.385  17.483  0.00  0.00    +0.000 OA
ATOM     12  N   UNL     1       7.354   5.820  19.147  0.00  0.00    +0.000 N 
ATOM     13  H   UNL     1       6.582   6.206  19.681  0.00  0.00    +0.000 HD
BRANCH  12  14
ATOM     14  O   UNL     1       8.412   5.276  19.916  0.00  0.00    +0.000 OA
ATOM     15  H   UNL     1       9.013   4.918  19.224  0.00  0.00    +0.000 HD
ENDBRANCH  12  14
ENDBRANCH   7  10
ENDBRANCH   1   8
BRANCH   1  16
ATOM     16  C   UNL     1       3.246   5.234  19.353  0.00  0.00    +0.000 A 
ATOM     17  C   UNL     1       2.511   4.878  20.479  0.00  0.00    +0.000 A 
ATOM     18  C   UNL     1       1.632   5.794  21.045  0.00  0.00    +0.000 A 
ATOM     19  C   UNL     1       1.528   7.094  20.541  0.00  0.00    +0.000 A 
ATOM     20  C   UNL     1       2.327   7.470  19.456  0.00  0.00    +0.000 A 
ATOM     21  C   UNL     1       3.174   6.537  18.848  0.00  0.00    +0.000 A 
BRANCH  19  22
ATOM     22  O   UNL     1       0.685   8.056  21.041  0.00  0.00    +0.000 OA
BRANCH  22  23
ATOM     23  C   UNL     1       1.276   8.893  22.038  0.00  0.00    +0.000 C 
BRANCH  23  24
ATOM     24  C   UNL     1       0.253   9.398  23.042  0.00  0.00    +0.000 C 
BRANCH  24  25
ATOM     25  O   UNL     1       0.051  10.786  22.765  0.00  0.00    +0.000 OA
ATOM     26  C   UNL     1      -1.287  11.190  23.003  0.00  0.00    +0.000 C 
ENDBRANCH  24  25
ENDBRANCH  23  24
ENDBRANCH  22  23
ENDBRANCH  19  22
ENDBRANCH   1  16
TORSDOF 8
ENDMDL
MODEL 4
REMARK VINA RESULT:      -7.1      4.042      6.459
REMARK  Name = 
REMARK  9 active torsions:
REMARK  status: ('A' for Active; 'I' for Inactive)
REMARK    1  A    between atoms: C_4  and  C_5
REMARK    2  A    between atoms: N_7  and  O_8
REMARK    3  A    between atoms: N_9  and  S_10
REMARK    4  A    between atoms: S_10  and  C_13
REMARK    5  A    between atoms: C_16  and  O_17
REMARK    6  A    between atoms: O_17  and  C_18
REMARK    7  A    between atoms: C_18  and  C_19
REMARK    8  A    between atoms: C_19  and  O_20
REMARK    9  A    between atoms: O_20  and  C_21
REMARK                            x       y       z     vdW  Elec       q    Type
REMARK                         _______ _______ _______ _____ _____    ______ ____
ROOT
ATOM      1  S   UNL     1       5.502   4.398  17.881  0.00  0.00    +0.000 S 
ATOM      2  O   UNL     1       5.897   3.676  19.072  0.00  0.00    +0.000 OA
ATOM      3  O   UNL     1       5.703   3.851  16.562  0.00  0.00    +0.000 OA
ENDROOT
BRANCH   1   8
ATOM      4  C   UNL     1       1.374   5.457  20.642  0.00  0.00    +0.000 C 
ATOM      5  C   UNL     1       2.074   5.189  19.531  0.00  0.00    +0.000 C 
ATOM      6  C   UNL     1       1.535   4.446  18.350  0.00  0.00    +0.000 C 
ATOM      7  C   UNL     1       2.793   3.798  17.766  0.00  0.00    +0.000 C 
ATOM      8  N   UNL     1       3.863   4.798  18.048  0.00  0.00    +0.000 NA
ATOM      9  C   UNL     1       3.542   5.449  19.345  0.00  0.00    +0.000 C 
BRANCH   7  10
ATOM     10  C   UNL     1       2.991   2.408  18.353  0.00  0.00    +0.000 C 
ATOM     11  O   UNL     1       2.268   1.908  19.214  0.00  0.00    +0.000 OA
ATOM     12  N   UNL     1       4.059   1.717  17.813  0.00  0.00    +0.000 N 
ATOM     13  H   UNL     1       4.865   2.184  17.410  0.00  0.00    +0.000 HD
BRANCH  12  14
ATOM     14  O   UNL     1       4.328   0.473  18.436  0.00  0.00    +0.000 OA
ATOM     15  H   UNL     1       5.175   0.650  18.905  0.00  0.00    +0.000 HD
ENDBRANCH  12  14
ENDBRANCH   7  10
ENDBRANCH   1   8
BRANCH   1  16
ATOM     16  C   UNL     1       6.365   5.948  17.925  0.00  0.00    +0.000 A 
ATOM     17  C   UNL     1       5.934   7.017  17.147  0.00  0.00    +0.000 A 
ATOM     18  C   UNL     1       6.704   8.172  17.080  0.00  0.00    +0.000 A 
ATOM     19  C   UNL     1       7.871   8.303  17.839  0.00  0.00    +0.000 A 
ATOM     20  C   UNL     1       8.257   7.253  18.680  0.00  0.00    +0.000 A 
ATOM     21  C   UNL     1       7.516   6.067  18.712  0.00  0.00    +0.000 A 
BRANCH  19  22
ATOM     22  O   UNL     1       8.686   9.408  17.829  0.00  0.00    +0.000 OA
BRANCH  22  23
ATOM     23  C   UNL     1       9.091   9.851  19.127  0.00  0.00    +0.000 C 
BRANCH  23  24
ATOM     24  C   UNL     1       9.969  11.088  19.062  0.00  0.00    +0.000 C 
BRANCH  24  25
ATOM     25  O   UNL     1       9.162  12.193  19.477  0.00  0.00    +0.000 OA
ATOM     26  C   UNL     1       9.930  13.223  20.076  0.00  0.00    +0.000 C 
ENDBRANCH  24  25
ENDBRANCH  23  24
ENDBRANCH  22  23
ENDBRANCH  19  22
ENDBRANCH   1  16
TORSDOF 8
ENDMDL
MODEL 5
REMARK VINA RESULT:      -7.1      1.225      1.417
REMARK  Name = 
REMARK  9 active torsions:
REMARK  status: ('A' for Active; 'I' for Inactive)
REMARK    1  A    between atoms: C_4  and  C_5
REMARK    2  A    between atoms: N_7  and  O_8
REMARK    3  A    between atoms: N_9  and  S_10
REMARK    4  A    between atoms: S_10  and  C_13
REMARK    5  A    between atoms: C_16  and  O_17
REMARK    6  A    between atoms: O_17  and  C_18
REMARK    7  A    between atoms: C_18  and  C_19
REMARK    8  A    between atoms: C_19  and  O_20
REMARK    9  A    between atoms: O_20  and  C_21
REMARK                            x       y       z     vdW  Elec       q    Type
REMARK                         _______ _______ _______ _____ _____    ______ ____
ROOT
ATOM      1  S   UNL     1       4.400   4.008  18.295  0.00  0.00    +0.000 S 
ATOM      2  O   UNL     1       3.575   2.946  17.760  0.00  0.00    +0.000 OA
ATOM      3  O   UNL     1       5.451   3.745  19.247  0.00  0.00    +0.000 OA
ENDROOT
BRANCH   1   8
ATOM      4  C   UNL     1       6.979   4.221  13.925  0.00  0.00    +0.000 C 
ATOM      5  C   UNL     1       6.351   4.704  15.006  0.00  0.00    +0.000 C 
ATOM      6  C   UNL     1       6.724   5.972  15.707  0.00  0.00    +0.000 C 
ATOM      7  C   UNL     1       6.280   5.698  17.146  0.00  0.00    +0.000 C 
ATOM      8  N   UNL     1       5.070   4.843  16.980  0.00  0.00    +0.000 NA
ATOM      9  C   UNL     1       5.282   3.988  15.782  0.00  0.00    +0.000 C 
BRANCH   7  10
ATOM     10  C   UNL     1       7.428   5.103  17.947  0.00  0.00    +0.000 C 
ATOM     11  O   UNL     1       8.168   4.207  17.541  0.00  0.00    +0.000 OA
ATOM     12  N   UNL     1       7.601   5.677  19.192  0.00  0.00    +0.000 N 
ATOM     13  H   UNL     1       6.841   6.118  19.701  0.00  0.00    +0.000 HD
BRANCH  12  14
ATOM     14  O   UNL     1       8.586   5.051  19.995  0.00  0.00    +0.000 OA
ATOM     15  H   UNL     1       9.422   5.316  19.549  0.00  0.00    +0.000 HD
ENDBRANCH  12  14
ENDBRANCH   7  10
ENDBRANCH   1   8
BRANCH   1  16
ATOM     16  C   UNL     1       3.295   5.163  19.064  0.00  0.00    +0.000 A 
ATOM     17  C   UNL     1       3.168   6.456  18.566  0.00  0.00    +0.000 A 
ATOM     18  C   UNL     1       2.413   7.391  19.266  0.00  0.00    +0.000 A 
ATOM     19  C   UNL     1       1.721   7.031  20.426  0.00  0.00    +0.000 A 
ATOM     20  C   UNL     1       1.791   5.709  20.879  0.00  0.00    +0.000 A 
ATOM     21  C   UNL     1       2.591   4.777  20.210  0.00  0.00    +0.000 A 
BRANCH  19  22
ATOM     22  O   UNL     1       0.957   7.893  21.174  0.00  0.00    +0.000 OA
BRANCH  22  23
ATOM     23  C   UNL     1       0.823   9.199  20.610  0.00  0.00    +0.000 C 
BRANCH  23  24
ATOM     24  C   UNL     1       0.542  10.253  21.667  0.00  0.00    +0.000 C 
BRANCH  24  25
ATOM     25  O   UNL     1      -0.618   9.822  22.385  0.00  0.00    +0.000 OA
ATOM     26  C   UNL     1      -1.254  10.891  23.066  0.00  0.00    +0.000 C 
ENDBRANCH  24  25
ENDBRANCH  23  24
ENDBRANCH  22  23
ENDBRANCH  19  22
ENDBRANCH   1  16
TORSDOF 8
ENDMDL
MODEL 6
REMARK VINA RESULT:      -7.0      2.956      4.199
REMARK  Name = 
REMARK  9 active torsions:
REMARK  status: ('A' for Active; 'I' for Inactive)
REMARK    1  A    between atoms: C_4  and  C_5
REMARK    2  A    between atoms: N_7  and  O_8
REMARK    3  A    between atoms: N_9  and  S_10
REMARK    4  A    between atoms: S_10  and  C_13
REMARK    5  A    between atoms: C_16  and  O_17
REMARK    6  A    between atoms: O_17  and  C_18
REMARK    7  A    between atoms: C_18  and  C_19
REMARK    8  A    between atoms: C_19  and  O_20
REMARK    9  A    between atoms: O_20  and  C_21
REMARK                            x       y       z     vdW  Elec       q    Type
REMARK                         _______ _______ _______ _____ _____    ______ ____
ROOT
ATOM      1  S   UNL     1       3.042   6.216  18.717  0.00  0.00    +0.000 S 
ATOM      2  O   UNL     1       4.152   6.122  19.641  0.00  0.00    +0.000 OA
ATOM      3  O   UNL     1       3.241   6.201  17.289  0.00  0.00    +0.000 OA
ENDROOT
BRANCH   1   8
ATOM      4  C   UNL     1       1.323   2.496  21.717  0.00  0.00    +0.000 C 
ATOM      5  C   UNL     1       1.378   3.264  20.619  0.00  0.00    +0.000 C 
ATOM      6  C   UNL     1       1.054   2.791  19.238  0.00  0.00    +0.000 C 
ATOM      7  C   UNL     1       1.923   3.699  18.365  0.00  0.00    +0.000 C 
ATOM      8  N   UNL     1       1.943   4.987  19.114  0.00  0.00    +0.000 NA
ATOM      9  C   UNL     1       1.915   4.666  20.566  0.00  0.00    +0.000 C 
BRANCH   7  10
ATOM     10  C   UNL     1       3.272   3.044  18.103  0.00  0.00    +0.000 C 
ATOM     11  O   UNL     1       3.770   2.172  18.813  0.00  0.00    +0.000 OA
ATOM     12  N   UNL     1       3.904   3.498  16.961  0.00  0.00    +0.000 N 
ATOM     13  H   UNL     1       3.738   4.422  16.574  0.00  0.00    +0.000 HD
BRANCH  12  14
ATOM     14  O   UNL     1       5.212   2.987  16.773  0.00  0.00    +0.000 OA
ATOM     15  H   UNL     1       5.409   3.246  15.844  0.00  0.00    +0.000 HD
ENDBRANCH  12  14
ENDBRANCH   7  10
ENDBRANCH   1   8
BRANCH   1  16
ATOM     16  C   UNL     1       2.201   7.732  19.096  0.00  0.00    +0.000 A 
ATOM     17  C   UNL     1       1.717   7.968  20.379  0.00  0.00    +0.000 A 
ATOM     18  C   UNL     1       0.933   9.089  20.623  0.00  0.00    +0.000 A 
ATOM     19  C   UNL     1       0.682  10.023  19.612  0.00  0.00    +0.000 A 
ATOM     20  C   UNL     1       1.236   9.819  18.344  0.00  0.00    +0.000 A 
ATOM     21  C   UNL     1       1.981   8.665  18.077  0.00  0.00    +0.000 A 
BRANCH  19  22
ATOM     22  O   UNL     1      -0.081  11.154  19.771  0.00  0.00    +0.000 OA
BRANCH  22  23
ATOM     23  C   UNL     1       0.544  12.179  20.547  0.00  0.00    +0.000 C 
BRANCH  23  24
ATOM     24  C   UNL     1      -0.313  12.606  21.726  0.00  0.00    +0.000 C 
BRANCH  24  25
ATOM     25  O   UNL     1      -0.172  11.597  22.730  0.00  0.00    +0.000 OA
ATOM     26  C   UNL     1      -1.423  11.073  23.142  0.00  0.00    +0.000 C 
ENDBRANCH  24  25
ENDBRANCH  23  24
ENDBRANCH  22  23
ENDBRANCH  19  22
ENDBRANCH   1  16
TORSDOF 8
ENDMDL
MODEL 7
REMARK VINA RESULT:      -7.0      3.147      4.228
REMARK  Name = 
REMARK  9 active torsions:
REMARK  status: ('A' for Active; 'I' for Inactive)
REMARK    1  A    between atoms: C_4  and  C_5
REMARK    2  A    between atoms: N_7  and  O_8
REMARK    3  A    between atoms: N_9  and  S_10
REMARK    4  A    between atoms: S_10  and  C_13
REMARK    5  A    between atoms: C_16  and  O_17
REMARK    6  A    between atoms: O_17  and  C_18
REMARK    7  A    between atoms: C_18  and  C_19
REMARK    8  A    between atoms: C_19  and  O_20
REMARK    9  A    between atoms: O_20  and  C_21
REMARK                            x       y       z     vdW  Elec       q    Type
REMARK                         _______ _______ _______ _____ _____    ______ ____
ROOT
ATOM      1  S   UNL     1       3.085   5.881  18.682  0.00  0.00    +0.000 S 
ATOM      2  O   UNL     1       4.159   5.849  19.653  0.00  0.00    +0.000 OA
ATOM      3  O   UNL     1       3.334   5.724  17.271  0.00  0.00    +0.000 OA
ENDROOT
BRANCH   1   8
ATOM      4  C   UNL     1       1.244   2.395  21.883  0.00  0.00    +0.000 C 
ATOM      5  C   UNL     1       1.318   3.103  20.748  0.00  0.00    +0.000 C 
ATOM      6  C   UNL     1       0.957   2.576  19.395  0.00  0.00    +0.000 C 
ATOM      7  C   UNL     1       1.855   3.401  18.469  0.00  0.00    +0.000 C 
ATOM      8  N   UNL     1       1.939   4.723  19.152  0.00  0.00    +0.000 NA
ATOM      9  C   UNL     1       1.914   4.477  20.619  0.00  0.00    +0.000 C 
BRANCH   7  10
ATOM     10  C   UNL     1       3.171   2.676  18.227  0.00  0.00    +0.000 C 
ATOM     11  O   UNL     1       4.169   3.195  17.730  0.00  0.00    +0.000 OA
ATOM     12  N   UNL     1       3.170   1.358  18.643  0.00  0.00    +0.000 N 
ATOM     13  H   UNL     1       2.322   0.803  18.700  0.00  0.00    +0.000 HD
BRANCH  12  14
ATOM     14  O   UNL     1       4.345   0.639  18.313  0.00  0.00    +0.000 OA
ATOM     15  H   UNL     1       4.643   0.306  19.190  0.00  0.00    +0.000 HD
ENDBRANCH  12  14
ENDBRANCH   7  10
ENDBRANCH   1   8
BRANCH   1  16
ATOM     16  C   UNL     1       2.273   7.446  18.885  0.00  0.00    +0.000 A 
ATOM     17  C   UNL     1       2.187   8.338  17.821  0.00  0.00    +0.000 A 
ATOM     18  C   UNL     1       1.682   9.616  18.035  0.00  0.00    +0.000 A 
ATOM     19  C   UNL     1       1.194   9.994  19.290  0.00  0.00    +0.000 A 
ATOM     20  C   UNL     1       1.213   9.065  20.336  0.00  0.00    +0.000 A 
ATOM     21  C   UNL     1       1.769   7.796  20.142  0.00  0.00    +0.000 A 
BRANCH  19  22
ATOM     22  O   UNL     1       0.681  11.234  19.583  0.00  0.00    +0.000 OA
BRANCH  22  23
ATOM     23  C   UNL     1       0.858  11.635  20.944  0.00  0.00    +0.000 C 
BRANCH  23  24
ATOM     24  C   UNL     1      -0.429  12.159  21.558  0.00  0.00    +0.000 C 
BRANCH  24  25
ATOM     25  O   UNL     1      -0.437  11.740  22.926  0.00  0.00    +0.000 OA
ATOM     26  C   UNL     1      -0.887  10.404  23.075  0.00  0.00    +0.000 C 
ENDBRANCH  24  25
ENDBRANCH  23  24
ENDBRANCH  22  23
ENDBRANCH  19  22
ENDBRANCH   1  16
TORSDOF 8
ENDMDL
MODEL 8
REMARK VINA RESULT:      -7.0      3.117      4.209
REMARK  Name = 
REMARK  9 active torsions:
REMARK  status: ('A' for Active; 'I' for Inactive)
REMARK    1  A    between atoms: C_4  and  C_5
REMARK    2  A    between atoms: N_7  and  O_8
REMARK    3  A    between atoms: N_9  and  S_10
REMARK    4  A    between atoms: S_10  and  C_13
REMARK    5  A    between atoms: C_16  and  O_17
REMARK    6  A    between atoms: O_17  and  C_18
REMARK    7  A    between atoms: C_18  and  C_19
REMARK    8  A    between atoms: C_19  and  O_20
REMARK    9  A    between atoms: O_20  and  C_21
REMARK                            x       y       z     vdW  Elec       q    Type
REMARK                         _______ _______ _______ _____ _____    ______ ____
ROOT
ATOM      1  S   UNL     1       3.227   5.762  18.754  0.00  0.00    +0.000 S 
ATOM      2  O   UNL     1       4.314   5.683  19.707  0.00  0.00    +0.000 OA
ATOM      3  O   UNL     1       3.450   5.624  17.336  0.00  0.00    +0.000 OA
ENDROOT
BRANCH   1   8
ATOM      4  C   UNL     1       1.139   2.541  22.079  0.00  0.00    +0.000 C 
ATOM      5  C   UNL     1       1.311   3.145  20.895  0.00  0.00    +0.000 C 
ATOM      6  C   UNL     1       1.083   2.492  19.569  0.00  0.00    +0.000 C 
ATOM      7  C   UNL     1       2.052   3.248  18.657  0.00  0.00    +0.000 C 
ATOM      8  N   UNL     1       2.056   4.628  19.221  0.00  0.00    +0.000 NA
ATOM      9  C   UNL     1       1.899   4.514  20.696  0.00  0.00    +0.000 C 
BRANCH   7  10
ATOM     10  C   UNL     1       3.394   2.531  18.604  0.00  0.00    +0.000 C 
ATOM     11  O   UNL     1       3.901   2.081  17.577  0.00  0.00    +0.000 OA
ATOM     12  N   UNL     1       4.032   2.443  19.827  0.00  0.00    +0.000 N 
ATOM     13  H   UNL     1       3.528   2.450  20.708  0.00  0.00    +0.000 HD
BRANCH  12  14
ATOM     14  O   UNL     1       5.221   1.672  19.813  0.00  0.00    +0.000 OA
ATOM     15  H   UNL     1       5.050   1.034  19.084  0.00  0.00    +0.000 HD
ENDBRANCH  12  14
ENDBRANCH   7  10
ENDBRANCH   1   8
BRANCH   1  16
ATOM     16  C   UNL     1       2.462   7.345  18.997  0.00  0.00    +0.000 A 
ATOM     17  C   UNL     1       1.911   7.680  20.229  0.00  0.00    +0.000 A 
ATOM     18  C   UNL     1       1.187   8.859  20.361  0.00  0.00    +0.000 A 
ATOM     19  C   UNL     1       1.064   9.749  19.289  0.00  0.00    +0.000 A 
ATOM     20  C   UNL     1       1.687   9.442  18.074  0.00  0.00    +0.000 A 
ATOM     21  C   UNL     1       2.371   8.233  17.919  0.00  0.00    +0.000 A 
BRANCH  19  22
ATOM     22  O   UNL     1       0.367  10.932  19.336  0.00  0.00    +0.000 OA
BRANCH  22  23
ATOM     23  C   UNL     1      -0.564  11.021  20.418  0.00  0.00    +0.000 C 
BRANCH  23  24
ATOM     24  C   UNL     1      -0.160  12.075  21.434  0.00  0.00    +0.000 C 
BRANCH  24  25
ATOM     25  O   UNL     1      -0.313  11.485  22.728  0.00  0.00    +0.000 OA
ATOM     26  C   UNL     1      -1.664  11.477  23.158  0.00  0.00    +0.000 C 
ENDBRANCH  24  25
ENDBRANCH  23  24
ENDBRANCH  22  23
ENDBRANCH  19  22
ENDBRANCH   1  16
TORSDOF 8
ENDMDL
MODEL 9
REMARK VINA RESULT:      -6.9      1.598      2.388
REMARK  Name = 
REMARK  9 active torsions:
REMARK  status: ('A' for Active; 'I' for Inactive)
REMARK    1  A    between atoms: C_4  and  C_5
REMARK    2  A    between atoms: N_7  and  O_8
REMARK    3  A    between atoms: N_9  and  S_10
REMARK    4  A    between atoms: S_10  and  C_13
REMARK    5  A    between atoms: C_16  and  O_17
REMARK    6  A    between atoms: O_17  and  C_18
REMARK    7  A    between atoms: C_18  and  C_19
REMARK    8  A    between atoms: C_19  and  O_20
REMARK    9  A    between atoms: O_20  and  C_21
REMARK                            x       y       z     vdW  Elec       q    Type
REMARK                         _______ _______ _______ _____ _____    ______ ____
ROOT
ATOM      1  S   UNL     1       3.845   5.460  18.720  0.00  0.00    +0.000 S 
ATOM      2  O   UNL     1       2.911   4.406  18.385  0.00  0.00    +0.000 OA
ATOM      3  O   UNL     1       4.724   5.360  19.859  0.00  0.00    +0.000 OA
ENDROOT
BRANCH   1   8
ATOM      4  C   UNL     1       6.414   3.981  14.597  0.00  0.00    +0.000 C 
ATOM      5  C   UNL     1       5.975   4.837  15.530  0.00  0.00    +0.000 C 
ATOM      6  C   UNL     1       6.754   6.008  16.039  0.00  0.00    +0.000 C 
ATOM      7  C   UNL     1       6.217   6.169  17.463  0.00  0.00    +0.000 C 
ATOM      8  N   UNL     1       4.788   5.762  17.344  0.00  0.00    +0.000 NA
ATOM      9  C   UNL     1       4.709   4.682  16.324  0.00  0.00    +0.000 C 
BRANCH   7  10
ATOM     10  C   UNL     1       7.070   5.375  18.442  0.00  0.00    +0.000 C 
ATOM     11  O   UNL     1       7.379   4.193  18.293  0.00  0.00    +0.000 OA
ATOM     12  N   UNL     1       7.507   6.107  19.529  0.00  0.00    +0.000 N 
ATOM     13  H   UNL     1       7.004   6.916  19.881  0.00  0.00    +0.000 HD
BRANCH  12  14
ATOM     14  O   UNL     1       8.197   5.350  20.507  0.00  0.00    +0.000 OA
ATOM     15  H   UNL     1       8.515   4.576  19.989  0.00  0.00    +0.000 HD
ENDBRANCH  12  14
ENDBRANCH   7  10
ENDBRANCH   1   8
BRANCH   1  16
ATOM     16  C   UNL     1       2.878   6.930  18.952  0.00  0.00    +0.000 A 
ATOM     17  C   UNL     1       2.224   7.161  20.158  0.00  0.00    +0.000 A 
ATOM     18  C   UNL     1       1.354   8.238  20.273  0.00  0.00    +0.000 A 
ATOM     19  C   UNL     1       1.179   9.135  19.215  0.00  0.00    +0.000 A 
ATOM     20  C   UNL     1       1.899   8.941  18.031  0.00  0.00    +0.000 A 
ATOM     21  C   UNL     1       2.736   7.829  17.890  0.00  0.00    +0.000 A 
BRANCH  19  22
ATOM     22  O   UNL     1       0.339  10.222  19.247  0.00  0.00    +0.000 OA
BRANCH  22  23
ATOM     23  C   UNL     1      -0.568  10.295  18.145  0.00  0.00    +0.000 C 
BRANCH  23  24
ATOM     24  C   UNL     1      -1.668  11.317  18.375  0.00  0.00    +0.000 C 
BRANCH  24  25
ATOM     25  O   UNL     1      -2.434  11.382  17.169  0.00  0.00    +0.000 OA
ATOM     26  C   UNL     1      -2.396  10.165  16.444  0.00  0.00    +0.000 C 
ENDBRANCH  24  25
ENDBRANCH  23  24
ENDBRANCH  22  23
ENDBRANCH  19  22
ENDBRANCH   1  16
TORSDOF 8
ENDMDL
