MODEL 1
REMARK VINA RESULT:      -6.8      0.000      0.000
REMARK  Name = 
REMARK  11 active torsions:
REMARK  status: ('A' for Active; 'I' for Inactive)
REMARK    1  A    between atoms: C_1  and  N_2
REMARK    2  A    between atoms: N_2  and  C_3
REMARK    3  A    between atoms: C_3  and  C_4
REMARK    4  A    between atoms: C_4  and  C_5
REMARK    5  A    between atoms: C_5  and  S_6
REMARK    6  A    between atoms: C_15  and  O_16
REMARK    7  A    between atoms: O_16  and  C_17
REMARK    8  A    between atoms: C_17  and  C_19
REMARK    9  A    between atoms: C_19  and  C_20
REMARK   10  A    between atoms: C_19  and  C_22
REMARK   11  A    between atoms: C_20  and  O_21
REMARK                            x       y       z     vdW  Elec       q    Type
REMARK                         _______ _______ _______ _____ _____    ______ ____
ROOT
ATOM      1  C   UNL     1       8.103   6.302  19.022  0.00  0.00    +0.000 C 
ATOM      2  N   UNL     1       7.263   6.682  17.784  0.00  0.00    +0.000 N 
ATOM      3  C   UNL     1       5.757   6.854  18.092  0.00  0.00    +0.000 C 
ATOM      4  C   UNL     1       5.088   6.874  16.712  0.00  0.00    +0.000 C 
ATOM      5  C   UNL     1       6.021   6.094  15.797  0.00  0.00    +0.000 C 
ATOM      6  C   UNL     1       7.180   5.629  16.687  0.00  0.00    +0.000 C 
ATOM      7  C   UNL     1       6.856   4.272  17.311  0.00  0.00    +0.000 C 
ATOM      8  C   UNL     1       5.735   4.283  18.372  0.00  0.00    +0.000 C 
ATOM      9  C   UNL     1       5.245   5.649  18.886  0.00  0.00    +0.000 C 
ENDROOT
BRANCH   2  10
ATOM     10  C   UNL     1       7.852   8.063  17.302  0.00  0.00    +0.000 C 
BRANCH  10  11
ATOM     11  C   UNL     1       8.403   8.911  18.457  0.00  0.00    +0.000 C 
BRANCH  11  12
ATOM     12  C   UNL     1       8.989  10.247  18.001  0.00  0.00    +0.000 C 
BRANCH  12  13
ATOM     13  S   UNL     1       9.627  11.207  19.354  0.00  0.00    +0.000 S 
ATOM     14  O   UNL     1      11.052  11.279  19.066  0.00  0.00    +0.000 OA
ATOM     15  O   UNL     1       8.895  12.463  19.204  0.00  0.00    +0.000 OA
ATOM     16  O   UNL     1       9.234  10.413  20.514  0.00  0.00    +0.000 OA
ENDBRANCH  12  13
ENDBRANCH  11  12
ENDBRANCH  10  11
ENDBRANCH   2  10
BRANCH   8  17
ATOM     17  O   UNL     1       4.601   3.538  17.885  0.00  0.00    +0.000 OA
BRANCH  17  18
ATOM     18  C   UNL     1       3.670   3.262  18.851  0.00  0.00    +0.000 C 
ATOM     19  O   UNL     1       3.918   2.666  19.894  0.00  0.00    +0.000 OA
BRANCH  18  20
ATOM     20  C   UNL     1       2.303   3.788  18.476  0.00  0.00    +0.000 C 
BRANCH  20  21
ATOM     21  C   UNL     1       2.081   5.190  19.016  0.00  0.00    +0.000 A 
ATOM     22  C   UNL     1       2.127   6.292  18.147  0.00  0.00    +0.000 A 
ATOM     23  C   UNL     1       1.990   7.591  18.640  0.00  0.00    +0.000 A 
ATOM     24  C   UNL     1       1.805   7.808  20.000  0.00  0.00    +0.000 A 
ATOM     25  C   UNL     1       1.740   6.728  20.874  0.00  0.00    +0.000 A 
ATOM     26  C   UNL     1       1.876   5.424  20.384  0.00  0.00    +0.000 A 
ENDBRANCH  20  21
BRANCH  20  27
ATOM     27  C   UNL     1       1.241   2.755  18.886  0.00  0.00    +0.000 C 
BRANCH  27  28
ATOM     28  O   UNL     1       1.673   1.400  18.773  0.00  0.00    +0.000 OA
ATOM     29  H   UNL     1       1.141   0.978  18.068  0.00  0.00    +0.000 HD
ENDBRANCH  27  28
ENDBRANCH  20  27
ENDBRANCH  18  20
ENDBRANCH  17  18
ENDBRANCH   8  17
TORSDOF 10
ENDMDL
MODEL 2
REMARK VINA RESULT:      -6.7      3.970      6.513
REMARK  Name = 
REMARK  11 active torsions:
REMARK  status: ('A' for Active; 'I' for Inactive)
REMARK    1  A    between atoms: C_1  and  N_2
REMARK    2  A    between atoms: N_2  and  C_3
REMARK    3  A    between atoms: C_3  and  C_4
REMARK    4  A    between atoms: C_4  and  C_5
REMARK    5  A    between atoms: C_5  and  S_6
REMARK    6  A    between atoms: C_15  and  O_16
REMARK    7  A    between atoms: O_16  and  C_17
REMARK    8  A    between atoms: C_17  and  C_19
REMARK    9  A    between atoms: C_19  and  C_20
REMARK   10  A    between atoms: C_19  and  C_22
REMARK   11  A    between atoms: C_20  and  O_21
REMARK                            x       y       z     vdW  Elec       q    Type
REMARK                         _______ _______ _______ _____ _____    ______ ____
ROOT
ATOM      1  C   UNL     1       1.196   4.463  18.308  0.00  0.00    +0.000 C 
ATOM      2  N   UNL     1       2.446   4.455  19.211  0.00  0.00    +0.000 N 
ATOM      3  C   UNL     1       3.568   5.399  18.717  0.00  0.00    +0.000 C 
ATOM      4  C   UNL     1       4.801   4.978  19.527  0.00  0.00    +0.000 C 
ATOM      5  C   UNL     1       4.566   3.520  19.897  0.00  0.00    +0.000 C 
ATOM      6  C   UNL     1       3.221   3.144  19.264  0.00  0.00    +0.000 C 
ATOM      7  C   UNL     1       3.432   2.623  17.843  0.00  0.00    +0.000 C 
ATOM      8  C   UNL     1       3.889   3.678  16.812  0.00  0.00    +0.000 C 
ATOM      9  C   UNL     1       3.834   5.160  17.229  0.00  0.00    +0.000 C 
ENDROOT
BRANCH   2  10
ATOM     10  C   UNL     1       1.935   4.952  20.618  0.00  0.00    +0.000 C 
BRANCH  10  11
ATOM     11  C   UNL     1       1.071   6.218  20.524  0.00  0.00    +0.000 C 
BRANCH  11  12
ATOM     12  C   UNL     1       1.863   7.508  20.730  0.00  0.00    +0.000 C 
BRANCH  12  13
ATOM     13  S   UNL     1       0.846   8.845  21.311  0.00  0.00    +0.000 S 
ATOM     14  O   UNL     1       1.578   9.341  22.467  0.00  0.00    +0.000 OA
ATOM     15  O   UNL     1       0.828   9.736  20.153  0.00  0.00    +0.000 OA
ATOM     16  O   UNL     1      -0.425   8.178  21.580  0.00  0.00    +0.000 OA
ENDBRANCH  12  13
ENDBRANCH  11  12
ENDBRANCH  10  11
ENDBRANCH   2  10
BRANCH   8  17
ATOM     17  O   UNL     1       5.225   3.373  16.368  0.00  0.00    +0.000 OA
BRANCH  17  18
ATOM     18  C   UNL     1       5.584   4.026  15.218  0.00  0.00    +0.000 C 
ATOM     19  O   UNL     1       4.826   4.223  14.275  0.00  0.00    +0.000 OA
BRANCH  18  20
ATOM     20  C   UNL     1       7.026   4.480  15.261  0.00  0.00    +0.000 C 
BRANCH  20  21
ATOM     21  C   UNL     1       7.328   5.246  16.537  0.00  0.00    +0.000 A 
ATOM     22  C   UNL     1       7.210   6.645  16.561  0.00  0.00    +0.000 A 
ATOM     23  C   UNL     1       7.545   7.367  17.707  0.00  0.00    +0.000 A 
ATOM     24  C   UNL     1       8.002   6.707  18.842  0.00  0.00    +0.000 A 
ATOM     25  C   UNL     1       8.110   5.320  18.843  0.00  0.00    +0.000 A 
ATOM     26  C   UNL     1       7.772   4.592  17.697  0.00  0.00    +0.000 A 
ENDBRANCH  20  21
BRANCH  20  27
ATOM     27  C   UNL     1       7.353   5.228  13.958  0.00  0.00    +0.000 C 
BRANCH  27  28
ATOM     28  O   UNL     1       7.226   4.430  12.783  0.00  0.00    +0.000 OA
ATOM     29  H   UNL     1       7.327   3.494  13.048  0.00  0.00    +0.000 HD
ENDBRANCH  27  28
ENDBRANCH  20  27
ENDBRANCH  18  20
ENDBRANCH  17  18
ENDBRANCH   8  17
TORSDOF 10
ENDMDL
MODEL 3
REMARK VINA RESULT:      -6.7      0.415      1.300
REMARK  Name = 
REMARK  11 active torsions:
REMARK  status: ('A' for Active; 'I' for Inactive)
REMARK    1  A    between atoms: C_1  and  N_2
REMARK    2  A    between atoms: N_2  and  C_3
REMARK    3  A    between atoms: C_3  and  C_4
REMARK    4  A    between atoms: C_4  and  C_5
REMARK    5  A    between atoms: C_5  and  S_6
REMARK    6  A    between atoms: C_15  and  O_16
REMARK    7  A    between atoms: O_16  and  C_17
REMARK    8  A    between atoms: C_17  and  C_19
REMARK    9  A    between atoms: C_19  and  C_20
REMARK   10  A    between atoms: C_19  and  C_22
REMARK   11  A    between atoms: C_20  and  O_21
REMARK                            x       y       z     vdW  Elec       q    Type
REMARK                         _______ _______ _______ _____ _____    ______ ____
ROOT
ATOM      1  C   UNL     1       8.065   6.232  18.810  0.00  0.00    +0.000 C 
ATOM      2  N   UNL     1       7.203   6.606  17.586  0.00  0.00    +0.000 N 
ATOM      3  C   UNL     1       5.706   6.802  17.925  0.00  0.00    +0.000 C 
ATOM      4  C   UNL     1       5.007   6.812  16.560  0.00  0.00    +0.000 C 
ATOM      5  C   UNL     1       5.909   6.008  15.635  0.00  0.00    +0.000 C 
ATOM      6  C   UNL     1       7.081   5.539  16.506  0.00  0.00    +0.000 C 
ATOM      7  C   UNL     1       6.753   4.195  17.156  0.00  0.00    +0.000 C 
ATOM      8  C   UNL     1       5.657   4.236  18.242  0.00  0.00    +0.000 C 
ATOM      9  C   UNL     1       5.197   5.616  18.747  0.00  0.00    +0.000 C 
ENDROOT
BRANCH   2  10
ATOM     10  C   UNL     1       7.799   7.972  17.071  0.00  0.00    +0.000 C 
BRANCH  10  11
ATOM     11  C   UNL     1       8.283   8.878  18.212  0.00  0.00    +0.000 C 
BRANCH  11  12
ATOM     12  C   UNL     1       8.260  10.364  17.857  0.00  0.00    +0.000 C 
BRANCH  12  13
ATOM     13  S   UNL     1       9.552  11.277  18.667  0.00  0.00    +0.000 S 
ATOM     14  O   UNL     1       8.917  12.550  18.972  0.00  0.00    +0.000 OA
ATOM     15  O   UNL     1       9.840  10.430  19.824  0.00  0.00    +0.000 OA
ATOM     16  O   UNL     1      10.604  11.296  17.656  0.00  0.00    +0.000 OA
ENDBRANCH  12  13
ENDBRANCH  11  12
ENDBRANCH  10  11
ENDBRANCH   2  10
BRANCH   8  17
ATOM     17  O   UNL     1       4.503   3.500  17.790  0.00  0.00    +0.000 OA
BRANCH  17  18
ATOM     18  C   UNL     1       3.584   3.260  18.778  0.00  0.00    +0.000 C 
ATOM     19  O   UNL     1       3.827   2.637  19.805  0.00  0.00    +0.000 OA
BRANCH  18  20
ATOM     20  C   UNL     1       2.238   3.865  18.447  0.00  0.00    +0.000 C 
BRANCH  20  21
ATOM     21  C   UNL     1       2.104   5.265  19.020  0.00  0.00    +0.000 A 
ATOM     22  C   UNL     1       1.849   5.441  20.389  0.00  0.00    +0.000 A 
ATOM     23  C   UNL     1       1.659   6.720  20.918  0.00  0.00    +0.000 A 
ATOM     24  C   UNL     1       1.721   7.836  20.090  0.00  0.00    +0.000 A 
ATOM     25  C   UNL     1       1.989   7.681  18.734  0.00  0.00    +0.000 A 
ATOM     26  C   UNL     1       2.182   6.402  18.201  0.00  0.00    +0.000 A 
ENDBRANCH  20  21
BRANCH  20  27
ATOM     27  C   UNL     1       1.133   2.880  18.864  0.00  0.00    +0.000 C 
BRANCH  27  28
ATOM     28  O   UNL     1       1.516   1.509  18.787  0.00  0.00    +0.000 OA
ATOM     29  H   UNL     1       0.884   1.058  18.191  0.00  0.00    +0.000 HD
ENDBRANCH  27  28
ENDBRANCH  20  27
ENDBRANCH  18  20
ENDBRANCH  17  18
ENDBRANCH   8  17
TORSDOF 10
ENDMDL
MODEL 4
REMARK VINA RESULT:      -6.6      4.231      6.339
REMARK  Name = 
REMARK  11 active torsions:
REMARK  status: ('A' for Active; 'I' for Inactive)
REMARK    1  A    between atoms: C_1  and  N_2
REMARK    2  A    between atoms: N_2  and  C_3
REMARK    3  A    between atoms: C_3  and  C_4
REMARK    4  A    between atoms: C_4  and  C_5
REMARK    5  A    between atoms: C_5  and  S_6
REMARK    6  A    between atoms: C_15  and  O_16
REMARK    7  A    between atoms: O_16  and  C_17
REMARK    8  A    between atoms: C_17  and  C_19
REMARK    9  A    between atoms: C_19  and  C_20
REMARK   10  A    between atoms: C_19  and  C_22
REMARK   11  A    between atoms: C_20  and  O_21
REMARK                            x       y       z     vdW  Elec       q    Type
REMARK                         _______ _______ _______ _____ _____    ______ ____
ROOT
ATOM      1  C   UNL     1       4.993   5.245  19.291  0.00  0.00    +0.000 C 
ATOM      2  N   UNL     1       3.676   4.697  18.705  0.00  0.00    +0.000 N 
ATOM      3  C   UNL     1       2.799   5.784  18.041  0.00  0.00    +0.000 C 
ATOM      4  C   UNL     1       1.434   5.108  17.855  0.00  0.00    +0.000 C 
ATOM      5  C   UNL     1       1.365   4.031  18.929  0.00  0.00    +0.000 C 
ATOM      6  C   UNL     1       2.678   4.143  19.713  0.00  0.00    +0.000 C 
ATOM      7  C   UNL     1       2.522   5.133  20.867  0.00  0.00    +0.000 C 
ATOM      8  C   UNL     1       2.369   6.613  20.453  0.00  0.00    +0.000 C 
ATOM      9  C   UNL     1       2.647   6.980  18.984  0.00  0.00    +0.000 C 
ENDROOT
BRANCH   2  10
ATOM     10  C   UNL     1       4.123   3.654  17.609  0.00  0.00    +0.000 C 
BRANCH  10  11
ATOM     11  C   UNL     1       5.532   3.929  17.064  0.00  0.00    +0.000 C 
BRANCH  11  12
ATOM     12  C   UNL     1       5.710   3.506  15.607  0.00  0.00    +0.000 C 
BRANCH  12  13
ATOM     13  S   UNL     1       6.495   4.762  14.625  0.00  0.00    +0.000 S 
ATOM     14  O   UNL     1       6.509   4.180  13.291  0.00  0.00    +0.000 OA
ATOM     15  O   UNL     1       5.588   5.895  14.803  0.00  0.00    +0.000 OA
ATOM     16  O   UNL     1       7.788   4.915  15.285  0.00  0.00    +0.000 OA
ENDBRANCH  12  13
ENDBRANCH  11  12
ENDBRANCH  10  11
ENDBRANCH   2  10
BRANCH   8  17
ATOM     17  O   UNL     1       1.052   7.079  20.806  0.00  0.00    +0.000 OA
BRANCH  17  18
ATOM     18  C   UNL     1       1.051   8.299  21.429  0.00  0.00    +0.000 C 
ATOM     19  O   UNL     1       2.053   8.839  21.884  0.00  0.00    +0.000 OA
BRANCH  18  20
ATOM     20  C   UNL     1      -0.337   8.898  21.480  0.00  0.00    +0.000 C 
BRANCH  20  21
ATOM     21  C   UNL     1      -0.460  10.091  20.549  0.00  0.00    +0.000 A 
ATOM     22  C   UNL     1      -0.003   9.997  19.224  0.00  0.00    +0.000 A 
ATOM     23  C   UNL     1      -0.051  11.105  18.376  0.00  0.00    +0.000 A 
ATOM     24  C   UNL     1      -0.552  12.317  18.835  0.00  0.00    +0.000 A 
ATOM     25  C   UNL     1      -1.023  12.425  20.139  0.00  0.00    +0.000 A 
ATOM     26  C   UNL     1      -0.980  11.316  20.992  0.00  0.00    +0.000 A 
ENDBRANCH  20  21
BRANCH  20  27
ATOM     27  C   UNL     1      -0.708   9.174  22.947  0.00  0.00    +0.000 C 
BRANCH  27  28
ATOM     28  O   UNL     1       0.327   9.803  23.699  0.00  0.00    +0.000 OA
ATOM     29  H   UNL     1      -0.062  10.099  24.547  0.00  0.00    +0.000 HD
ENDBRANCH  27  28
ENDBRANCH  20  27
ENDBRANCH  18  20
ENDBRANCH  17  18
ENDBRANCH   8  17
TORSDOF 10
ENDMDL
MODEL 5
REMARK VINA RESULT:      -6.5      4.091      6.324
REMARK  Name = 
REMARK  11 active torsions:
REMARK  status: ('A' for Active; 'I' for Inactive)
REMARK    1  A    between atoms: C_1  and  N_2
REMARK    2  A    between atoms: N_2  and  C_3
REMARK    3  A    between atoms: C_3  and  C_4
REMARK    4  A    between atoms: C_4  and  C_5
REMARK    5  A    between atoms: C_5  and  S_6
REMARK    6  A    between atoms: C_15  and  O_16
REMARK    7  A    between atoms: O_16  and  C_17
REMARK    8  A    between atoms: C_17  and  C_19
REMARK    9  A    between atoms: C_19  and  C_20
REMARK   10  A    between atoms: C_19  and  C_22
REMARK   11  A    between atoms: C_20  and  O_21
REMARK                            x       y       z     vdW  Elec       q    Type
REMARK                         _______ _______ _______ _____ _____    ______ ____
ROOT
ATOM      1  C   UNL     1       5.026   5.306  19.275  0.00  0.00    +0.000 C 
ATOM      2  N   UNL     1       3.717   4.735  18.690  0.00  0.00    +0.000 N 
ATOM      3  C   UNL     1       2.837   5.801  17.995  0.00  0.00    +0.000 C 
ATOM      4  C   UNL     1       1.479   5.111  17.814  0.00  0.00    +0.000 C 
ATOM      5  C   UNL     1       1.408   4.059  18.911  0.00  0.00    +0.000 C 
ATOM      6  C   UNL     1       2.714   4.197  19.702  0.00  0.00    +0.000 C 
ATOM      7  C   UNL     1       2.542   5.211  20.833  0.00  0.00    +0.000 C 
ATOM      8  C   UNL     1       2.383   6.680  20.385  0.00  0.00    +0.000 C 
ATOM      9  C   UNL     1       2.670   7.017  18.910  0.00  0.00    +0.000 C 
ENDROOT
BRANCH   2  10
ATOM     10  C   UNL     1       4.180   3.671  17.621  0.00  0.00    +0.000 C 
BRANCH  10  11
ATOM     11  C   UNL     1       4.381   4.279  16.225  0.00  0.00    +0.000 C 
BRANCH  11  12
ATOM     12  C   UNL     1       5.556   5.253  16.153  0.00  0.00    +0.000 C 
BRANCH  12  13
ATOM     13  S   UNL     1       6.997   4.525  15.409  0.00  0.00    +0.000 S 
ATOM     14  O   UNL     1       7.780   4.092  16.557  0.00  0.00    +0.000 OA
ATOM     15  O   UNL     1       6.413   3.450  14.608  0.00  0.00    +0.000 OA
ATOM     16  O   UNL     1       7.540   5.632  14.629  0.00  0.00    +0.000 OA
ENDBRANCH  12  13
ENDBRANCH  11  12
ENDBRANCH  10  11
ENDBRANCH   2  10
BRANCH   8  17
ATOM     17  O   UNL     1       1.060   7.145  20.716  0.00  0.00    +0.000 OA
BRANCH  17  18
ATOM     18  C   UNL     1       1.051   8.328  21.408  0.00  0.00    +0.000 C 
ATOM     19  O   UNL     1       2.048   8.840  21.905  0.00  0.00    +0.000 OA
BRANCH  18  20
ATOM     20  C   UNL     1      -0.337   8.925  21.475  0.00  0.00    +0.000 C 
BRANCH  20  21
ATOM     21  C   UNL     1      -0.462  10.140  20.573  0.00  0.00    +0.000 A 
ATOM     22  C   UNL     1      -1.022  11.328  21.070  0.00  0.00    +0.000 A 
ATOM     23  C   UNL     1      -1.202  12.432  20.234  0.00  0.00    +0.000 A 
ATOM     24  C   UNL     1      -0.828  12.366  18.897  0.00  0.00    +0.000 A 
ATOM     25  C   UNL     1      -0.257  11.203  18.391  0.00  0.00    +0.000 A 
ATOM     26  C   UNL     1      -0.073  10.095  19.226  0.00  0.00    +0.000 A 
ENDBRANCH  20  21
BRANCH  20  27
ATOM     27  C   UNL     1      -0.706   9.165  22.949  0.00  0.00    +0.000 C 
BRANCH  27  28
ATOM     28  O   UNL     1       0.342   9.745  23.723  0.00  0.00    +0.000 OA
ATOM     29  H   UNL     1      -0.070  10.196  24.488  0.00  0.00    +0.000 HD
ENDBRANCH  27  28
ENDBRANCH  20  27
ENDBRANCH  18  20
ENDBRANCH  17  18
ENDBRANCH   8  17
TORSDOF 10
ENDMDL
MODEL 6
REMARK VINA RESULT:      -6.5      4.180      6.434
REMARK  Name = 
REMARK  11 active torsions:
REMARK  status: ('A' for Active; 'I' for Inactive)
REMARK    1  A    between atoms: C_1  and  N_2
REMARK    2  A    between atoms: N_2  and  C_3
REMARK    3  A    between atoms: C_3  and  C_4
REMARK    4  A    between atoms: C_4  and  C_5
REMARK    5  A    between atoms: C_5  and  S_6
REMARK    6  A    between atoms: C_15  and  O_16
REMARK    7  A    between atoms: O_16  and  C_17
REMARK    8  A    between atoms: C_17  and  C_19
REMARK    9  A    between atoms: C_19  and  C_20
REMARK   10  A    between atoms: C_19  and  C_22
REMARK   11  A    between atoms: C_20  and  O_21
REMARK                            x       y       z     vdW  Elec       q    Type
REMARK                         _______ _______ _______ _____ _____    ______ ____
ROOT
ATOM      1  C   UNL     1       5.081   5.061  19.248  0.00  0.00    +0.000 C 
ATOM      2  N   UNL     1       3.762   4.472  18.705  0.00  0.00    +0.000 N 
ATOM      3  C   UNL     1       2.931   5.482  17.880  0.00  0.00    +0.000 C 
ATOM      4  C   UNL     1       1.552   4.821  17.750  0.00  0.00    +0.000 C 
ATOM      5  C   UNL     1       1.428   3.901  18.955  0.00  0.00    +0.000 C 
ATOM      6  C   UNL     1       2.726   4.084  19.752  0.00  0.00    +0.000 C 
ATOM      7  C   UNL     1       2.572   5.223  20.759  0.00  0.00    +0.000 C 
ATOM      8  C   UNL     1       2.470   6.637  20.148  0.00  0.00    +0.000 C 
ATOM      9  C   UNL     1       2.791   6.797  18.650  0.00  0.00    +0.000 C 
ENDROOT
BRANCH   2  10
ATOM     10  C   UNL     1       4.204   3.281  17.771  0.00  0.00    +0.000 C 
BRANCH  10  11
ATOM     11  C   UNL     1       4.496   3.730  16.331  0.00  0.00    +0.000 C 
BRANCH  11  12
ATOM     12  C   UNL     1       5.983   3.709  15.981  0.00  0.00    +0.000 C 
BRANCH  12  13
ATOM     13  S   UNL     1       6.408   4.920  14.751  0.00  0.00    +0.000 S 
ATOM     14  O   UNL     1       5.359   5.918  14.892  0.00  0.00    +0.000 OA
ATOM     15  O   UNL     1       7.737   5.342  15.190  0.00  0.00    +0.000 OA
ATOM     16  O   UNL     1       6.400   4.133  13.521  0.00  0.00    +0.000 OA
ENDBRANCH  12  13
ENDBRANCH  11  12
ENDBRANCH  10  11
ENDBRANCH   2  10
BRANCH   8  17
ATOM     17  O   UNL     1       1.159   7.179  20.400  0.00  0.00    +0.000 OA
BRANCH  17  18
ATOM     18  C   UNL     1       1.093   8.541  20.266  0.00  0.00    +0.000 C 
ATOM     19  O   UNL     1       1.795   9.190  19.498  0.00  0.00    +0.000 OA
BRANCH  18  20
ATOM     20  C   UNL     1       0.046   9.142  21.176  0.00  0.00    +0.000 C 
BRANCH  20  21
ATOM     21  C   UNL     1      -0.513  10.432  20.602  0.00  0.00    +0.000 A 
ATOM     22  C   UNL     1      -0.358  11.638  21.305  0.00  0.00    +0.000 A 
ATOM     23  C   UNL     1      -0.922  12.819  20.821  0.00  0.00    +0.000 A 
ATOM     24  C   UNL     1      -1.646  12.815  19.633  0.00  0.00    +0.000 A 
ATOM     25  C   UNL     1      -1.796  11.633  18.915  0.00  0.00    +0.000 A 
ATOM     26  C   UNL     1      -1.230  10.447  19.396  0.00  0.00    +0.000 A 
ENDBRANCH  20  21
BRANCH  20  27
ATOM     27  C   UNL     1       0.625   9.256  22.596  0.00  0.00    +0.000 C 
BRANCH  27  28
ATOM     28  O   UNL     1       2.049   9.207  22.649  0.00  0.00    +0.000 OA
ATOM     29  H   UNL     1       2.364  10.080  22.957  0.00  0.00    +0.000 HD
ENDBRANCH  27  28
ENDBRANCH  20  27
ENDBRANCH  18  20
ENDBRANCH  17  18
ENDBRANCH   8  17
TORSDOF 10
ENDMDL
MODEL 7
REMARK VINA RESULT:      -6.5      4.119      8.003
REMARK  Name = 
REMARK  11 active torsions:
REMARK  status: ('A' for Active; 'I' for Inactive)
REMARK    1  A    between atoms: C_1  and  N_2
REMARK    2  A    between atoms: N_2  and  C_3
REMARK    3  A    between atoms: C_3  and  C_4
REMARK    4  A    between atoms: C_4  and  C_5
REMARK    5  A    between atoms: C_5  and  S_6
REMARK    6  A    between atoms: C_15  and  O_16
REMARK    7  A    between atoms: O_16  and  C_17
REMARK    8  A    between atoms: C_17  and  C_19
REMARK    9  A    between atoms: C_19  and  C_20
REMARK   10  A    between atoms: C_19  and  C_22
REMARK   11  A    between atoms: C_20  and  O_21
REMARK                            x       y       z     vdW  Elec       q    Type
REMARK                         _______ _______ _______ _____ _____    ______ ____
ROOT
ATOM      1  C   UNL     1       3.601   7.390  17.584  0.00  0.00    +0.000 C 
ATOM      2  N   UNL     1       4.331   6.155  18.151  0.00  0.00    +0.000 N 
ATOM      3  C   UNL     1       5.833   6.403  18.430  0.00  0.00    +0.000 C 
ATOM      4  C   UNL     1       6.417   5.000  18.637  0.00  0.00    +0.000 C 
ATOM      5  C   UNL     1       5.502   4.061  17.864  0.00  0.00    +0.000 C 
ATOM      6  C   UNL     1       4.440   4.958  17.216  0.00  0.00    +0.000 C 
ATOM      7  C   UNL     1       4.915   5.430  15.842  0.00  0.00    +0.000 C 
ATOM      8  C   UNL     1       6.090   6.431  15.856  0.00  0.00    +0.000 C 
ATOM      9  C   UNL     1       6.491   7.050  17.208  0.00  0.00    +0.000 C 
ENDROOT
BRANCH   2  10
ATOM     10  C   UNL     1       3.600   5.838  19.512  0.00  0.00    +0.000 C 
BRANCH  10  11
ATOM     11  C   UNL     1       2.174   5.303  19.311  0.00  0.00    +0.000 C 
BRANCH  11  12
ATOM     12  C   UNL     1       2.007   3.849  19.749  0.00  0.00    +0.000 C 
BRANCH  12  13
ATOM     13  S   UNL     1       1.472   2.797  18.421  0.00  0.00    +0.000 S 
ATOM     14  O   UNL     1       1.324   3.720  17.306  0.00  0.00    +0.000 OA
ATOM     15  O   UNL     1       2.587   1.858  18.312  0.00  0.00    +0.000 OA
ATOM     16  O   UNL     1       0.244   2.216  18.956  0.00  0.00    +0.000 OA
ENDBRANCH  12  13
ENDBRANCH  11  12
ENDBRANCH  10  11
ENDBRANCH   2  10
BRANCH   8  17
ATOM     17  O   UNL     1       7.254   5.819  15.266  0.00  0.00    +0.000 OA
BRANCH  17  18
ATOM     18  C   UNL     1       6.977   4.669  14.574  0.00  0.00    +0.000 C 
ATOM     19  O   UNL     1       6.903   3.559  15.089  0.00  0.00    +0.000 OA
BRANCH  18  20
ATOM     20  C   UNL     1       6.768   4.940  13.101  0.00  0.00    +0.000 C 
BRANCH  20  21
ATOM     21  C   UNL     1       6.430   3.667  12.346  0.00  0.00    +0.000 A 
ATOM     22  C   UNL     1       7.459   2.857  11.840  0.00  0.00    +0.000 A 
ATOM     23  C   UNL     1       7.163   1.718  11.088  0.00  0.00    +0.000 A 
ATOM     24  C   UNL     1       5.841   1.373  10.832  0.00  0.00    +0.000 A 
ATOM     25  C   UNL     1       4.808   2.154  11.339  0.00  0.00    +0.000 A 
ATOM     26  C   UNL     1       5.100   3.295  12.094  0.00  0.00    +0.000 A 
ENDBRANCH  20  21
BRANCH  20  27
ATOM     27  C   UNL     1       7.979   5.718  12.560  0.00  0.00    +0.000 C 
BRANCH  27  28
ATOM     28  O   UNL     1       9.086   5.767  13.457  0.00  0.00    +0.000 OA
ATOM     29  H   UNL     1       9.835   5.306  13.027  0.00  0.00    +0.000 HD
ENDBRANCH  27  28
ENDBRANCH  20  27
ENDBRANCH  18  20
ENDBRANCH  17  18
ENDBRANCH   8  17
TORSDOF 10
ENDMDL
MODEL 8
REMARK VINA RESULT:      -6.4      0.712      1.026
REMARK  Name = 
REMARK  11 active torsions:
REMARK  status: ('A' for Active; 'I' for Inactive)
REMARK    1  A    between atoms: C_1  and  N_2
REMARK    2  A    between atoms: N_2  and  C_3
REMARK    3  A    between atoms: C_3  and  C_4
REMARK    4  A    between atoms: C_4  and  C_5
REMARK    5  A    between atoms: C_5  and  S_6
REMARK    6  A    between atoms: C_15  and  O_16
REMARK    7  A    between atoms: O_16  and  C_17
REMARK    8  A    between atoms: C_17  and  C_19
REMARK    9  A    between atoms: C_19  and  C_20
REMARK   10  A    between atoms: C_19  and  C_22
REMARK   11  A    between atoms: C_20  and  O_21
REMARK                            x       y       z     vdW  Elec       q    Type
REMARK                         _______ _______ _______ _____ _____    ______ ____
ROOT
ATOM      1  C   UNL     1       8.103   6.253  18.983  0.00  0.00    +0.000 C 
ATOM      2  N   UNL     1       7.327   6.560  17.686  0.00  0.00    +0.000 N 
ATOM      3  C   UNL     1       5.812   6.777  17.912  0.00  0.00    +0.000 C 
ATOM      4  C   UNL     1       5.207   6.712  16.504  0.00  0.00    +0.000 C 
ATOM      5  C   UNL     1       6.165   5.857  15.688  0.00  0.00    +0.000 C 
ATOM      6  C   UNL     1       7.274   5.436  16.660  0.00  0.00    +0.000 C 
ATOM      7  C   UNL     1       6.897   4.130  17.359  0.00  0.00    +0.000 C 
ATOM      8  C   UNL     1       5.730   4.231  18.365  0.00  0.00    +0.000 C 
ATOM      9  C   UNL     1       5.243   5.638  18.761  0.00  0.00    +0.000 C 
ENDROOT
BRANCH   2  10
ATOM     10  C   UNL     1       7.963   7.895  17.138  0.00  0.00    +0.000 C 
BRANCH  10  11
ATOM     11  C   UNL     1       7.780   9.080  18.098  0.00  0.00    +0.000 C 
BRANCH  11  12
ATOM     12  C   UNL     1       9.096   9.599  18.676  0.00  0.00    +0.000 C 
BRANCH  12  13
ATOM     13  S   UNL     1       9.297  11.349  18.444  0.00  0.00    +0.000 S 
ATOM     14  O   UNL     1       9.216  11.875  19.799  0.00  0.00    +0.000 OA
ATOM     15  O   UNL     1      10.618  11.422  17.823  0.00  0.00    +0.000 OA
ATOM     16  O   UNL     1       8.190  11.676  17.550  0.00  0.00    +0.000 OA
ENDBRANCH  12  13
ENDBRANCH  11  12
ENDBRANCH  10  11
ENDBRANCH   2  10
BRANCH   8  17
ATOM     17  O   UNL     1       4.605   3.473  17.877  0.00  0.00    +0.000 OA
BRANCH  17  18
ATOM     18  C   UNL     1       3.789   3.001  18.871  0.00  0.00    +0.000 C 
ATOM     19  O   UNL     1       4.181   2.337  19.824  0.00  0.00    +0.000 OA
BRANCH  18  20
ATOM     20  C   UNL     1       2.349   3.407  18.651  0.00  0.00    +0.000 C 
BRANCH  20  21
ATOM     21  C   UNL     1       2.124   4.865  19.008  0.00  0.00    +0.000 A 
ATOM     22  C   UNL     1       2.106   5.841  17.998  0.00  0.00    +0.000 A 
ATOM     23  C   UNL     1       1.965   7.192  18.318  0.00  0.00    +0.000 A 
ATOM     24  C   UNL     1       1.839   7.589  19.644  0.00  0.00    +0.000 A 
ATOM     25  C   UNL     1       1.837   6.636  20.657  0.00  0.00    +0.000 A 
ATOM     26  C   UNL     1       1.977   5.280  20.341  0.00  0.00    +0.000 A 
ENDBRANCH  20  21
BRANCH  20  27
ATOM     27  C   UNL     1       1.433   2.408  19.377  0.00  0.00    +0.000 C 
BRANCH  27  28
ATOM     28  O   UNL     1       0.115   2.329  18.837  0.00  0.00    +0.000 OA
ATOM     29  H   UNL     1       0.020   3.051  18.184  0.00  0.00    +0.000 HD
ENDBRANCH  27  28
ENDBRANCH  20  27
ENDBRANCH  18  20
ENDBRANCH  17  18
ENDBRANCH   8  17
TORSDOF 10
ENDMDL
MODEL 9
REMARK VINA RESULT:      -6.4      4.054      6.195
REMARK  Name = 
REMARK  11 active torsions:
REMARK  status: ('A' for Active; 'I' for Inactive)
REMARK    1  A    between atoms: C_1  and  N_2
REMARK    2  A    between atoms: N_2  and  C_3
REMARK    3  A    between atoms: C_3  and  C_4
REMARK    4  A    between atoms: C_4  and  C_5
REMARK    5  A    between atoms: C_5  and  S_6
REMARK    6  A    between atoms: C_15  and  O_16
REMARK    7  A    between atoms: O_16  and  C_17
REMARK    8  A    between atoms: C_17  and  C_19
REMARK    9  A    between atoms: C_19  and  C_20
REMARK   10  A    between atoms: C_19  and  C_22
REMARK   11  A    between atoms: C_20  and  O_21
REMARK                            x       y       z     vdW  Elec       q    Type
REMARK                         _______ _______ _______ _____ _____    ______ ____
ROOT
ATOM      1  C   UNL     1       5.098   5.302  19.308  0.00  0.00    +0.000 C 
ATOM      2  N   UNL     1       3.794   4.751  18.695  0.00  0.00    +0.000 N 
ATOM      3  C   UNL     1       3.026   5.791  17.845  0.00  0.00    +0.000 C 
ATOM      4  C   UNL     1       1.641   5.165  17.640  0.00  0.00    +0.000 C 
ATOM      5  C   UNL     1       1.438   4.231  18.825  0.00  0.00    +0.000 C 
ATOM      6  C   UNL     1       2.700   4.373  19.685  0.00  0.00    +0.000 C 
ATOM      7  C   UNL     1       2.523   5.502  20.700  0.00  0.00    +0.000 C 
ATOM      8  C   UNL     1       2.484   6.926  20.105  0.00  0.00    +0.000 C 
ATOM      9  C   UNL     1       2.880   7.099  18.628  0.00  0.00    +0.000 C 
ENDROOT
BRANCH   2  10
ATOM     10  C   UNL     1       4.252   3.563  17.765  0.00  0.00    +0.000 C 
BRANCH  10  11
ATOM     11  C   UNL     1       4.488   4.000  16.312  0.00  0.00    +0.000 C 
BRANCH  11  12
ATOM     12  C   UNL     1       5.908   3.727  15.821  0.00  0.00    +0.000 C 
BRANCH  12  13
ATOM     13  S   UNL     1       6.941   5.172  15.891  0.00  0.00    +0.000 S 
ATOM     14  O   UNL     1       7.611   5.164  14.599  0.00  0.00    +0.000 OA
ATOM     15  O   UNL     1       5.958   6.238  16.079  0.00  0.00    +0.000 OA
ATOM     16  O   UNL     1       7.773   4.907  17.060  0.00  0.00    +0.000 OA
ENDBRANCH  12  13
ENDBRANCH  11  12
ENDBRANCH  10  11
ENDBRANCH   2  10
BRANCH   8  17
ATOM     17  O   UNL     1       1.175   7.495  20.303  0.00  0.00    +0.000 OA
BRANCH  17  18
ATOM     18  C   UNL     1       1.179   8.627  21.075  0.00  0.00    +0.000 C 
ATOM     19  O   UNL     1       1.399   8.633  22.282  0.00  0.00    +0.000 OA
BRANCH  18  20
ATOM     20  C   UNL     1       0.887   9.864  20.256  0.00  0.00    +0.000 C 
BRANCH  20  21
ATOM     21  C   UNL     1       0.211  10.935  21.093  0.00  0.00    +0.000 A 
ATOM     22  C   UNL     1       0.572  12.283  20.932  0.00  0.00    +0.000 A 
ATOM     23  C   UNL     1       0.006  13.271  21.739  0.00  0.00    +0.000 A 
ATOM     24  C   UNL     1      -0.924  12.931  22.715  0.00  0.00    +0.000 A 
ATOM     25  C   UNL     1      -1.306  11.604  22.878  0.00  0.00    +0.000 A 
ATOM     26  C   UNL     1      -0.743  10.610  22.069  0.00  0.00    +0.000 A 
ENDBRANCH  20  21
BRANCH  20  27
ATOM     27  C   UNL     1       0.126   9.452  18.985  0.00  0.00    +0.000 C 
BRANCH  27  28
ATOM     28  O   UNL     1       0.329  10.327  17.877  0.00  0.00    +0.000 OA
ATOM     29  H   UNL     1      -0.385  10.155  17.231  0.00  0.00    +0.000 HD
ENDBRANCH  27  28
ENDBRANCH  20  27
ENDBRANCH  18  20
ENDBRANCH  17  18
ENDBRANCH   8  17
TORSDOF 10
ENDMDL
