MODEL 1
REMARK VINA RESULT:      -6.3      0.000      0.000
REMARK  Name = 
REMARK  5 active torsions:
REMARK  status: ('A' for Active; 'I' for Inactive)
REMARK    1  A    between atoms: C_1  and  N_2
REMARK    2  A    between atoms: N_5  and  C_6
REMARK    3  A    between atoms: C_6  and  C_7
REMARK    4  A    between atoms: N_13  and  C_14
REMARK    5  A    between atoms: C_14  and  C_15
REMARK                            x       y       z     vdW  Elec       q    Type
REMARK                         _______ _______ _______ _____ _____    ______ ____
ROOT
ATOM      1  C   UNL     1       2.553   7.090  18.546  0.00  0.00    +0.000 A 
ATOM      2  C   UNL     1       2.113   8.277  17.992  0.00  0.00    +0.000 A 
ATOM      3  N   UNL     1       1.535   8.946  19.024  0.00  0.00    +0.000 N 
ATOM      4  C   UNL     1       1.601   8.169  20.149  0.00  0.00    +0.000 A 
ATOM      5  N   UNL     1       2.221   7.034  19.888  0.00  0.00    +0.000 NA
ATOM      6  C   UNL     1       0.951   8.600  21.432  0.00  0.00    +0.000 C 
ATOM      7  N   UNL     1       0.631  10.050  21.459  0.00  0.00    +0.000 NA
ATOM      8  C   UNL     1      -0.016  10.444  20.190  0.00  0.00    +0.000 C 
ATOM      9  C   UNL     1       0.936  10.261  19.003  0.00  0.00    +0.000 C 
ENDROOT
BRANCH   1  10
ATOM     10  C   UNL     1       3.290   5.962  17.892  0.00  0.00    +0.000 C 
BRANCH  10  15
ATOM     11  C   UNL     1       5.987   4.051  14.487  0.00  0.00    +0.000 C 
ATOM     12  N   UNL     1       6.055   4.765  15.759  0.00  0.00    +0.000 NA
ATOM     13  C   UNL     1       5.435   3.969  16.837  0.00  0.00    +0.000 C 
ATOM     14  C   UNL     1       5.397   4.732  18.181  0.00  0.00    +0.000 C 
ATOM     15  N   UNL     1       4.747   6.062  18.120  0.00  0.00    +0.000 NA
ATOM     16  C   UNL     1       5.387   6.823  17.025  0.00  0.00    +0.000 C 
ATOM     17  C   UNL     1       5.416   6.089  15.661  0.00  0.00    +0.000 C 
ENDBRANCH  10  15
ENDBRANCH   1  10
BRANCH   7  18
ATOM     18  C   UNL     1      -0.235  10.396  22.595  0.00  0.00    +0.000 C 
BRANCH  18  19
ATOM     19  C   UNL     1      -1.194  11.503  22.264  0.00  0.00    +0.000 C 
ATOM     20  C   UNL     1      -2.330  11.866  23.187  0.00  0.00    +0.000 C 
ATOM     21  C   UNL     1      -1.162  12.798  23.042  0.00  0.00    +0.000 C 
ENDBRANCH  18  19
ENDBRANCH   7  18
TORSDOF 4
ENDMDL
MODEL 2
REMARK VINA RESULT:      -6.2      1.775      2.384
REMARK  Name = 
REMARK  5 active torsions:
REMARK  status: ('A' for Active; 'I' for Inactive)
REMARK    1  A    between atoms: C_1  and  N_2
REMARK    2  A    between atoms: N_5  and  C_6
REMARK    3  A    between atoms: C_6  and  C_7
REMARK    4  A    between atoms: N_13  and  C_14
REMARK    5  A    between atoms: C_14  and  C_15
REMARK                            x       y       z     vdW  Elec       q    Type
REMARK                         _______ _______ _______ _____ _____    ______ ____
ROOT
ATOM      1  C   UNL     1       2.143   7.277  19.853  0.00  0.00    +0.000 A 
ATOM      2  C   UNL     1       1.854   8.400  19.102  0.00  0.00    +0.000 A 
ATOM      3  N   UNL     1       1.166   9.212  19.946  0.00  0.00    +0.000 N 
ATOM      4  C   UNL     1       1.021   8.578  21.151  0.00  0.00    +0.000 A 
ATOM      5  N   UNL     1       1.611   7.400  21.124  0.00  0.00    +0.000 NA
ATOM      6  C   UNL     1       0.211   9.188  22.259  0.00  0.00    +0.000 C 
ATOM      7  N   UNL     1      -0.032  10.640  22.065  0.00  0.00    +0.000 NA
ATOM      8  C   UNL     1      -0.461  10.896  20.674  0.00  0.00    +0.000 C 
ATOM      9  C   UNL     1       0.646  10.534  19.679  0.00  0.00    +0.000 C 
ENDROOT
BRANCH   1  10
ATOM     10  C   UNL     1       2.909   6.052  19.458  0.00  0.00    +0.000 C 
BRANCH  10  15
ATOM     11  C   UNL     1       3.574   1.487  18.345  0.00  0.00    +0.000 C 
ATOM     12  N   UNL     1       3.204   2.779  17.776  0.00  0.00    +0.000 NA
ATOM     13  C   UNL     1       4.312   3.745  17.910  0.00  0.00    +0.000 C 
ATOM     14  C   UNL     1       3.925   5.155  17.408  0.00  0.00    +0.000 C 
ATOM     15  N   UNL     1       2.706   5.721  18.032  0.00  0.00    +0.000 NA
ATOM     16  C   UNL     1       1.623   4.722  17.886  0.00  0.00    +0.000 C 
ATOM     17  C   UNL     1       1.980   3.306  18.404  0.00  0.00    +0.000 C 
ENDBRANCH  10  15
ENDBRANCH   1  10
BRANCH   7  18
ATOM     18  C   UNL     1      -1.039  11.154  23.004  0.00  0.00    +0.000 C 
BRANCH  18  19
ATOM     19  C   UNL     1      -1.984  12.123  22.354  0.00  0.00    +0.000 C 
ATOM     20  C   UNL     1      -3.329  12.440  22.957  0.00  0.00    +0.000 C 
ATOM     21  C   UNL     1      -2.241  13.474  22.980  0.00  0.00    +0.000 C 
ENDBRANCH  18  19
ENDBRANCH   7  18
TORSDOF 4
ENDMDL
MODEL 3
REMARK VINA RESULT:      -6.2      1.980      8.499
REMARK  Name = 
REMARK  5 active torsions:
REMARK  status: ('A' for Active; 'I' for Inactive)
REMARK    1  A    between atoms: C_1  and  N_2
REMARK    2  A    between atoms: N_5  and  C_6
REMARK    3  A    between atoms: C_6  and  C_7
REMARK    4  A    between atoms: N_13  and  C_14
REMARK    5  A    between atoms: C_14  and  C_15
REMARK                            x       y       z     vdW  Elec       q    Type
REMARK                         _______ _______ _______ _____ _____    ______ ____
ROOT
ATOM      1  C   UNL     1       2.300   7.687  19.012  0.00  0.00    +0.000 A 
ATOM      2  C   UNL     1       2.449   6.510  19.721  0.00  0.00    +0.000 A 
ATOM      3  N   UNL     1       3.368   5.798  19.018  0.00  0.00    +0.000 N 
ATOM      4  C   UNL     1       3.730   6.514  17.908  0.00  0.00    +0.000 A 
ATOM      5  N   UNL     1       3.099   7.671  17.883  0.00  0.00    +0.000 NA
ATOM      6  C   UNL     1       4.659   5.937  16.879  0.00  0.00    +0.000 C 
ATOM      7  N   UNL     1       5.422   4.767  17.380  0.00  0.00    +0.000 NA
ATOM      8  C   UNL     1       4.512   3.840  18.087  0.00  0.00    +0.000 C 
ATOM      9  C   UNL     1       3.913   4.497  19.334  0.00  0.00    +0.000 C 
ENDROOT
BRANCH   1  10
ATOM     10  C   UNL     1       1.438   8.871  19.324  0.00  0.00    +0.000 C 
BRANCH  10  15
ATOM     11  C   UNL     1      -0.888  12.932  20.112  0.00  0.00    +0.000 C 
ATOM     12  N   UNL     1      -0.276  12.129  19.056  0.00  0.00    +0.000 NA
ATOM     13  C   UNL     1      -0.954  10.824  18.935  0.00  0.00    +0.000 C 
ATOM     14  C   UNL     1      -0.274   9.904  17.895  0.00  0.00    +0.000 C 
ATOM     15  N   UNL     1       1.174   9.684  18.118  0.00  0.00    +0.000 NA
ATOM     16  C   UNL     1       1.815  11.012  18.244  0.00  0.00    +0.000 C 
ATOM     17  C   UNL     1       1.165  11.943  19.297  0.00  0.00    +0.000 C 
ENDBRANCH  10  15
ENDBRANCH   1  10
BRANCH   7  18
ATOM     18  C   UNL     1       6.114   4.061  16.293  0.00  0.00    +0.000 C 
BRANCH  18  19
ATOM     19  C   UNL     1       5.880   4.703  14.956  0.00  0.00    +0.000 C 
ATOM     20  C   UNL     1       6.991   4.854  13.947  0.00  0.00    +0.000 C 
ATOM     21  C   UNL     1       5.886   3.868  13.697  0.00  0.00    +0.000 C 
ENDBRANCH  18  19
ENDBRANCH   7  18
TORSDOF 4
ENDMDL
MODEL 4
REMARK VINA RESULT:      -6.1      5.570      8.690
REMARK  Name = 
REMARK  5 active torsions:
REMARK  status: ('A' for Active; 'I' for Inactive)
REMARK    1  A    between atoms: C_1  and  N_2
REMARK    2  A    between atoms: N_5  and  C_6
REMARK    3  A    between atoms: C_6  and  C_7
REMARK    4  A    between atoms: N_13  and  C_14
REMARK    5  A    between atoms: C_14  and  C_15
REMARK                            x       y       z     vdW  Elec       q    Type
REMARK                         _______ _______ _______ _____ _____    ______ ____
ROOT
ATOM      1  C   UNL     1       8.222   8.963  18.109  0.00  0.00    +0.000 A 
ATOM      2  C   UNL     1       8.560   7.845  18.848  0.00  0.00    +0.000 A 
ATOM      3  N   UNL     1       7.788   6.849  18.340  0.00  0.00    +0.000 N 
ATOM      4  C   UNL     1       6.992   7.365  17.352  0.00  0.00    +0.000 A 
ATOM      5  N   UNL     1       7.240   8.649  17.186  0.00  0.00    +0.000 NA
ATOM      6  C   UNL     1       5.953   6.522  16.671  0.00  0.00    +0.000 C 
ATOM      7  N   UNL     1       6.167   5.066  16.870  0.00  0.00    +0.000 NA
ATOM      8  C   UNL     1       6.455   4.792  18.294  0.00  0.00    +0.000 C 
ATOM      9  C   UNL     1       7.763   5.459  18.733  0.00  0.00    +0.000 C 
ENDROOT
BRANCH   1  10
ATOM     10  C   UNL     1       8.771  10.353  18.201  0.00  0.00    +0.000 C 
BRANCH  10  15
ATOM     11  C   UNL     1      10.011  14.771  19.412  0.00  0.00    +0.000 C 
ATOM     12  N   UNL     1      10.302  13.366  19.686  0.00  0.00    +0.000 NA
ATOM     13  C   UNL     1      10.806  12.693  18.472  0.00  0.00    +0.000 C 
ATOM     14  C   UNL     1      11.032  11.180  18.693  0.00  0.00    +0.000 C 
ATOM     15  N   UNL     1       9.851  10.446  19.205  0.00  0.00    +0.000 NA
ATOM     16  C   UNL     1       9.371  11.155  20.412  0.00  0.00    +0.000 C 
ATOM     17  C   UNL     1       9.115  12.669  20.209  0.00  0.00    +0.000 C 
ENDBRANCH  10  15
ENDBRANCH   1  10
BRANCH   7  18
ATOM     18  C   UNL     1       5.007   4.279  16.430  0.00  0.00    +0.000 C 
BRANCH  18  19
ATOM     19  C   UNL     1       4.050   3.998  17.553  0.00  0.00    +0.000 C 
ATOM     20  C   UNL     1       2.793   4.810  17.740  0.00  0.00    +0.000 C 
ATOM     21  C   UNL     1       2.698   3.388  17.267  0.00  0.00    +0.000 C 
ENDBRANCH  18  19
ENDBRANCH   7  18
TORSDOF 4
ENDMDL
MODEL 5
REMARK VINA RESULT:      -6.1      1.847      8.566
REMARK  Name = 
REMARK  5 active torsions:
REMARK  status: ('A' for Active; 'I' for Inactive)
REMARK    1  A    between atoms: C_1  and  N_2
REMARK    2  A    between atoms: N_5  and  C_6
REMARK    3  A    between atoms: C_6  and  C_7
REMARK    4  A    between atoms: N_13  and  C_14
REMARK    5  A    between atoms: C_14  and  C_15
REMARK                            x       y       z     vdW  Elec       q    Type
REMARK                         _______ _______ _______ _____ _____    ______ ____
ROOT
ATOM      1  C   UNL     1       1.979   8.679  18.430  0.00  0.00    +0.000 A 
ATOM      2  C   UNL     1       2.031   7.678  19.381  0.00  0.00    +0.000 A 
ATOM      3  N   UNL     1       2.974   6.814  18.921  0.00  0.00    +0.000 N 
ATOM      4  C   UNL     1       3.445   7.271  17.718  0.00  0.00    +0.000 A 
ATOM      5  N   UNL     1       2.859   8.408  17.398  0.00  0.00    +0.000 NA
ATOM      6  C   UNL     1       4.427   6.471  16.913  0.00  0.00    +0.000 C 
ATOM      7  N   UNL     1       5.108   5.420  17.710  0.00  0.00    +0.000 NA
ATOM      8  C   UNL     1       4.116   4.682  18.519  0.00  0.00    +0.000 C 
ATOM      9  C   UNL     1       3.447   5.601  19.547  0.00  0.00    +0.000 C 
ENDROOT
BRANCH   1  10
ATOM     10  C   UNL     1       1.138   9.918  18.414  0.00  0.00    +0.000 C 
BRANCH  10  15
ATOM     11  C   UNL     1      -0.513  14.250  19.429  0.00  0.00    +0.000 C 
ATOM     12  N   UNL     1      -0.564  12.857  19.862  0.00  0.00    +0.000 NA
ATOM     13  C   UNL     1       0.775  12.389  20.272  0.00  0.00    +0.000 C 
ATOM     14  C   UNL     1       0.783  10.889  20.644  0.00  0.00    +0.000 C 
ATOM     15  N   UNL     1       0.251   9.988  19.595  0.00  0.00    +0.000 NA
ATOM     16  C   UNL     1      -1.084  10.494  19.205  0.00  0.00    +0.000 C 
ATOM     17  C   UNL     1      -1.113  11.990  18.805  0.00  0.00    +0.000 C 
ENDBRANCH  10  15
ENDBRANCH   1  10
BRANCH   7  18
ATOM     18  C   UNL     1       5.855   4.486  16.856  0.00  0.00    +0.000 C 
BRANCH  18  19
ATOM     19  C   UNL     1       5.836   4.895  15.411  0.00  0.00    +0.000 C 
ATOM     20  C   UNL     1       7.085   4.869  14.566  0.00  0.00    +0.000 C 
ATOM     21  C   UNL     1       6.001   3.859  14.323  0.00  0.00    +0.000 C 
ENDBRANCH  18  19
ENDBRANCH   7  18
TORSDOF 4
ENDMDL
MODEL 6
REMARK VINA RESULT:      -6.1      2.661      3.126
REMARK  Name = 
REMARK  5 active torsions:
REMARK  status: ('A' for Active; 'I' for Inactive)
REMARK    1  A    between atoms: C_1  and  N_2
REMARK    2  A    between atoms: N_5  and  C_6
REMARK    3  A    between atoms: C_6  and  C_7
REMARK    4  A    between atoms: N_13  and  C_14
REMARK    5  A    between atoms: C_14  and  C_15
REMARK                            x       y       z     vdW  Elec       q    Type
REMARK                         _______ _______ _______ _____ _____    ______ ____
ROOT
ATOM      1  C   UNL     1       2.229   7.016  19.792  0.00  0.00    +0.000 A 
ATOM      2  C   UNL     1       2.265   7.867  18.703  0.00  0.00    +0.000 A 
ATOM      3  N   UNL     1       1.581   8.970  19.106  0.00  0.00    +0.000 N 
ATOM      4  C   UNL     1       1.126   8.769  20.381  0.00  0.00    +0.000 A 
ATOM      5  N   UNL     1       1.511   7.589  20.826  0.00  0.00    +0.000 NA
ATOM      6  C   UNL     1       0.246   9.777  21.061  0.00  0.00    +0.000 C 
ATOM      7  N   UNL     1       0.281  11.110  20.408  0.00  0.00    +0.000 NA
ATOM      8  C   UNL     1       0.151  10.954  18.943  0.00  0.00    +0.000 C 
ATOM      9  C   UNL     1       1.341  10.185  18.361  0.00  0.00    +0.000 C 
ENDROOT
BRANCH   1  10
ATOM     10  C   UNL     1       2.841   5.657  19.944  0.00  0.00    +0.000 C 
BRANCH  10  15
ATOM     11  C   UNL     1       3.750   1.272  18.375  0.00  0.00    +0.000 C 
ATOM     12  N   UNL     1       2.788   2.053  19.147  0.00  0.00    +0.000 NA
ATOM     13  C   UNL     1       2.170   3.097  18.306  0.00  0.00    +0.000 C 
ATOM     14  C   UNL     1       1.218   4.011  19.111  0.00  0.00    +0.000 C 
ATOM     15  N   UNL     1       1.828   4.643  20.305  0.00  0.00    +0.000 NA
ATOM     16  C   UNL     1       2.444   3.568  21.115  0.00  0.00    +0.000 C 
ATOM     17  C   UNL     1       3.421   2.653  20.335  0.00  0.00    +0.000 C 
ENDBRANCH  10  15
ENDBRANCH   1  10
BRANCH   7  18
ATOM     18  C   UNL     1      -0.776  11.995  20.916  0.00  0.00    +0.000 C 
BRANCH  18  19
ATOM     19  C   UNL     1      -0.889  11.948  22.412  0.00  0.00    +0.000 C 
ATOM     20  C   UNL     1      -1.366  13.138  23.206  0.00  0.00    +0.000 C 
ATOM     21  C   UNL     1      -2.247  11.930  23.074  0.00  0.00    +0.000 C 
ENDBRANCH  18  19
ENDBRANCH   7  18
TORSDOF 4
ENDMDL
MODEL 7
REMARK VINA RESULT:      -6.1      1.885      2.247
REMARK  Name = 
REMARK  5 active torsions:
REMARK  status: ('A' for Active; 'I' for Inactive)
REMARK    1  A    between atoms: C_1  and  N_2
REMARK    2  A    between atoms: N_5  and  C_6
REMARK    3  A    between atoms: C_6  and  C_7
REMARK    4  A    between atoms: N_13  and  C_14
REMARK    5  A    between atoms: C_14  and  C_15
REMARK                            x       y       z     vdW  Elec       q    Type
REMARK                         _______ _______ _______ _____ _____    ______ ____
ROOT
ATOM      1  C   UNL     1       2.146   7.542  19.316  0.00  0.00    +0.000 A 
ATOM      2  C   UNL     1       1.775   8.729  18.713  0.00  0.00    +0.000 A 
ATOM      3  N   UNL     1       1.134   9.426  19.687  0.00  0.00    +0.000 N 
ATOM      4  C   UNL     1       1.096   8.665  20.825  0.00  0.00    +0.000 A 
ATOM      5  N   UNL     1       1.710   7.515  20.629  0.00  0.00    +0.000 NA
ATOM      6  C   UNL     1       0.359   9.130  22.047  0.00  0.00    +0.000 C 
ATOM      7  N   UNL     1       0.068  10.586  22.028  0.00  0.00    +0.000 NA
ATOM      8  C   UNL     1      -0.471  10.973  20.707  0.00  0.00    +0.000 C 
ATOM      9  C   UNL     1       0.566  10.752  19.601  0.00  0.00    +0.000 C 
ENDROOT
BRANCH   1  10
ATOM     10  C   UNL     1       2.907   6.390  18.738  0.00  0.00    +0.000 C 
BRANCH  10  15
ATOM     11  C   UNL     1       3.478   1.747  17.938  0.00  0.00    +0.000 C 
ATOM     12  N   UNL     1       3.806   2.813  18.881  0.00  0.00    +0.000 NA
ATOM     13  C   UNL     1       2.579   3.383  19.470  0.00  0.00    +0.000 C 
ATOM     14  C   UNL     1       2.877   4.581  20.400  0.00  0.00    +0.000 C 
ATOM     15  N   UNL     1       3.670   5.666  19.777  0.00  0.00    +0.000 NA
ATOM     16  C   UNL     1       4.883   5.055  19.191  0.00  0.00    +0.000 C 
ATOM     17  C   UNL     1       4.608   3.866  18.236  0.00  0.00    +0.000 C 
ENDBRANCH  10  15
ENDBRANCH   1  10
BRANCH   7  18
ATOM     18  C   UNL     1      -0.875  10.968  23.088  0.00  0.00    +0.000 C 
BRANCH  18  19
ATOM     19  C   UNL     1      -1.860  12.005  22.629  0.00  0.00    +0.000 C 
ATOM     20  C   UNL     1      -3.114  12.305  23.411  0.00  0.00    +0.000 C 
ATOM     21  C   UNL     1      -1.999  13.309  23.380  0.00  0.00    +0.000 C 
ENDBRANCH  18  19
ENDBRANCH   7  18
TORSDOF 4
ENDMDL
MODEL 8
REMARK VINA RESULT:      -6.0      1.744      2.504
REMARK  Name = 
REMARK  5 active torsions:
REMARK  status: ('A' for Active; 'I' for Inactive)
REMARK    1  A    between atoms: C_1  and  N_2
REMARK    2  A    between atoms: N_5  and  C_6
REMARK    3  A    between atoms: C_6  and  C_7
REMARK    4  A    between atoms: N_13  and  C_14
REMARK    5  A    between atoms: C_14  and  C_15
REMARK                            x       y       z     vdW  Elec       q    Type
REMARK                         _______ _______ _______ _____ _____    ______ ____
ROOT
ATOM      1  C   UNL     1       2.458   7.445  18.926  0.00  0.00    +0.000 A 
ATOM      2  C   UNL     1       1.924   8.554  18.297  0.00  0.00    +0.000 A 
ATOM      3  N   UNL     1       1.252   9.215  19.275  0.00  0.00    +0.000 N 
ATOM      4  C   UNL     1       1.356   8.506  20.442  0.00  0.00    +0.000 A 
ATOM      5  N   UNL     1       2.090   7.426  20.259  0.00  0.00    +0.000 NA
ATOM      6  C   UNL     1       0.627   8.937  21.682  0.00  0.00    +0.000 C 
ATOM      7  N   UNL     1       0.168  10.348  21.622  0.00  0.00    +0.000 NA
ATOM      8  C   UNL     1      -0.474  10.612  20.316  0.00  0.00    +0.000 C 
ATOM      9  C   UNL     1       0.529  10.462  19.167  0.00  0.00    +0.000 C 
ENDROOT
BRANCH   1  10
ATOM     10  C   UNL     1       3.321   6.363  18.354  0.00  0.00    +0.000 C 
BRANCH  10  15
ATOM     11  C   UNL     1       4.463   2.124  20.155  0.00  0.00    +0.000 C 
ATOM     12  N   UNL     1       3.540   2.786  19.238  0.00  0.00    +0.000 NA
ATOM     13  C   UNL     1       4.274   3.410  18.119  0.00  0.00    +0.000 C 
ATOM     14  C   UNL     1       3.342   4.206  17.178  0.00  0.00    +0.000 C 
ATOM     15  N   UNL     1       2.513   5.233  17.850  0.00  0.00    +0.000 NA
ATOM     16  C   UNL     1       1.802   4.572  18.968  0.00  0.00    +0.000 C 
ATOM     17  C   UNL     1       2.718   3.787  19.939  0.00  0.00    +0.000 C 
ENDBRANCH  10  15
ENDBRANCH   1  10
BRANCH   7  18
ATOM     18  C   UNL     1      -0.763  10.665  22.713  0.00  0.00    +0.000 C 
BRANCH  18  19
ATOM     19  C   UNL     1      -1.629  11.851  22.398  0.00  0.00    +0.000 C 
ATOM     20  C   UNL     1      -2.759  12.268  23.305  0.00  0.00    +0.000 C 
ATOM     21  C   UNL     1      -1.521  13.113  23.221  0.00  0.00    +0.000 C 
ENDBRANCH  18  19
ENDBRANCH   7  18
TORSDOF 4
ENDMDL
MODEL 9
REMARK VINA RESULT:      -6.0      1.835      2.222
REMARK  Name = 
REMARK  5 active torsions:
REMARK  status: ('A' for Active; 'I' for Inactive)
REMARK    1  A    between atoms: C_1  and  N_2
REMARK    2  A    between atoms: N_5  and  C_6
REMARK    3  A    between atoms: C_6  and  C_7
REMARK    4  A    between atoms: N_13  and  C_14
REMARK    5  A    between atoms: C_14  and  C_15
REMARK                            x       y       z     vdW  Elec       q    Type
REMARK                         _______ _______ _______ _____ _____    ______ ____
ROOT
ATOM      1  C   UNL     1       2.196   7.269  19.645  0.00  0.00    +0.000 A 
ATOM      2  C   UNL     1       2.229   8.164  18.593  0.00  0.00    +0.000 A 
ATOM      3  N   UNL     1       1.555   9.253  19.046  0.00  0.00    +0.000 N 
ATOM      4  C   UNL     1       1.108   9.002  20.315  0.00  0.00    +0.000 A 
ATOM      5  N   UNL     1       1.488   7.802  20.707  0.00  0.00    +0.000 NA
ATOM      6  C   UNL     1       0.238   9.987  21.043  0.00  0.00    +0.000 C 
ATOM      7  N   UNL     1       0.278  11.345  20.445  0.00  0.00    +0.000 NA
ATOM      8  C   UNL     1       0.136  11.251  18.976  0.00  0.00    +0.000 C 
ATOM      9  C   UNL     1       1.317  10.500  18.353  0.00  0.00    +0.000 C 
ENDROOT
BRANCH   1  10
ATOM     10  C   UNL     1       2.800   5.901  19.737  0.00  0.00    +0.000 C 
BRANCH  10  15
ATOM     11  C   UNL     1       3.567   1.412  18.405  0.00  0.00    +0.000 C 
ATOM     12  N   UNL     1       4.017   2.782  18.182  0.00  0.00    +0.000 NA
ATOM     13  C   UNL     1       4.568   3.358  19.425  0.00  0.00    +0.000 C 
ATOM     14  C   UNL     1       4.965   4.843  19.257  0.00  0.00    +0.000 C 
ATOM     15  N   UNL     1       3.884   5.719  18.749  0.00  0.00    +0.000 NA
ATOM     16  C   UNL     1       3.354   5.105  17.512  0.00  0.00    +0.000 C 
ATOM     17  C   UNL     1       2.926   3.623  17.661  0.00  0.00    +0.000 C 
ENDBRANCH  10  15
ENDBRANCH   1  10
BRANCH   7  18
ATOM     18  C   UNL     1      -0.770  12.215  20.997  0.00  0.00    +0.000 C 
BRANCH  18  19
ATOM     19  C   UNL     1      -0.897  12.079  22.487  0.00  0.00    +0.000 C 
ATOM     20  C   UNL     1      -1.472  13.186  23.334  0.00  0.00    +0.000 C 
ATOM     21  C   UNL     1      -2.258  11.924  23.125  0.00  0.00    +0.000 C 
ENDBRANCH  18  19
ENDBRANCH   7  18
TORSDOF 4
ENDMDL
