MODEL 1
REMARK VINA RESULT:      -7.6      0.000      0.000
REMARK  Name = 
REMARK  11 active torsions:
REMARK  status: ('A' for Active; 'I' for Inactive)
REMARK    1  A    between atoms: C_1  and  N_2
REMARK    2  A    between atoms: N_9  and  C_10
REMARK    3  A    between atoms: C_10  and  C_11
REMARK    4  A    between atoms: C_11  and  C_12
REMARK    5  A    between atoms: C_11  and  O_21
REMARK    6  A    between atoms: C_12  and  O_13
REMARK    7  A    between atoms: O_13  and  C_14
REMARK    8  A    between atoms: C_14  and  C_15
REMARK    9  A    between atoms: O_21  and  C_22
REMARK   10  A    between atoms: C_22  and  C_23
REMARK   11  A    between atoms: N_29  and  C_30
REMARK                            x       y       z     vdW  Elec       q    Type
REMARK                         _______ _______ _______ _____ _____    ______ ____
ROOT
ATOM      1  C   UNL     1       2.450   6.640  20.113  0.00  0.00    +0.000 C 
ENDROOT
BRANCH   1   2
ATOM      2  C   UNL     1       1.807   7.889  19.472  0.00  0.00    +0.000 C 
BRANCH   2  11
ATOM      3  C   UNL     1      -1.868  11.937  18.116  0.00  0.00    +0.000 C 
ATOM      4  N   UNL     1      -1.237  11.301  19.253  0.00  0.00    +0.000 N 
ATOM      5  C   UNL     1      -0.306  10.285  19.006  0.00  0.00    +0.000 A 
ATOM      6  O   UNL     1       0.005   9.897  17.883  0.00  0.00    +0.000 OA
ATOM      7  C   UNL     1       0.297   9.787  20.197  0.00  0.00    +0.000 A 
ATOM      8  C   UNL     1       0.011  10.283  21.435  0.00  0.00    +0.000 A 
ATOM      9  N   UNL     1       0.798   9.731  22.401  0.00  0.00    +0.000 NA
ATOM     10  C   UNL     1       1.564   8.883  21.752  0.00  0.00    +0.000 A 
ATOM     11  N   UNL     1       1.224   8.810  20.423  0.00  0.00    +0.000 N 
ATOM     12  N   UNL     1      -0.947  11.246  21.628  0.00  0.00    +0.000 N 
ATOM     13  C   UNL     1      -1.293  11.722  22.952  0.00  0.00    +0.000 C 
ATOM     14  C   UNL     1      -1.600  11.789  20.523  0.00  0.00    +0.000 A 
ATOM     15  O   UNL     1      -2.451  12.676  20.651  0.00  0.00    +0.000 OA
ENDBRANCH   2  11
ENDBRANCH   1   2
BRANCH   1  16
ATOM     16  C   UNL     1       1.369   5.692  20.692  0.00  0.00    +0.000 C 
BRANCH  16  17
ATOM     17  O   UNL     1       1.904   4.637  21.499  0.00  0.00    +0.000 OA
BRANCH  17  18
ATOM     18  C   UNL     1       1.458   3.340  21.101  0.00  0.00    +0.000 C 
BRANCH  18  19
ATOM     19  C   UNL     1       2.271   2.865  19.932  0.00  0.00    +0.000 A 
ATOM     20  C   UNL     1       1.663   2.728  18.676  0.00  0.00    +0.000 A 
ATOM     21  C   UNL     1       2.412   2.326  17.572  0.00  0.00    +0.000 A 
ATOM     22  C   UNL     1       3.768   2.047  17.719  0.00  0.00    +0.000 A 
ATOM     23  C   UNL     1       4.377   2.163  18.969  0.00  0.00    +0.000 A 
ATOM     24  C   UNL     1       3.630   2.568  20.076  0.00  0.00    +0.000 A 
ENDBRANCH  18  19
ENDBRANCH  17  18
ENDBRANCH  16  17
ENDBRANCH   1  16
BRANCH   1  25
ATOM     25  O   UNL     1       3.237   5.867  19.189  0.00  0.00    +0.000 OA
BRANCH  25  26
ATOM     26  C   UNL     1       3.747   6.562  18.060  0.00  0.00    +0.000 C 
BRANCH  26  27
ATOM     27  C   UNL     1       4.938   5.821  17.513  0.00  0.00    +0.000 A 
ATOM     28  C   UNL     1       6.086   5.648  18.301  0.00  0.00    +0.000 A 
ATOM     29  C   UNL     1       7.171   4.908  17.827  0.00  0.00    +0.000 A 
ATOM     30  C   UNL     1       7.121   4.340  16.557  0.00  0.00    +0.000 A 
ATOM     31  C   UNL     1       5.996   4.521  15.755  0.00  0.00    +0.000 A 
ATOM     32  C   UNL     1       4.909   5.260  16.229  0.00  0.00    +0.000 A 
ENDBRANCH  26  27
ENDBRANCH  25  26
ENDBRANCH   1  25
TORSDOF 9
ENDMDL
MODEL 2
REMARK VINA RESULT:      -7.5      1.544      2.052
REMARK  Name = 
REMARK  11 active torsions:
REMARK  status: ('A' for Active; 'I' for Inactive)
REMARK    1  A    between atoms: C_1  and  N_2
REMARK    2  A    between atoms: N_9  and  C_10
REMARK    3  A    between atoms: C_10  and  C_11
REMARK    4  A    between atoms: C_11  and  C_12
REMARK    5  A    between atoms: C_11  and  O_21
REMARK    6  A    between atoms: C_12  and  O_13
REMARK    7  A    between atoms: O_13  and  C_14
REMARK    8  A    between atoms: C_14  and  C_15
REMARK    9  A    between atoms: O_21  and  C_22
REMARK   10  A    between atoms: C_22  and  C_23
REMARK   11  A    between atoms: N_29  and  C_30
REMARK                            x       y       z     vdW  Elec       q    Type
REMARK                         _______ _______ _______ _____ _____    ______ ____
ROOT
ATOM      1  C   UNL     1       2.213   8.467  18.630  0.00  0.00    +0.000 C 
ENDROOT
BRANCH   1   2
ATOM      2  C   UNL     1       1.032   9.208  17.967  0.00  0.00    +0.000 C 
BRANCH   2  11
ATOM      3  C   UNL     1      -4.259  11.069  17.441  0.00  0.00    +0.000 C 
ATOM      4  N   UNL     1      -3.082  11.194  18.275  0.00  0.00    +0.000 N 
ATOM      5  C   UNL     1      -1.937  10.473  17.909  0.00  0.00    +0.000 A 
ATOM      6  O   UNL     1      -1.874   9.739  16.928  0.00  0.00    +0.000 OA
ATOM      7  C   UNL     1      -0.827  10.732  18.763  0.00  0.00    +0.000 A 
ATOM      8  C   UNL     1      -0.879  11.616  19.800  0.00  0.00    +0.000 A 
ATOM      9  N   UNL     1       0.336  11.781  20.393  0.00  0.00    +0.000 NA
ATOM     10  C   UNL     1       1.137  10.984  19.722  0.00  0.00    +0.000 A 
ATOM     11  N   UNL     1       0.451  10.250  18.785  0.00  0.00    +0.000 N 
ATOM     12  N   UNL     1      -2.040  12.260  20.147  0.00  0.00    +0.000 N 
ATOM     13  C   UNL     1      -2.106  13.148  21.290  0.00  0.00    +0.000 C 
ATOM     14  C   UNL     1      -3.185  12.064  19.377  0.00  0.00    +0.000 A 
ATOM     15  O   UNL     1      -4.244  12.644  19.640  0.00  0.00    +0.000 OA
ENDBRANCH   2  11
ENDBRANCH   1   2
BRANCH   1  16
ATOM     16  C   UNL     1       1.756   7.722  19.909  0.00  0.00    +0.000 C 
BRANCH  16  17
ATOM     17  O   UNL     1       2.506   6.532  20.179  0.00  0.00    +0.000 OA
BRANCH  17  18
ATOM     18  C   UNL     1       1.693   5.363  20.280  0.00  0.00    +0.000 C 
BRANCH  18  19
ATOM     19  C   UNL     1       2.265   4.276  19.416  0.00  0.00    +0.000 A 
ATOM     20  C   UNL     1       3.052   3.272  19.998  0.00  0.00    +0.000 A 
ATOM     21  C   UNL     1       3.559   2.235  19.219  0.00  0.00    +0.000 A 
ATOM     22  C   UNL     1       3.291   2.201  17.852  0.00  0.00    +0.000 A 
ATOM     23  C   UNL     1       2.524   3.206  17.262  0.00  0.00    +0.000 A 
ATOM     24  C   UNL     1       2.014   4.245  18.041  0.00  0.00    +0.000 A 
ENDBRANCH  18  19
ENDBRANCH  17  18
ENDBRANCH  16  17
ENDBRANCH   1  16
BRANCH   1  25
ATOM     25  O   UNL     1       2.826   7.490  17.770  0.00  0.00    +0.000 OA
BRANCH  25  26
ATOM     26  C   UNL     1       4.104   7.823  17.246  0.00  0.00    +0.000 C 
BRANCH  26  27
ATOM     27  C   UNL     1       4.887   6.561  16.997  0.00  0.00    +0.000 A 
ATOM     28  C   UNL     1       5.401   5.823  18.075  0.00  0.00    +0.000 A 
ATOM     29  C   UNL     1       6.073   4.620  17.858  0.00  0.00    +0.000 A 
ATOM     30  C   UNL     1       6.245   4.144  16.561  0.00  0.00    +0.000 A 
ATOM     31  C   UNL     1       5.759   4.877  15.480  0.00  0.00    +0.000 A 
ATOM     32  C   UNL     1       5.085   6.081  15.695  0.00  0.00    +0.000 A 
ENDBRANCH  26  27
ENDBRANCH  25  26
ENDBRANCH   1  25
TORSDOF 9
ENDMDL
MODEL 3
REMARK VINA RESULT:      -7.5      2.028      5.081
REMARK  Name = 
REMARK  11 active torsions:
REMARK  status: ('A' for Active; 'I' for Inactive)
REMARK    1  A    between atoms: C_1  and  N_2
REMARK    2  A    between atoms: N_9  and  C_10
REMARK    3  A    between atoms: C_10  and  C_11
REMARK    4  A    between atoms: C_11  and  C_12
REMARK    5  A    between atoms: C_11  and  O_21
REMARK    6  A    between atoms: C_12  and  O_13
REMARK    7  A    between atoms: O_13  and  C_14
REMARK    8  A    between atoms: C_14  and  C_15
REMARK    9  A    between atoms: O_21  and  C_22
REMARK   10  A    between atoms: C_22  and  C_23
REMARK   11  A    between atoms: N_29  and  C_30
REMARK                            x       y       z     vdW  Elec       q    Type
REMARK                         _______ _______ _______ _____ _____    ______ ____
ROOT
ATOM      1  C   UNL     1       3.305   5.965  17.549  0.00  0.00    +0.000 C 
ENDROOT
BRANCH   1   2
ATOM      2  C   UNL     1       2.979   6.715  18.859  0.00  0.00    +0.000 C 
BRANCH   2  11
ATOM      3  C   UNL     1      -0.145   9.344  22.740  0.00  0.00    +0.000 C 
ATOM      4  N   UNL     1       0.442   9.529  21.430  0.00  0.00    +0.000 N 
ATOM      5  C   UNL     1       1.154   8.460  20.871  0.00  0.00    +0.000 A 
ATOM      6  O   UNL     1       1.314   7.377  21.427  0.00  0.00    +0.000 OA
ATOM      7  C   UNL     1       1.623   8.737  19.555  0.00  0.00    +0.000 A 
ATOM      8  C   UNL     1       1.368   9.911  18.909  0.00  0.00    +0.000 A 
ATOM      9  N   UNL     1       1.815   9.894  17.623  0.00  0.00    +0.000 NA
ATOM     10  C   UNL     1       2.359   8.706  17.482  0.00  0.00    +0.000 A 
ATOM     11  N   UNL     1       2.355   8.006  18.663  0.00  0.00    +0.000 N 
ATOM     12  N   UNL     1       0.707  10.947  19.520  0.00  0.00    +0.000 N 
ATOM     13  C   UNL     1       0.496  12.214  18.852  0.00  0.00    +0.000 C 
ATOM     14  C   UNL     1       0.217  10.775  20.813  0.00  0.00    +0.000 A 
ATOM     15  O   UNL     1      -0.405  11.673  21.390  0.00  0.00    +0.000 OA
ENDBRANCH   2  11
ENDBRANCH   1   2
BRANCH   1  16
ATOM     16  C   UNL     1       4.807   5.590  17.481  0.00  0.00    +0.000 C 
BRANCH  16  17
ATOM     17  O   UNL     1       5.451   6.021  16.277  0.00  0.00    +0.000 OA
BRANCH  17  18
ATOM     18  C   UNL     1       6.703   5.375  16.043  0.00  0.00    +0.000 C 
BRANCH  18  19
ATOM     19  C   UNL     1       6.750   4.867  14.631  0.00  0.00    +0.000 A 
ATOM     20  C   UNL     1       5.816   3.910  14.208  0.00  0.00    +0.000 A 
ATOM     21  C   UNL     1       5.821   3.456  12.891  0.00  0.00    +0.000 A 
ATOM     22  C   UNL     1       6.765   3.947  11.993  0.00  0.00    +0.000 A 
ATOM     23  C   UNL     1       7.709   4.885  12.409  0.00  0.00    +0.000 A 
ATOM     24  C   UNL     1       7.705   5.343  13.727  0.00  0.00    +0.000 A 
ENDBRANCH  18  19
ENDBRANCH  17  18
ENDBRANCH  16  17
ENDBRANCH   1  16
BRANCH   1  25
ATOM     25  O   UNL     1       2.559   4.745  17.392  0.00  0.00    +0.000 OA
BRANCH  25  26
ATOM     26  C   UNL     1       3.190   3.556  17.847  0.00  0.00    +0.000 C 
BRANCH  26  27
ATOM     27  C   UNL     1       2.627   3.172  19.190  0.00  0.00    +0.000 A 
ATOM     28  C   UNL     1       3.466   2.650  20.186  0.00  0.00    +0.000 A 
ATOM     29  C   UNL     1       2.966   2.351  21.454  0.00  0.00    +0.000 A 
ATOM     30  C   UNL     1       1.620   2.565  21.738  0.00  0.00    +0.000 A 
ATOM     31  C   UNL     1       0.770   3.063  20.752  0.00  0.00    +0.000 A 
ATOM     32  C   UNL     1       1.270   3.364  19.482  0.00  0.00    +0.000 A 
ENDBRANCH  26  27
ENDBRANCH  25  26
ENDBRANCH   1  25
TORSDOF 9
ENDMDL
MODEL 4
REMARK VINA RESULT:      -7.4      1.893      3.547
REMARK  Name = 
REMARK  11 active torsions:
REMARK  status: ('A' for Active; 'I' for Inactive)
REMARK    1  A    between atoms: C_1  and  N_2
REMARK    2  A    between atoms: N_9  and  C_10
REMARK    3  A    between atoms: C_10  and  C_11
REMARK    4  A    between atoms: C_11  and  C_12
REMARK    5  A    between atoms: C_11  and  O_21
REMARK    6  A    between atoms: C_12  and  O_13
REMARK    7  A    between atoms: O_13  and  C_14
REMARK    8  A    between atoms: C_14  and  C_15
REMARK    9  A    between atoms: O_21  and  C_22
REMARK   10  A    between atoms: C_22  and  C_23
REMARK   11  A    between atoms: N_29  and  C_30
REMARK                            x       y       z     vdW  Elec       q    Type
REMARK                         _______ _______ _______ _____ _____    ______ ____
ROOT
ATOM      1  C   UNL     1       4.509   6.021  18.365  0.00  0.00    +0.000 C 
ENDROOT
BRANCH   1   2
ATOM      2  C   UNL     1       3.006   6.177  18.683  0.00  0.00    +0.000 C 
BRANCH   2  11
ATOM      3  C   UNL     1       0.064   8.963  22.597  0.00  0.00    +0.000 C 
ATOM      4  N   UNL     1       0.687   9.132  21.302  0.00  0.00    +0.000 N 
ATOM      5  C   UNL     1       1.311   8.020  20.721  0.00  0.00    +0.000 A 
ATOM      6  O   UNL     1       1.365   6.912  21.247  0.00  0.00    +0.000 OA
ATOM      7  C   UNL     1       1.823   8.291  19.420  0.00  0.00    +0.000 A 
ATOM      8  C   UNL     1       1.683   9.501  18.805  0.00  0.00    +0.000 A 
ATOM      9  N   UNL     1       2.148   9.481  17.525  0.00  0.00    +0.000 NA
ATOM     10  C   UNL     1       2.587   8.253  17.357  0.00  0.00    +0.000 A 
ATOM     11  N   UNL     1       2.502   7.523  18.517  0.00  0.00    +0.000 N 
ATOM     12  N   UNL     1       1.107  10.574  19.438  0.00  0.00    +0.000 N 
ATOM     13  C   UNL     1       1.020  11.873  18.804  0.00  0.00    +0.000 C 
ATOM     14  C   UNL     1       0.583  10.410  20.719  0.00  0.00    +0.000 A 
ATOM     15  O   UNL     1       0.033  11.343  21.313  0.00  0.00    +0.000 OA
ENDBRANCH   2  11
ENDBRANCH   1   2
BRANCH   1  16
ATOM     16  C   UNL     1       5.188   5.039  19.352  0.00  0.00    +0.000 C 
BRANCH  16  17
ATOM     17  O   UNL     1       5.269   3.696  18.860  0.00  0.00    +0.000 OA
BRANCH  17  18
ATOM     18  C   UNL     1       4.753   2.727  19.773  0.00  0.00    +0.000 C 
BRANCH  18  19
ATOM     19  C   UNL     1       3.252   2.781  19.767  0.00  0.00    +0.000 A 
ATOM     20  C   UNL     1       2.568   3.148  20.934  0.00  0.00    +0.000 A 
ATOM     21  C   UNL     1       1.178   3.241  20.935  0.00  0.00    +0.000 A 
ATOM     22  C   UNL     1       0.463   2.956  19.774  0.00  0.00    +0.000 A 
ATOM     23  C   UNL     1       1.135   2.572  18.613  0.00  0.00    +0.000 A 
ATOM     24  C   UNL     1       2.527   2.480  18.609  0.00  0.00    +0.000 A 
ENDBRANCH  18  19
ENDBRANCH  17  18
ENDBRANCH  16  17
ENDBRANCH   1  16
BRANCH   1  25
ATOM     25  O   UNL     1       4.760   5.526  17.038  0.00  0.00    +0.000 OA
BRANCH  25  26
ATOM     26  C   UNL     1       5.979   5.935  16.431  0.00  0.00    +0.000 C 
BRANCH  26  27
ATOM     27  C   UNL     1       6.177   5.176  15.146  0.00  0.00    +0.000 A 
ATOM     28  C   UNL     1       5.200   4.273  14.700  0.00  0.00    +0.000 A 
ATOM     29  C   UNL     1       5.346   3.612  13.480  0.00  0.00    +0.000 A 
ATOM     30  C   UNL     1       6.472   3.842  12.695  0.00  0.00    +0.000 A 
ATOM     31  C   UNL     1       7.461   4.720  13.136  0.00  0.00    +0.000 A 
ATOM     32  C   UNL     1       7.316   5.383  14.357  0.00  0.00    +0.000 A 
ENDBRANCH  26  27
ENDBRANCH  25  26
ENDBRANCH   1  25
TORSDOF 9
ENDMDL
MODEL 5
REMARK VINA RESULT:      -7.4      1.535      2.095
REMARK  Name = 
REMARK  11 active torsions:
REMARK  status: ('A' for Active; 'I' for Inactive)
REMARK    1  A    between atoms: C_1  and  N_2
REMARK    2  A    between atoms: N_9  and  C_10
REMARK    3  A    between atoms: C_10  and  C_11
REMARK    4  A    between atoms: C_11  and  C_12
REMARK    5  A    between atoms: C_11  and  O_21
REMARK    6  A    between atoms: C_12  and  O_13
REMARK    7  A    between atoms: O_13  and  C_14
REMARK    8  A    between atoms: C_14  and  C_15
REMARK    9  A    between atoms: O_21  and  C_22
REMARK   10  A    between atoms: C_22  and  C_23
REMARK   11  A    between atoms: N_29  and  C_30
REMARK                            x       y       z     vdW  Elec       q    Type
REMARK                         _______ _______ _______ _____ _____    ______ ____
ROOT
ATOM      1  C   UNL     1       2.362   7.012  19.897  0.00  0.00    +0.000 C 
ENDROOT
BRANCH   1   2
ATOM      2  C   UNL     1       1.472   7.695  18.836  0.00  0.00    +0.000 C 
BRANCH   2  11
ATOM      3  C   UNL     1      -0.997  10.693  22.917  0.00  0.00    +0.000 C 
ATOM      4  N   UNL     1      -0.145  10.830  21.755  0.00  0.00    +0.000 N 
ATOM      5  C   UNL     1       0.164   9.675  21.025  0.00  0.00    +0.000 A 
ATOM      6  O   UNL     1      -0.240   8.553  21.314  0.00  0.00    +0.000 OA
ATOM      7  C   UNL     1       0.949   9.948  19.868  0.00  0.00    +0.000 A 
ATOM      8  C   UNL     1       1.322  11.209  19.505  0.00  0.00    +0.000 A 
ATOM      9  N   UNL     1       1.962  11.226  18.303  0.00  0.00    +0.000 NA
ATOM     10  C   UNL     1       1.992   9.965  17.931  0.00  0.00    +0.000 A 
ATOM     11  N   UNL     1       1.476   9.140  18.900  0.00  0.00    +0.000 N 
ATOM     12  N   UNL     1       1.035  12.302  20.282  0.00  0.00    +0.000 N 
ATOM     13  C   UNL     1       1.490  13.630  19.925  0.00  0.00    +0.000 C 
ATOM     14  C   UNL     1       0.279  12.136  21.441  0.00  0.00    +0.000 A 
ATOM     15  O   UNL     1      -0.023  13.098  22.155  0.00  0.00    +0.000 OA
ENDBRANCH   2  11
ENDBRANCH   1   2
BRANCH   1  16
ATOM     16  C   UNL     1       1.527   6.074  20.805  0.00  0.00    +0.000 C 
BRANCH  16  17
ATOM     17  O   UNL     1       2.285   4.997  21.368  0.00  0.00    +0.000 OA
BRANCH  17  18
ATOM     18  C   UNL     1       1.686   3.718  21.165  0.00  0.00    +0.000 C 
BRANCH  18  19
ATOM     19  C   UNL     1       2.373   3.015  20.029  0.00  0.00    +0.000 A 
ATOM     20  C   UNL     1       1.679   2.795  18.831  0.00  0.00    +0.000 A 
ATOM     21  C   UNL     1       2.313   2.180  17.753  0.00  0.00    +0.000 A 
ATOM     22  C   UNL     1       3.640   1.772  17.871  0.00  0.00    +0.000 A 
ATOM     23  C   UNL     1       4.332   1.972  19.066  0.00  0.00    +0.000 A 
ATOM     24  C   UNL     1       3.700   2.589  20.145  0.00  0.00    +0.000 A 
ENDBRANCH  18  19
ENDBRANCH  17  18
ENDBRANCH  16  17
ENDBRANCH   1  16
BRANCH   1  25
ATOM     25  O   UNL     1       3.417   6.217  19.327  0.00  0.00    +0.000 OA
BRANCH  25  26
ATOM     26  C   UNL     1       3.413   6.083  17.912  0.00  0.00    +0.000 C 
BRANCH  26  27
ATOM     27  C   UNL     1       4.741   5.537  17.458  0.00  0.00    +0.000 A 
ATOM     28  C   UNL     1       5.913   5.850  18.163  0.00  0.00    +0.000 A 
ATOM     29  C   UNL     1       7.139   5.299  17.788  0.00  0.00    +0.000 A 
ATOM     30  C   UNL     1       7.207   4.433  16.700  0.00  0.00    +0.000 A 
ATOM     31  C   UNL     1       6.054   4.130  15.977  0.00  0.00    +0.000 A 
ATOM     32  C   UNL     1       4.826   4.680  16.353  0.00  0.00    +0.000 A 
ENDBRANCH  26  27
ENDBRANCH  25  26
ENDBRANCH   1  25
TORSDOF 9
ENDMDL
MODEL 6
REMARK VINA RESULT:      -7.3      1.779      2.513
REMARK  Name = 
REMARK  11 active torsions:
REMARK  status: ('A' for Active; 'I' for Inactive)
REMARK    1  A    between atoms: C_1  and  N_2
REMARK    2  A    between atoms: N_9  and  C_10
REMARK    3  A    between atoms: C_10  and  C_11
REMARK    4  A    between atoms: C_11  and  C_12
REMARK    5  A    between atoms: C_11  and  O_21
REMARK    6  A    between atoms: C_12  and  O_13
REMARK    7  A    between atoms: O_13  and  C_14
REMARK    8  A    between atoms: C_14  and  C_15
REMARK    9  A    between atoms: O_21  and  C_22
REMARK   10  A    between atoms: C_22  and  C_23
REMARK   11  A    between atoms: N_29  and  C_30
REMARK                            x       y       z     vdW  Elec       q    Type
REMARK                         _______ _______ _______ _____ _____    ______ ____
ROOT
ATOM      1  C   UNL     1       2.863   7.112  18.855  0.00  0.00    +0.000 C 
ENDROOT
BRANCH   1   2
ATOM      2  C   UNL     1       1.462   7.747  18.712  0.00  0.00    +0.000 C 
BRANCH   2  11
ATOM      3  C   UNL     1      -0.947  10.517  22.984  0.00  0.00    +0.000 C 
ATOM      4  N   UNL     1      -0.126  10.720  21.810  0.00  0.00    +0.000 N 
ATOM      5  C   UNL     1       0.181   9.605  21.020  0.00  0.00    +0.000 A 
ATOM      6  O   UNL     1      -0.200   8.464  21.267  0.00  0.00    +0.000 OA
ATOM      7  C   UNL     1       0.933   9.941  19.859  0.00  0.00    +0.000 A 
ATOM      8  C   UNL     1       1.280  11.223  19.545  0.00  0.00    +0.000 A 
ATOM      9  N   UNL     1       1.890  11.305  18.330  0.00  0.00    +0.000 NA
ATOM     10  C   UNL     1       1.929  10.063  17.900  0.00  0.00    +0.000 A 
ATOM     11  N   UNL     1       1.449   9.187  18.842  0.00  0.00    +0.000 N 
ATOM     12  N   UNL     1       0.997  12.275  20.379  0.00  0.00    +0.000 N 
ATOM     13  C   UNL     1       1.425  13.625  20.073  0.00  0.00    +0.000 C 
ATOM     14  C   UNL     1       0.272  12.045  21.546  0.00  0.00    +0.000 A 
ATOM     15  O   UNL     1      -0.025  12.969  22.311  0.00  0.00    +0.000 OA
ENDBRANCH   2  11
ENDBRANCH   1   2
BRANCH   1  16
ATOM     16  C   UNL     1       2.866   6.009  19.944  0.00  0.00    +0.000 C 
BRANCH  16  17
ATOM     17  O   UNL     1       1.554   5.614  20.363  0.00  0.00    +0.000 OA
BRANCH  17  18
ATOM     18  C   UNL     1       1.503   4.284  20.879  0.00  0.00    +0.000 C 
BRANCH  18  19
ATOM     19  C   UNL     1       2.194   3.349  19.928  0.00  0.00    +0.000 A 
ATOM     20  C   UNL     1       1.620   3.086  18.676  0.00  0.00    +0.000 A 
ATOM     21  C   UNL     1       2.266   2.252  17.767  0.00  0.00    +0.000 A 
ATOM     22  C   UNL     1       3.484   1.667  18.108  0.00  0.00    +0.000 A 
ATOM     23  C   UNL     1       4.054   1.909  19.358  0.00  0.00    +0.000 A 
ATOM     24  C   UNL     1       3.409   2.746  20.270  0.00  0.00    +0.000 A 
ENDBRANCH  18  19
ENDBRANCH  17  18
ENDBRANCH  16  17
ENDBRANCH   1  16
BRANCH   1  25
ATOM     25  O   UNL     1       3.339   6.506  17.641  0.00  0.00    +0.000 OA
BRANCH  25  26
ATOM     26  C   UNL     1       4.224   5.404  17.790  0.00  0.00    +0.000 C 
BRANCH  26  27
ATOM     27  C   UNL     1       5.623   5.913  18.015  0.00  0.00    +0.000 A 
ATOM     28  C   UNL     1       6.128   6.963  17.233  0.00  0.00    +0.000 A 
ATOM     29  C   UNL     1       7.400   7.483  17.476  0.00  0.00    +0.000 A 
ATOM     30  C   UNL     1       8.183   6.955  18.499  0.00  0.00    +0.000 A 
ATOM     31  C   UNL     1       7.702   5.898  19.270  0.00  0.00    +0.000 A 
ATOM     32  C   UNL     1       6.429   5.377  19.029  0.00  0.00    +0.000 A 
ENDBRANCH  26  27
ENDBRANCH  25  26
ENDBRANCH   1  25
TORSDOF 9
ENDMDL
MODEL 7
REMARK VINA RESULT:      -7.3      1.945      3.317
REMARK  Name = 
REMARK  11 active torsions:
REMARK  status: ('A' for Active; 'I' for Inactive)
REMARK    1  A    between atoms: C_1  and  N_2
REMARK    2  A    between atoms: N_9  and  C_10
REMARK    3  A    between atoms: C_10  and  C_11
REMARK    4  A    between atoms: C_11  and  C_12
REMARK    5  A    between atoms: C_11  and  O_21
REMARK    6  A    between atoms: C_12  and  O_13
REMARK    7  A    between atoms: O_13  and  C_14
REMARK    8  A    between atoms: C_14  and  C_15
REMARK    9  A    between atoms: O_21  and  C_22
REMARK   10  A    between atoms: C_22  and  C_23
REMARK   11  A    between atoms: N_29  and  C_30
REMARK                            x       y       z     vdW  Elec       q    Type
REMARK                         _______ _______ _______ _____ _____    ______ ____
ROOT
ATOM      1  C   UNL     1       4.566   6.564  17.453  0.00  0.00    +0.000 C 
ENDROOT
BRANCH   1   2
ATOM      2  C   UNL     1       3.140   7.147  17.345  0.00  0.00    +0.000 C 
BRANCH   2  11
ATOM      3  C   UNL     1       1.026  12.189  18.700  0.00  0.00    +0.000 C 
ATOM      4  N   UNL     1       1.138  10.831  19.185  0.00  0.00    +0.000 N 
ATOM      5  C   UNL     1       1.849   9.909  18.404  0.00  0.00    +0.000 A 
ATOM      6  O   UNL     1       2.377  10.184  17.331  0.00  0.00    +0.000 OA
ATOM      7  C   UNL     1       1.950   8.628  19.018  0.00  0.00    +0.000 A 
ATOM      8  C   UNL     1       1.435   8.354  20.251  0.00  0.00    +0.000 A 
ATOM      9  N   UNL     1       1.761   7.101  20.674  0.00  0.00    +0.000 NA
ATOM     10  C   UNL     1       2.472   6.599  19.689  0.00  0.00    +0.000 A 
ATOM     11  N   UNL     1       2.528   7.457  18.618  0.00  0.00    +0.000 N 
ATOM     12  N   UNL     1       0.704   9.278  20.954  0.00  0.00    +0.000 N 
ATOM     13  C   UNL     1       0.104   8.960  22.233  0.00  0.00    +0.000 C 
ATOM     14  C   UNL     1       0.540  10.559  20.431  0.00  0.00    +0.000 A 
ATOM     15  O   UNL     1      -0.089  11.428  21.044  0.00  0.00    +0.000 OA
ENDBRANCH   2  11
ENDBRANCH   1   2
BRANCH   1  16
ATOM     16  C   UNL     1       4.536   5.115  18.000  0.00  0.00    +0.000 C 
BRANCH  16  17
ATOM     17  O   UNL     1       3.659   4.246  17.274  0.00  0.00    +0.000 OA
BRANCH  17  18
ATOM     18  C   UNL     1       3.617   2.919  17.797  0.00  0.00    +0.000 C 
BRANCH  18  19
ATOM     19  C   UNL     1       2.772   2.894  19.039  0.00  0.00    +0.000 A 
ATOM     20  C   UNL     1       3.374   2.644  20.280  0.00  0.00    +0.000 A 
ATOM     21  C   UNL     1       2.613   2.656  21.447  0.00  0.00    +0.000 A 
ATOM     22  C   UNL     1       1.244   2.907  21.378  0.00  0.00    +0.000 A 
ATOM     23  C   UNL     1       0.634   3.140  20.145  0.00  0.00    +0.000 A 
ATOM     24  C   UNL     1       1.395   3.130  18.976  0.00  0.00    +0.000 A 
ENDBRANCH  18  19
ENDBRANCH  17  18
ENDBRANCH  16  17
ENDBRANCH   1  16
BRANCH   1  25
ATOM     25  O   UNL     1       5.261   6.525  16.194  0.00  0.00    +0.000 OA
BRANCH  25  26
ATOM     26  C   UNL     1       6.401   5.679  16.129  0.00  0.00    +0.000 C 
BRANCH  26  27
ATOM     27  C   UNL     1       6.500   5.078  14.752  0.00  0.00    +0.000 A 
ATOM     28  C   UNL     1       7.547   5.445  13.893  0.00  0.00    +0.000 A 
ATOM     29  C   UNL     1       7.683   4.847  12.639  0.00  0.00    +0.000 A 
ATOM     30  C   UNL     1       6.769   3.880  12.228  0.00  0.00    +0.000 A 
ATOM     31  C   UNL     1       5.712   3.521  13.063  0.00  0.00    +0.000 A 
ATOM     32  C   UNL     1       5.576   4.118  14.318  0.00  0.00    +0.000 A 
ENDBRANCH  26  27
ENDBRANCH  25  26
ENDBRANCH   1  25
TORSDOF 9
ENDMDL
MODEL 8
REMARK VINA RESULT:      -7.3      1.304      3.805
REMARK  Name = 
REMARK  11 active torsions:
REMARK  status: ('A' for Active; 'I' for Inactive)
REMARK    1  A    between atoms: C_1  and  N_2
REMARK    2  A    between atoms: N_9  and  C_10
REMARK    3  A    between atoms: C_10  and  C_11
REMARK    4  A    between atoms: C_11  and  C_12
REMARK    5  A    between atoms: C_11  and  O_21
REMARK    6  A    between atoms: C_12  and  O_13
REMARK    7  A    between atoms: O_13  and  C_14
REMARK    8  A    between atoms: C_14  and  C_15
REMARK    9  A    between atoms: O_21  and  C_22
REMARK   10  A    between atoms: C_22  and  C_23
REMARK   11  A    between atoms: N_29  and  C_30
REMARK                            x       y       z     vdW  Elec       q    Type
REMARK                         _______ _______ _______ _____ _____    ______ ____
ROOT
ATOM      1  C   UNL     1       1.653   6.879  20.202  0.00  0.00    +0.000 C 
ENDROOT
BRANCH   1   2
ATOM      2  C   UNL     1       1.312   8.110  21.069  0.00  0.00    +0.000 C 
BRANCH   2  11
ATOM      3  C   UNL     1      -1.895  12.225  23.193  0.00  0.00    +0.000 C 
ATOM      4  N   UNL     1      -1.155  11.852  22.007  0.00  0.00    +0.000 N 
ATOM      5  C   UNL     1      -0.511  10.608  21.998  0.00  0.00    +0.000 A 
ATOM      6  O   UNL     1      -0.533   9.818  22.937  0.00  0.00    +0.000 OA
ATOM      7  C   UNL     1       0.123  10.324  20.755  0.00  0.00    +0.000 A 
ATOM      8  C   UNL     1       0.070  11.169  19.685  0.00  0.00    +0.000 A 
ATOM      9  N   UNL     1       0.647  10.627  18.577  0.00  0.00    +0.000 NA
ATOM     10  C   UNL     1       1.067   9.446  18.972  0.00  0.00    +0.000 A 
ATOM     11  N   UNL     1       0.860   9.260  20.316  0.00  0.00    +0.000 N 
ATOM     12  N   UNL     1      -0.533  12.399  19.762  0.00  0.00    +0.000 N 
ATOM     13  C   UNL     1      -0.529  13.319  18.643  0.00  0.00    +0.000 C 
ATOM     14  C   UNL     1      -1.173  12.773  20.942  0.00  0.00    +0.000 A 
ATOM     15  O   UNL     1      -1.749  13.861  21.044  0.00  0.00    +0.000 OA
ENDBRANCH   2  11
ENDBRANCH   1   2
BRANCH   1  16
ATOM     16  C   UNL     1       3.025   7.052  19.504  0.00  0.00    +0.000 C 
BRANCH  16  17
ATOM     17  O   UNL     1       3.023   6.656  18.128  0.00  0.00    +0.000 OA
BRANCH  17  18
ATOM     18  C   UNL     1       4.076   7.249  17.368  0.00  0.00    +0.000 C 
BRANCH  18  19
ATOM     19  C   UNL     1       5.127   6.216  17.075  0.00  0.00    +0.000 A 
ATOM     20  C   UNL     1       5.158   5.598  15.817  0.00  0.00    +0.000 A 
ATOM     21  C   UNL     1       6.150   4.667  15.514  0.00  0.00    +0.000 A 
ATOM     22  C   UNL     1       7.108   4.341  16.471  0.00  0.00    +0.000 A 
ATOM     23  C   UNL     1       7.074   4.937  17.731  0.00  0.00    +0.000 A 
ATOM     24  C   UNL     1       6.083   5.872  18.036  0.00  0.00    +0.000 A 
ENDBRANCH  18  19
ENDBRANCH  17  18
ENDBRANCH  16  17
ENDBRANCH   1  16
BRANCH   1  25
ATOM     25  O   UNL     1       1.712   5.653  20.952  0.00  0.00    +0.000 OA
BRANCH  25  26
ATOM     26  C   UNL     1       1.069   4.526  20.373  0.00  0.00    +0.000 C 
BRANCH  26  27
ATOM     27  C   UNL     1       2.029   3.822  19.451  0.00  0.00    +0.000 A 
ATOM     28  C   UNL     1       1.694   3.616  18.104  0.00  0.00    +0.000 A 
ATOM     29  C   UNL     1       2.602   3.021  17.227  0.00  0.00    +0.000 A 
ATOM     30  C   UNL     1       3.852   2.618  17.690  0.00  0.00    +0.000 A 
ATOM     31  C   UNL     1       4.190   2.797  19.030  0.00  0.00    +0.000 A 
ATOM     32  C   UNL     1       3.283   3.394  19.908  0.00  0.00    +0.000 A 
ENDBRANCH  26  27
ENDBRANCH  25  26
ENDBRANCH   1  25
TORSDOF 9
ENDMDL
MODEL 9
REMARK VINA RESULT:      -7.3      2.027      5.169
REMARK  Name = 
REMARK  11 active torsions:
REMARK  status: ('A' for Active; 'I' for Inactive)
REMARK    1  A    between atoms: C_1  and  N_2
REMARK    2  A    between atoms: N_9  and  C_10
REMARK    3  A    between atoms: C_10  and  C_11
REMARK    4  A    between atoms: C_11  and  C_12
REMARK    5  A    between atoms: C_11  and  O_21
REMARK    6  A    between atoms: C_12  and  O_13
REMARK    7  A    between atoms: O_13  and  C_14
REMARK    8  A    between atoms: C_14  and  C_15
REMARK    9  A    between atoms: O_21  and  C_22
REMARK   10  A    between atoms: C_22  and  C_23
REMARK   11  A    between atoms: N_29  and  C_30
REMARK                            x       y       z     vdW  Elec       q    Type
REMARK                         _______ _______ _______ _____ _____    ______ ____
ROOT
ATOM      1  C   UNL     1       3.908   5.881  17.636  0.00  0.00    +0.000 C 
ENDROOT
BRANCH   1   2
ATOM      2  C   UNL     1       3.225   6.480  18.884  0.00  0.00    +0.000 C 
BRANCH   2  11
ATOM      3  C   UNL     1      -0.265   8.962  22.544  0.00  0.00    +0.000 C 
ATOM      4  N   UNL     1       0.405   9.178  21.280  0.00  0.00    +0.000 N 
ATOM      5  C   UNL     1       1.196   8.140  20.769  0.00  0.00    +0.000 A 
ATOM      6  O   UNL     1       1.360   7.062  21.332  0.00  0.00    +0.000 OA
ATOM      7  C   UNL     1       1.744   8.443  19.490  0.00  0.00    +0.000 A 
ATOM      8  C   UNL     1       1.488   9.610  18.830  0.00  0.00    +0.000 A 
ATOM      9  N   UNL     1       2.024   9.618  17.578  0.00  0.00    +0.000 NA
ATOM     10  C   UNL     1       2.624   8.453  17.473  0.00  0.00    +0.000 A 
ATOM     11  N   UNL     1       2.565   7.746  18.649  0.00  0.00    +0.000 N 
ATOM     12  N   UNL     1       0.746  10.615  19.397  0.00  0.00    +0.000 N 
ATOM     13  C   UNL     1       0.531  11.877  18.719  0.00  0.00    +0.000 C 
ATOM     14  C   UNL     1       0.174  10.417  20.652  0.00  0.00    +0.000 A 
ATOM     15  O   UNL     1      -0.522  11.287  21.186  0.00  0.00    +0.000 OA
ENDBRANCH   2  11
ENDBRANCH   1   2
BRANCH   1  16
ATOM     16  C   UNL     1       5.414   5.626  17.894  0.00  0.00    +0.000 C 
BRANCH  16  17
ATOM     17  O   UNL     1       6.029   4.781  16.914  0.00  0.00    +0.000 OA
BRANCH  17  18
ATOM     18  C   UNL     1       6.908   5.483  16.034  0.00  0.00    +0.000 C 
BRANCH  18  19
ATOM     19  C   UNL     1       6.787   4.919  14.648  0.00  0.00    +0.000 A 
ATOM     20  C   UNL     1       7.668   5.350  13.646  0.00  0.00    +0.000 A 
ATOM     21  C   UNL     1       7.596   4.809  12.364  0.00  0.00    +0.000 A 
ATOM     22  C   UNL     1       6.636   3.843  12.074  0.00  0.00    +0.000 A 
ATOM     23  C   UNL     1       5.744   3.421  13.059  0.00  0.00    +0.000 A 
ATOM     24  C   UNL     1       5.815   3.960  14.344  0.00  0.00    +0.000 A 
ENDBRANCH  18  19
ENDBRANCH  17  18
ENDBRANCH  16  17
ENDBRANCH   1  16
BRANCH   1  25
ATOM     25  O   UNL     1       3.334   4.629  17.219  0.00  0.00    +0.000 OA
BRANCH  25  26
ATOM     26  C   UNL     1       3.758   3.473  17.928  0.00  0.00    +0.000 C 
BRANCH  26  27
ATOM     27  C   UNL     1       2.877   3.275  19.134  0.00  0.00    +0.000 A 
ATOM     28  C   UNL     1       1.483   3.384  19.017  0.00  0.00    +0.000 A 
ATOM     29  C   UNL     1       0.655   3.141  20.114  0.00  0.00    +0.000 A 
ATOM     30  C   UNL     1       1.212   2.792  21.341  0.00  0.00    +0.000 A 
ATOM     31  C   UNL     1       2.597   2.701  21.477  0.00  0.00    +0.000 A 
ATOM     32  C   UNL     1       3.427   2.943  20.379  0.00  0.00    +0.000 A 
ENDBRANCH  26  27
ENDBRANCH  25  26
ENDBRANCH   1  25
TORSDOF 9
ENDMDL
