MODEL 1
REMARK VINA RESULT:      -8.4      0.000      0.000
REMARK  Name = 
REMARK  8 active torsions:
REMARK  status: ('A' for Active; 'I' for Inactive)
REMARK    1  A    between atoms: C_1  and  C_2
REMARK    2  A    between atoms: C_2  and  C_3
REMARK    3  A    between atoms: C_2  and  C_4
REMARK    4  A    between atoms: C_4  and  C_5
REMARK    5  A    between atoms: C_10  and  C_12
REMARK    6  A    between atoms: C_12  and  C_13
REMARK    7  A    between atoms: C_13  and  C_14
REMARK    8  A    between atoms: N_19  and  C_20
REMARK                            x       y       z     vdW  Elec       q    Type
REMARK                         _______ _______ _______ _____ _____    ______ ____
ROOT
ATOM      1  C   UNL     1       2.648   5.907  19.331  0.00  0.00    +0.000 C 
ENDROOT
BRANCH   1   2
ATOM      2  C   UNL     1       2.563   7.256  18.663  0.00  0.00    +0.000 C 
ATOM      3  O   UNL     1       2.994   7.433  17.524  0.00  0.00    +0.000 OA
ATOM      4  N   UNL     1       1.937   8.254  19.394  0.00  0.00    +0.000 N 
ATOM      5  C   UNL     1       1.699   9.562  18.776  0.00  0.00    +0.000 C 
ATOM      6  C   UNL     1       0.243  10.020  18.990  0.00  0.00    +0.000 C 
ATOM      7  N   UNL     1      -0.060   9.998  20.433  0.00  0.00    +0.000 N 
ATOM      8  C   UNL     1       0.130   8.681  21.070  0.00  0.00    +0.000 C 
ATOM      9  C   UNL     1       1.568   8.182  20.820  0.00  0.00    +0.000 C 
BRANCH   7  10
ATOM     10  C   UNL     1      -0.821  10.978  21.040  0.00  0.00    +0.000 A 
ATOM     11  C   UNL     1      -1.557  11.925  20.311  0.00  0.00    +0.000 A 
ATOM     12  C   UNL     1      -2.268  12.954  20.942  0.00  0.00    +0.000 A 
ATOM     13  C   UNL     1      -2.254  13.053  22.328  0.00  0.00    +0.000 A 
ATOM     14 CL   UNL     1      -3.115  14.320  23.108  0.00  0.00    +0.000 Cl
ATOM     15  C   UNL     1      -1.538  12.134  23.082  0.00  0.00    +0.000 A 
ATOM     16  C   UNL     1      -0.832  11.111  22.440  0.00  0.00    +0.000 A 
ENDBRANCH   7  10
ENDBRANCH   1   2
BRANCH   1  17
ATOM     17  C   UNL     1       4.054   5.311  19.341  0.00  0.00    +0.000 C 
BRANCH  17  23
ATOM     18  C   UNL     1       6.679   4.696  13.986  0.00  0.00    +0.000 A 
ATOM     19  N   UNL     1       7.663   5.326  14.596  0.00  0.00    +0.000 NA
ATOM     20  N   UNL     1       7.328   5.678  15.894  0.00  0.00    +0.000 NA
ATOM     21  C   UNL     1       6.122   5.271  16.222  0.00  0.00    +0.000 A 
ATOM     22  N   UNL     1       5.573   5.479  17.466  0.00  0.00    +0.000 N 
ATOM     23  C   UNL     1       4.420   4.889  17.931  0.00  0.00    +0.000 C 
ATOM     24  O   UNL     1       3.722   4.083  17.319  0.00  0.00    +0.000 OA
ATOM     25  S   UNL     1       5.275   4.512  14.952  0.00  0.00    +0.000 S 
ATOM     26  H   UNL     1       6.154   6.019  18.095  0.00  0.00    +0.000 HD
BRANCH  18  27
ATOM     27  C   UNL     1       6.711   4.172  12.585  0.00  0.00    +0.000 C 
BRANCH  27  29
ATOM     28  C   UNL     1       4.413   3.480  11.716  0.00  0.00    +0.000 C 
ATOM     29  C   UNL     1       5.725   3.013  12.353  0.00  0.00    +0.000 C 
ATOM     30  C   UNL     1       6.376   1.951  11.461  0.00  0.00    +0.000 C 
ENDBRANCH  27  29
ENDBRANCH  18  27
ENDBRANCH  17  23
ENDBRANCH   1  17
TORSDOF 6
ENDMDL
MODEL 2
REMARK VINA RESULT:      -7.6      3.398      5.070
REMARK  Name = 
REMARK  8 active torsions:
REMARK  status: ('A' for Active; 'I' for Inactive)
REMARK    1  A    between atoms: C_1  and  C_2
REMARK    2  A    between atoms: C_2  and  C_3
REMARK    3  A    between atoms: C_2  and  C_4
REMARK    4  A    between atoms: C_4  and  C_5
REMARK    5  A    between atoms: C_10  and  C_12
REMARK    6  A    between atoms: C_12  and  C_13
REMARK    7  A    between atoms: C_13  and  C_14
REMARK    8  A    between atoms: N_19  and  C_20
REMARK                            x       y       z     vdW  Elec       q    Type
REMARK                         _______ _______ _______ _____ _____    ______ ____
ROOT
ATOM      1  C   UNL     1       2.166   1.792  18.741  0.00  0.00    +0.000 C 
ENDROOT
BRANCH   1   2
ATOM      2  C   UNL     1       1.761   2.631  19.926  0.00  0.00    +0.000 C 
ATOM      3  O   UNL     1       1.692   2.150  21.056  0.00  0.00    +0.000 OA
ATOM      4  N   UNL     1       1.519   3.971  19.663  0.00  0.00    +0.000 N 
ATOM      5  C   UNL     1       1.240   4.887  20.774  0.00  0.00    +0.000 C 
ATOM      6  C   UNL     1       2.102   6.162  20.670  0.00  0.00    +0.000 C 
ATOM      7  N   UNL     1       1.892   6.776  19.346  0.00  0.00    +0.000 N 
ATOM      8  C   UNL     1       2.207   5.888  18.211  0.00  0.00    +0.000 C 
ATOM      9  C   UNL     1       1.393   4.583  18.327  0.00  0.00    +0.000 C 
BRANCH   7  10
ATOM     10  C   UNL     1       1.806   8.144  19.176  0.00  0.00    +0.000 A 
ATOM     11  C   UNL     1       1.180   8.985  20.109  0.00  0.00    +0.000 A 
ATOM     12  C   UNL     1       1.042  10.361  19.887  0.00  0.00    +0.000 A 
ATOM     13  C   UNL     1       1.532  10.925  18.715  0.00  0.00    +0.000 A 
ATOM     14 CL   UNL     1       1.356  12.611  18.432  0.00  0.00    +0.000 Cl
ATOM     15  C   UNL     1       2.158  10.124  17.771  0.00  0.00    +0.000 A 
ATOM     16  C   UNL     1       2.291   8.751  18.004  0.00  0.00    +0.000 A 
ENDBRANCH   7  10
ENDBRANCH   1   2
BRANCH   1  17
ATOM     17  C   UNL     1       3.632   1.365  18.760  0.00  0.00    +0.000 C 
BRANCH  17  23
ATOM     18  C   UNL     1       6.618   6.036  16.479  0.00  0.00    +0.000 A 
ATOM     19  N   UNL     1       5.806   5.830  15.461  0.00  0.00    +0.000 NA
ATOM     20  N   UNL     1       4.991   4.728  15.664  0.00  0.00    +0.000 NA
ATOM     21  C   UNL     1       5.196   4.169  16.836  0.00  0.00    +0.000 A 
ATOM     22  N   UNL     1       4.490   3.074  17.278  0.00  0.00    +0.000 N 
ATOM     23  C   UNL     1       4.505   2.590  18.566  0.00  0.00    +0.000 C 
ATOM     24  O   UNL     1       5.132   3.066  19.511  0.00  0.00    +0.000 OA
ATOM     25  S   UNL     1       6.452   4.885  17.738  0.00  0.00    +0.000 S 
ATOM     26  H   UNL     1       3.835   2.699  16.604  0.00  0.00    +0.000 HD
BRANCH  18  27
ATOM     27  C   UNL     1       7.619   7.143  16.589  0.00  0.00    +0.000 C 
BRANCH  27  29
ATOM     28  C   UNL     1       8.429   7.094  19.008  0.00  0.00    +0.000 C 
ATOM     29  C   UNL     1       7.599   7.840  17.960  0.00  0.00    +0.000 C 
ATOM     30  C   UNL     1       8.123   9.273  17.821  0.00  0.00    +0.000 C 
ENDBRANCH  27  29
ENDBRANCH  18  27
ENDBRANCH  17  23
ENDBRANCH   1  17
TORSDOF 6
ENDMDL
MODEL 3
REMARK VINA RESULT:      -7.5      2.028      2.836
REMARK  Name = 
REMARK  8 active torsions:
REMARK  status: ('A' for Active; 'I' for Inactive)
REMARK    1  A    between atoms: C_1  and  C_2
REMARK    2  A    between atoms: C_2  and  C_3
REMARK    3  A    between atoms: C_2  and  C_4
REMARK    4  A    between atoms: C_4  and  C_5
REMARK    5  A    between atoms: C_10  and  C_12
REMARK    6  A    between atoms: C_12  and  C_13
REMARK    7  A    between atoms: C_13  and  C_14
REMARK    8  A    between atoms: N_19  and  C_20
REMARK                            x       y       z     vdW  Elec       q    Type
REMARK                         _______ _______ _______ _____ _____    ______ ____
ROOT
ATOM      1  C   UNL     1       1.739   7.047  21.087  0.00  0.00    +0.000 C 
ENDROOT
BRANCH   1   2
ATOM      2  C   UNL     1       1.549   8.319  20.301  0.00  0.00    +0.000 C 
ATOM      3  O   UNL     1       1.817   8.375  19.101  0.00  0.00    +0.000 OA
ATOM      4  N   UNL     1       1.017   9.390  21.004  0.00  0.00    +0.000 N 
ATOM      5  C   UNL     1       0.683  10.628  20.292  0.00  0.00    +0.000 C 
ATOM      6  C   UNL     1      -0.735  11.111  20.656  0.00  0.00    +0.000 C 
ATOM      7  N   UNL     1      -0.836  11.240  22.122  0.00  0.00    +0.000 N 
ATOM      8  C   UNL     1      -0.547   9.995  22.859  0.00  0.00    +0.000 C 
ATOM      9  C   UNL     1       0.849   9.468  22.466  0.00  0.00    +0.000 C 
BRANCH   7  10
ATOM     10  C   UNL     1      -1.517  12.281  22.723  0.00  0.00    +0.000 A 
ATOM     11  C   UNL     1      -0.988  13.577  22.817  0.00  0.00    +0.000 A 
ATOM     12  C   UNL     1      -1.662  14.604  23.490  0.00  0.00    +0.000 A 
ATOM     13  C   UNL     1      -2.891  14.347  24.087  0.00  0.00    +0.000 A 
ATOM     14 CL   UNL     1      -3.719  15.599  24.924  0.00  0.00    +0.000 Cl
ATOM     15  C   UNL     1      -3.446  13.078  24.013  0.00  0.00    +0.000 A 
ATOM     16  C   UNL     1      -2.762  12.060  23.337  0.00  0.00    +0.000 A 
ENDBRANCH   7  10
ENDBRANCH   1   2
BRANCH   1  17
ATOM     17  C   UNL     1       1.398   5.781  20.303  0.00  0.00    +0.000 C 
BRANCH  17  23
ATOM     18  C   UNL     1       6.624   5.004  17.471  0.00  0.00    +0.000 A 
ATOM     19  N   UNL     1       7.068   4.867  18.704  0.00  0.00    +0.000 NA
ATOM     20  N   UNL     1       6.065   5.061  19.641  0.00  0.00    +0.000 NA
ATOM     21  C   UNL     1       4.901   5.302  19.077  0.00  0.00    +0.000 A 
ATOM     22  N   UNL     1       3.747   5.503  19.798  0.00  0.00    +0.000 N 
ATOM     23  C   UNL     1       2.478   5.536  19.267  0.00  0.00    +0.000 C 
ATOM     24  O   UNL     1       2.184   5.377  18.084  0.00  0.00    +0.000 OA
ATOM     25  S   UNL     1       4.959   5.398  17.377  0.00  0.00    +0.000 S 
ATOM     26  H   UNL     1       3.876   5.504  20.802  0.00  0.00    +0.000 HD
BRANCH  18  27
ATOM     27  C   UNL     1       7.440   4.852  16.226  0.00  0.00    +0.000 C 
BRANCH  27  29
ATOM     28  C   UNL     1       7.404   5.101  13.686  0.00  0.00    +0.000 C 
ATOM     29  C   UNL     1       6.585   4.811  14.947  0.00  0.00    +0.000 C 
ATOM     30  C   UNL     1       5.916   3.439  14.814  0.00  0.00    +0.000 C 
ENDBRANCH  27  29
ENDBRANCH  18  27
ENDBRANCH  17  23
ENDBRANCH   1  17
TORSDOF 6
ENDMDL
MODEL 4
REMARK VINA RESULT:      -7.4      4.746      6.618
REMARK  Name = 
REMARK  8 active torsions:
REMARK  status: ('A' for Active; 'I' for Inactive)
REMARK    1  A    between atoms: C_1  and  C_2
REMARK    2  A    between atoms: C_2  and  C_3
REMARK    3  A    between atoms: C_2  and  C_4
REMARK    4  A    between atoms: C_4  and  C_5
REMARK    5  A    between atoms: C_10  and  C_12
REMARK    6  A    between atoms: C_12  and  C_13
REMARK    7  A    between atoms: C_13  and  C_14
REMARK    8  A    between atoms: N_19  and  C_20
REMARK                            x       y       z     vdW  Elec       q    Type
REMARK                         _______ _______ _______ _____ _____    ______ ____
ROOT
ATOM      1  C   UNL     1       6.474   5.016  17.639  0.00  0.00    +0.000 C 
ENDROOT
BRANCH   1   2
ATOM      2  C   UNL     1       5.295   4.680  18.517  0.00  0.00    +0.000 C 
ATOM      3  O   UNL     1       5.324   3.717  19.284  0.00  0.00    +0.000 OA
ATOM      4  N   UNL     1       4.214   5.543  18.434  0.00  0.00    +0.000 N 
ATOM      5  C   UNL     1       3.074   5.365  19.340  0.00  0.00    +0.000 C 
ATOM      6  C   UNL     1       2.678   6.700  20.000  0.00  0.00    +0.000 C 
ATOM      7  N   UNL     1       2.429   7.701  18.947  0.00  0.00    +0.000 N 
ATOM      8  C   UNL     1       3.576   7.930  18.047  0.00  0.00    +0.000 C 
ATOM      9  C   UNL     1       4.021   6.594  17.418  0.00  0.00    +0.000 C 
BRANCH   7  10
ATOM     10  C   UNL     1       1.398   8.617  19.032  0.00  0.00    +0.000 A 
ATOM     11  C   UNL     1       0.881   9.280  17.908  0.00  0.00    +0.000 A 
ATOM     12  C   UNL     1      -0.118  10.256  18.021  0.00  0.00    +0.000 A 
ATOM     13  C   UNL     1      -0.621  10.588  19.273  0.00  0.00    +0.000 A 
ATOM     14 CL   UNL     1      -1.839  11.792  19.420  0.00  0.00    +0.000 Cl
ATOM     15  C   UNL     1      -0.134   9.952  20.406  0.00  0.00    +0.000 A 
ATOM     16  C   UNL     1       0.863   8.978  20.281  0.00  0.00    +0.000 A 
ENDBRANCH   7  10
ENDBRANCH   1   2
BRANCH   1  17
ATOM     17  C   UNL     1       7.657   5.614  18.397  0.00  0.00    +0.000 C 
BRANCH  17  23
ATOM     18  C   UNL     1       8.985  11.456  18.173  0.00  0.00    +0.000 A 
ATOM     19  N   UNL     1       9.706  11.150  19.234  0.00  0.00    +0.000 NA
ATOM     20  N   UNL     1       9.558   9.820  19.595  0.00  0.00    +0.000 NA
ATOM     21  C   UNL     1       8.761   9.170  18.776  0.00  0.00    +0.000 A 
ATOM     22  N   UNL     1       8.477   7.831  18.912  0.00  0.00    +0.000 N 
ATOM     23  C   UNL     1       7.838   7.058  17.970  0.00  0.00    +0.000 C 
ATOM     24  O   UNL     1       7.442   7.438  16.869  0.00  0.00    +0.000 OA
ATOM     25  S   UNL     1       8.065  10.145  17.563  0.00  0.00    +0.000 S 
ATOM     26  H   UNL     1       8.890   7.396  19.727  0.00  0.00    +0.000 HD
BRANCH  18  27
ATOM     27  C   UNL     1       8.921  12.799  17.517  0.00  0.00    +0.000 C 
BRANCH  27  29
ATOM     28  C   UNL     1      11.147  13.874  16.884  0.00  0.00    +0.000 C 
ATOM     29  C   UNL     1      10.060  13.738  17.954  0.00  0.00    +0.000 C 
ATOM     30  C   UNL     1       9.493  15.122  18.283  0.00  0.00    +0.000 C 
ENDBRANCH  27  29
ENDBRANCH  18  27
ENDBRANCH  17  23
ENDBRANCH   1  17
TORSDOF 6
ENDMDL
MODEL 5
REMARK VINA RESULT:      -7.4      1.078      1.436
REMARK  Name = 
REMARK  8 active torsions:
REMARK  status: ('A' for Active; 'I' for Inactive)
REMARK    1  A    between atoms: C_1  and  C_2
REMARK    2  A    between atoms: C_2  and  C_3
REMARK    3  A    between atoms: C_2  and  C_4
REMARK    4  A    between atoms: C_4  and  C_5
REMARK    5  A    between atoms: C_10  and  C_12
REMARK    6  A    between atoms: C_12  and  C_13
REMARK    7  A    between atoms: C_13  and  C_14
REMARK    8  A    between atoms: N_19  and  C_20
REMARK                            x       y       z     vdW  Elec       q    Type
REMARK                         _______ _______ _______ _____ _____    ______ ____
ROOT
ATOM      1  C   UNL     1       3.299   6.768  18.568  0.00  0.00    +0.000 C 
ENDROOT
BRANCH   1   2
ATOM      2  C   UNL     1       2.366   6.712  19.750  0.00  0.00    +0.000 C 
ATOM      3  O   UNL     1       2.391   5.769  20.540  0.00  0.00    +0.000 OA
ATOM      4  N   UNL     1       1.522   7.801  19.905  0.00  0.00    +0.000 N 
ATOM      5  C   UNL     1       0.668   7.891  21.094  0.00  0.00    +0.000 C 
ATOM      6  C   UNL     1       0.775   9.282  21.750  0.00  0.00    +0.000 C 
ATOM      7  N   UNL     1       0.473  10.313  20.741  0.00  0.00    +0.000 N 
ATOM      8  C   UNL     1       1.348  10.272  19.553  0.00  0.00    +0.000 C 
ATOM      9  C   UNL     1       1.294   8.869  18.914  0.00  0.00    +0.000 C 
BRANCH   7  10
ATOM     10  C   UNL     1      -0.265  11.442  21.041  0.00  0.00    +0.000 A 
ATOM     11  C   UNL     1      -0.864  12.239  20.053  0.00  0.00    +0.000 A 
ATOM     12  C   UNL     1      -1.551  13.418  20.371  0.00  0.00    +0.000 A 
ATOM     13  C   UNL     1      -1.651  13.822  21.697  0.00  0.00    +0.000 A 
ATOM     14 CL   UNL     1      -2.483  15.273  22.094  0.00  0.00    +0.000 Cl
ATOM     15  C   UNL     1      -1.073  13.058  22.700  0.00  0.00    +0.000 A 
ATOM     16  C   UNL     1      -0.389  11.883  22.370  0.00  0.00    +0.000 A 
ENDBRANCH   7  10
ENDBRANCH   1   2
BRANCH   1  17
ATOM     17  C   UNL     1       4.541   5.892  18.721  0.00  0.00    +0.000 C 
BRANCH  17  23
ATOM     18  C   UNL     1       6.848   4.286  13.426  0.00  0.00    +0.000 A 
ATOM     19  N   UNL     1       7.854   5.030  13.840  0.00  0.00    +0.000 NA
ATOM     20  N   UNL     1       7.591   5.622  15.065  0.00  0.00    +0.000 NA
ATOM     21  C   UNL     1       6.416   5.273  15.541  0.00  0.00    +0.000 A 
ATOM     22  N   UNL     1       5.939   5.711  16.755  0.00  0.00    +0.000 N 
ATOM     23  C   UNL     1       4.830   5.211  17.397  0.00  0.00    +0.000 C 
ATOM     24  O   UNL     1       4.113   4.296  16.996  0.00  0.00    +0.000 OA
ATOM     25  S   UNL     1       5.510   4.277  14.496  0.00  0.00    +0.000 S 
ATOM     26  H   UNL     1       6.546   6.368  17.230  0.00  0.00    +0.000 HD
BRANCH  18  27
ATOM     27  C   UNL     1       6.806   3.503  12.151  0.00  0.00    +0.000 C 
BRANCH  27  29
ATOM     28  C   UNL     1       4.402   3.356  11.308  0.00  0.00    +0.000 C 
ATOM     29  C   UNL     1       5.545   2.630  12.022  0.00  0.00    +0.000 C 
ATOM     30  C   UNL     1       5.882   1.341  11.265  0.00  0.00    +0.000 C 
ENDBRANCH  27  29
ENDBRANCH  18  27
ENDBRANCH  17  23
ENDBRANCH   1  17
TORSDOF 6
ENDMDL
MODEL 6
REMARK VINA RESULT:      -7.3      3.587      5.226
REMARK  Name = 
REMARK  8 active torsions:
REMARK  status: ('A' for Active; 'I' for Inactive)
REMARK    1  A    between atoms: C_1  and  C_2
REMARK    2  A    between atoms: C_2  and  C_3
REMARK    3  A    between atoms: C_2  and  C_4
REMARK    4  A    between atoms: C_4  and  C_5
REMARK    5  A    between atoms: C_10  and  C_12
REMARK    6  A    between atoms: C_12  and  C_13
REMARK    7  A    between atoms: C_13  and  C_14
REMARK    8  A    between atoms: N_19  and  C_20
REMARK                            x       y       z     vdW  Elec       q    Type
REMARK                         _______ _______ _______ _____ _____    ______ ____
ROOT
ATOM      1  C   UNL     1      -0.049   8.779  21.363  0.00  0.00    +0.000 C 
ENDROOT
BRANCH   1   2
ATOM      2  C   UNL     1      -0.459  10.047  22.067  0.00  0.00    +0.000 C 
ATOM      3  O   UNL     1      -0.756  10.047  23.261  0.00  0.00    +0.000 OA
ATOM      4  N   UNL     1      -0.435  11.200  21.298  0.00  0.00    +0.000 N 
ATOM      5  C   UNL     1      -0.700  12.497  21.931  0.00  0.00    +0.000 C 
ATOM      6  C   UNL     1       0.370  13.535  21.536  0.00  0.00    +0.000 C 
ATOM      7  N   UNL     1       0.444  13.612  20.065  0.00  0.00    +0.000 N 
ATOM      8  C   UNL     1       0.751  12.328  19.407  0.00  0.00    +0.000 C 
ATOM      9  C   UNL     1      -0.279  11.262  19.833  0.00  0.00    +0.000 C 
BRANCH   7  10
ATOM     10  C   UNL     1       0.613  14.810  19.399  0.00  0.00    +0.000 A 
ATOM     11  C   UNL     1      -0.467  15.620  19.013  0.00  0.00    +0.000 A 
ATOM     12  C   UNL     1      -0.281  16.799  18.279  0.00  0.00    +0.000 A 
ATOM     13  C   UNL     1       1.002  17.189  17.914  0.00  0.00    +0.000 A 
ATOM     14 CL   UNL     1       1.236  18.628  17.003  0.00  0.00    +0.000 Cl
ATOM     15  C   UNL     1       2.093  16.415  18.279  0.00  0.00    +0.000 A 
ATOM     16  C   UNL     1       1.894  15.240  19.013  0.00  0.00    +0.000 A 
ENDBRANCH   7  10
ENDBRANCH   1   2
BRANCH   1  17
ATOM     17  C   UNL     1       1.435   8.445  21.508  0.00  0.00    +0.000 C 
BRANCH  17  23
ATOM     18  C   UNL     1       3.808   4.381  17.796  0.00  0.00    +0.000 A 
ATOM     19  N   UNL     1       3.846   3.659  18.898  0.00  0.00    +0.000 NA
ATOM     20  N   UNL     1       3.400   4.371  20.000  0.00  0.00    +0.000 NA
ATOM     21  C   UNL     1       3.013   5.586  19.680  0.00  0.00    +0.000 A 
ATOM     22  N   UNL     1       2.507   6.477  20.598  0.00  0.00    +0.000 N 
ATOM     23  C   UNL     1       1.887   7.666  20.289  0.00  0.00    +0.000 C 
ATOM     24  O   UNL     1       1.678   8.100  19.157  0.00  0.00    +0.000 OA
ATOM     25  S   UNL     1       3.246   5.981  18.039  0.00  0.00    +0.000 S 
ATOM     26  H   UNL     1       2.506   6.139  21.552  0.00  0.00    +0.000 HD
BRANCH  18  27
ATOM     27  C   UNL     1       4.211   3.916  16.431  0.00  0.00    +0.000 C 
BRANCH  27  29
ATOM     28  C   UNL     1       5.688   5.526  15.113  0.00  0.00    +0.000 C 
ATOM     29  C   UNL     1       5.648   4.321  16.057  0.00  0.00    +0.000 C 
ATOM     30  C   UNL     1       6.444   4.640  17.326  0.00  0.00    +0.000 C 
ENDBRANCH  27  29
ENDBRANCH  18  27
ENDBRANCH  17  23
ENDBRANCH   1  17
TORSDOF 6
ENDMDL
MODEL 7
REMARK VINA RESULT:      -7.3      3.436      5.576
REMARK  Name = 
REMARK  8 active torsions:
REMARK  status: ('A' for Active; 'I' for Inactive)
REMARK    1  A    between atoms: C_1  and  C_2
REMARK    2  A    between atoms: C_2  and  C_3
REMARK    3  A    between atoms: C_2  and  C_4
REMARK    4  A    between atoms: C_4  and  C_5
REMARK    5  A    between atoms: C_10  and  C_12
REMARK    6  A    between atoms: C_12  and  C_13
REMARK    7  A    between atoms: C_13  and  C_14
REMARK    8  A    between atoms: N_19  and  C_20
REMARK                            x       y       z     vdW  Elec       q    Type
REMARK                         _______ _______ _______ _____ _____    ______ ____
ROOT
ATOM      1  C   UNL     1       3.841   3.848  16.549  0.00  0.00    +0.000 C 
ENDROOT
BRANCH   1   2
ATOM      2  C   UNL     1       3.466   3.708  18.003  0.00  0.00    +0.000 C 
ATOM      3  O   UNL     1       3.837   2.741  18.667  0.00  0.00    +0.000 OA
ATOM      4  N   UNL     1       2.725   4.750  18.538  0.00  0.00    +0.000 N 
ATOM      5  C   UNL     1       2.421   4.758  19.973  0.00  0.00    +0.000 C 
ATOM      6  C   UNL     1       2.742   6.130  20.599  0.00  0.00    +0.000 C 
ATOM      7  N   UNL     1       2.028   7.179  19.850  0.00  0.00    +0.000 N 
ATOM      8  C   UNL     1       2.349   7.219  18.410  0.00  0.00    +0.000 C 
ATOM      9  C   UNL     1       2.084   5.838  17.777  0.00  0.00    +0.000 C 
BRANCH   7  10
ATOM     10  C   UNL     1       1.440   8.260  20.477  0.00  0.00    +0.000 A 
ATOM     11  C   UNL     1       1.084   8.246  21.835  0.00  0.00    +0.000 A 
ATOM     12  C   UNL     1       0.427   9.326  22.438  0.00  0.00    +0.000 A 
ATOM     13  C   UNL     1       0.112  10.450  21.685  0.00  0.00    +0.000 A 
ATOM     14 CL   UNL     1      -0.704  11.775  22.416  0.00  0.00    +0.000 Cl
ATOM     15  C   UNL     1       0.450  10.501  20.340  0.00  0.00    +0.000 A 
ATOM     16  C   UNL     1       1.106   9.415  19.749  0.00  0.00    +0.000 A 
ENDBRANCH   7  10
ENDBRANCH   1   2
BRANCH   1  17
ATOM     17  C   UNL     1       5.344   3.767  16.289  0.00  0.00    +0.000 C 
BRANCH  17  23
ATOM     18  C   UNL     1       8.218   8.655  18.235  0.00  0.00    +0.000 A 
ATOM     19  N   UNL     1       8.739   7.793  19.085  0.00  0.00    +0.000 NA
ATOM     20  N   UNL     1       8.207   6.523  18.926  0.00  0.00    +0.000 NA
ATOM     21  C   UNL     1       7.334   6.471  17.943  0.00  0.00    +0.000 A 
ATOM     22  N   UNL     1       6.688   5.314  17.575  0.00  0.00    +0.000 N 
ATOM     23  C   UNL     1       5.944   5.153  16.429  0.00  0.00    +0.000 C 
ATOM     24  O   UNL     1       5.758   6.005  15.561  0.00  0.00    +0.000 OA
ATOM     25  S   UNL     1       7.031   7.976  17.203  0.00  0.00    +0.000 S 
ATOM     26  H   UNL     1       6.899   4.513  18.158  0.00  0.00    +0.000 HD
BRANCH  18  27
ATOM     27  C   UNL     1       8.574  10.105  18.131  0.00  0.00    +0.000 C 
BRANCH  27  29
ATOM     28  C   UNL     1      10.680  11.535  18.314  0.00  0.00    +0.000 C 
ATOM     29  C   UNL     1       9.791  10.489  18.992  0.00  0.00    +0.000 C 
ATOM     30  C   UNL     1       9.318  11.024  20.347  0.00  0.00    +0.000 C 
ENDBRANCH  27  29
ENDBRANCH  18  27
ENDBRANCH  17  23
ENDBRANCH   1  17
TORSDOF 6
ENDMDL
MODEL 8
REMARK VINA RESULT:      -7.2      3.580      5.462
REMARK  Name = 
REMARK  8 active torsions:
REMARK  status: ('A' for Active; 'I' for Inactive)
REMARK    1  A    between atoms: C_1  and  C_2
REMARK    2  A    between atoms: C_2  and  C_3
REMARK    3  A    between atoms: C_2  and  C_4
REMARK    4  A    between atoms: C_4  and  C_5
REMARK    5  A    between atoms: C_10  and  C_12
REMARK    6  A    between atoms: C_12  and  C_13
REMARK    7  A    between atoms: C_13  and  C_14
REMARK    8  A    between atoms: N_19  and  C_20
REMARK                            x       y       z     vdW  Elec       q    Type
REMARK                         _______ _______ _______ _____ _____    ______ ____
ROOT
ATOM      1  C   UNL     1       4.175   4.250  16.991  0.00  0.00    +0.000 C 
ENDROOT
BRANCH   1   2
ATOM      2  C   UNL     1       3.296   4.000  18.191  0.00  0.00    +0.000 C 
ATOM      3  O   UNL     1       3.284   2.908  18.757  0.00  0.00    +0.000 OA
ATOM      4  N   UNL     1       2.550   5.083  18.629  0.00  0.00    +0.000 N 
ATOM      5  C   UNL     1       1.763   4.968  19.861  0.00  0.00    +0.000 C 
ATOM      6  C   UNL     1       2.011   6.172  20.791  0.00  0.00    +0.000 C 
ATOM      7  N   UNL     1       1.745   7.417  20.048  0.00  0.00    +0.000 N 
ATOM      8  C   UNL     1       2.556   7.577  18.826  0.00  0.00    +0.000 C 
ATOM      9  C   UNL     1       2.361   6.355  17.905  0.00  0.00    +0.000 C 
BRANCH   7  10
ATOM     10  C   UNL     1       1.113   8.500  20.629  0.00  0.00    +0.000 A 
ATOM     11  C   UNL     1       0.855   9.689  19.930  0.00  0.00    +0.000 A 
ATOM     12  C   UNL     1       0.276  10.802  20.554  0.00  0.00    +0.000 A 
ATOM     13  C   UNL     1      -0.057  10.742  21.902  0.00  0.00    +0.000 A 
ATOM     14 CL   UNL     1      -0.758  12.107  22.677  0.00  0.00    +0.000 Cl
ATOM     15  C   UNL     1       0.182   9.582  22.624  0.00  0.00    +0.000 A 
ATOM     16  C   UNL     1       0.761   8.477  21.989  0.00  0.00    +0.000 A 
ENDBRANCH   7  10
ENDBRANCH   1   2
BRANCH   1  17
ATOM     17  C   UNL     1       5.619   3.790  17.178  0.00  0.00    +0.000 C 
BRANCH  17  23
ATOM     18  C   UNL     1       8.342   8.992  18.389  0.00  0.00    +0.000 A 
ATOM     19  N   UNL     1       7.568   9.420  17.411  0.00  0.00    +0.000 NA
ATOM     20  N   UNL     1       6.823   8.393  16.854  0.00  0.00    +0.000 NA
ATOM     21  C   UNL     1       7.038   7.243  17.453  0.00  0.00    +0.000 A 
ATOM     22  N   UNL     1       6.396   6.080  17.096  0.00  0.00    +0.000 N 
ATOM     23  C   UNL     1       6.414   4.910  17.821  0.00  0.00    +0.000 C 
ATOM     24  O   UNL     1       6.987   4.734  18.895  0.00  0.00    +0.000 OA
ATOM     25  S   UNL     1       8.224   7.307  18.675  0.00  0.00    +0.000 S 
ATOM     26  H   UNL     1       5.781   6.170  16.296  0.00  0.00    +0.000 HD
BRANCH  18  27
ATOM     27  C   UNL     1       9.266   9.838  19.207  0.00  0.00    +0.000 C 
BRANCH  27  29
ATOM     28  C   UNL     1       9.423  12.321  19.776  0.00  0.00    +0.000 C 
ATOM     29  C   UNL     1       9.412  11.270  18.662  0.00  0.00    +0.000 C 
ATOM     30  C   UNL     1      10.702  11.384  17.843  0.00  0.00    +0.000 C 
ENDBRANCH  27  29
ENDBRANCH  18  27
ENDBRANCH  17  23
ENDBRANCH   1  17
TORSDOF 6
ENDMDL
MODEL 9
REMARK VINA RESULT:      -7.2      8.331      9.226
REMARK  Name = 
REMARK  8 active torsions:
REMARK  status: ('A' for Active; 'I' for Inactive)
REMARK    1  A    between atoms: C_1  and  C_2
REMARK    2  A    between atoms: C_2  and  C_3
REMARK    3  A    between atoms: C_2  and  C_4
REMARK    4  A    between atoms: C_4  and  C_5
REMARK    5  A    between atoms: C_10  and  C_12
REMARK    6  A    between atoms: C_12  and  C_13
REMARK    7  A    between atoms: C_13  and  C_14
REMARK    8  A    between atoms: N_19  and  C_20
REMARK                            x       y       z     vdW  Elec       q    Type
REMARK                         _______ _______ _______ _____ _____    ______ ____
ROOT
ATOM      1  C   UNL     1       9.151  11.124  18.122  0.00  0.00    +0.000 C 
ENDROOT
BRANCH   1   2
ATOM      2  C   UNL     1      10.325  12.063  18.230  0.00  0.00    +0.000 C 
ATOM      3  O   UNL     1      11.102  12.224  17.290  0.00  0.00    +0.000 OA
ATOM      4  N   UNL     1      10.439  12.752  19.427  0.00  0.00    +0.000 N 
ATOM      5  C   UNL     1      11.478  13.777  19.576  0.00  0.00    +0.000 C 
ATOM      6  C   UNL     1      10.892  15.079  20.156  0.00  0.00    +0.000 C 
ATOM      7  N   UNL     1      10.197  14.772  21.420  0.00  0.00    +0.000 N 
ATOM      8  C   UNL     1       9.118  13.774  21.289  0.00  0.00    +0.000 C 
ATOM      9  C   UNL     1       9.676  12.481  20.659  0.00  0.00    +0.000 C 
BRANCH   7  10
ATOM     10  C   UNL     1      10.263  15.608  22.518  0.00  0.00    +0.000 A 
ATOM     11  C   UNL     1      11.269  16.574  22.673  0.00  0.00    +0.000 A 
ATOM     12  C   UNL     1      11.360  17.367  23.825  0.00  0.00    +0.000 A 
ATOM     13  C   UNL     1      10.437  17.203  24.851  0.00  0.00    +0.000 A 
ATOM     14 CL   UNL     1      10.550  18.164  26.271  0.00  0.00    +0.000 Cl
ATOM     15  C   UNL     1       9.429  16.258  24.731  0.00  0.00    +0.000 A 
ATOM     16  C   UNL     1       9.348  15.472  23.576  0.00  0.00    +0.000 A 
ENDBRANCH   7  10
ENDBRANCH   1   2
BRANCH   1  17
ATOM     17  C   UNL     1       9.375   9.775  18.803  0.00  0.00    +0.000 C 
BRANCH  17  23
ATOM     18  C   UNL     1       6.070   4.885  17.752  0.00  0.00    +0.000 A 
ATOM     19  N   UNL     1       6.781   4.407  18.754  0.00  0.00    +0.000 NA
ATOM     20  N   UNL     1       7.724   5.319  19.201  0.00  0.00    +0.000 NA
ATOM     21  C   UNL     1       7.663   6.457  18.544  0.00  0.00    +0.000 A 
ATOM     22  N   UNL     1       8.481   7.527  18.823  0.00  0.00    +0.000 N 
ATOM     23  C   UNL     1       8.316   8.800  18.327  0.00  0.00    +0.000 C 
ATOM     24  O   UNL     1       7.413   9.174  17.581  0.00  0.00    +0.000 OA
ATOM     25  S   UNL     1       6.521   6.469  17.280  0.00  0.00    +0.000 S 
ATOM     26  H   UNL     1       9.172   7.350  19.541  0.00  0.00    +0.000 HD
BRANCH  18  27
ATOM     27  C   UNL     1       4.966   4.167  17.043  0.00  0.00    +0.000 C 
BRANCH  27  29
ATOM     28  C   UNL     1       2.568   4.701  17.734  0.00  0.00    +0.000 C 
ATOM     29  C   UNL     1       3.789   3.807  17.967  0.00  0.00    +0.000 C 
ATOM     30  C   UNL     1       3.394   2.342  17.757  0.00  0.00    +0.000 C 
ENDBRANCH  27  29
ENDBRANCH  18  27
ENDBRANCH  17  23
ENDBRANCH   1  17
TORSDOF 6
ENDMDL
