MODEL 1
REMARK VINA RESULT:      -7.4      0.000      0.000
REMARK  Name = 
REMARK  5 active torsions:
REMARK  status: ('A' for Active; 'I' for Inactive)
REMARK    1  A    between atoms: C_2  and  O_3
REMARK    2  A    between atoms: C_2  and  C_4
REMARK    3  A    between atoms: C_4  and  C_5
REMARK    4  A    between atoms: N_7  and  C_8
REMARK    5  A    between atoms: C_8  and  C_9
REMARK                            x       y       z     vdW  Elec       q    Type
REMARK                         _______ _______ _______ _____ _____    ______ ____
ROOT
ATOM      1  C   UNL     1      -2.214  10.292  17.652  0.00  0.00    +0.000 A 
ATOM      2  N   UNL     1      -0.950   9.986  17.666  0.00  0.00    +0.000 NA
ATOM      3  N   UNL     1      -0.126  10.542  18.618  0.00  0.00    +0.000 N 
ATOM      4  C   UNL     1      -0.543  11.468  19.564  0.00  0.00    +0.000 A 
ATOM      5  O   UNL     1       0.203  12.009  20.375  0.00  0.00    +0.000 OA
ATOM      6  C   UNL     1      -1.972  11.823  19.553  0.00  0.00    +0.000 A 
ATOM      7  C   UNL     1      -2.455  12.767  20.468  0.00  0.00    +0.000 A 
ATOM      8  C   UNL     1      -3.804  13.116  20.460  0.00  0.00    +0.000 A 
ATOM      9  C   UNL     1      -4.660  12.520  19.539  0.00  0.00    +0.000 A 
ATOM     10 CL   UNL     1      -6.329  12.942  19.532  0.00  0.00    +0.000 Cl
ATOM     11  C   UNL     1      -4.180  11.590  18.614  0.00  0.00    +0.000 A 
ATOM     12  C   UNL     1      -2.823  11.239  18.621  0.00  0.00    +0.000 A 
ENDROOT
BRANCH   1  13
ATOM     13  C   UNL     1      -3.046   9.704  16.527  0.00  0.00    +0.000 C 
BRANCH  13  15
ATOM     14  O   UNL     1      -3.631  10.178  14.228  0.00  0.00    +0.000 OA
ATOM     15  C   UNL     1      -3.066  10.506  15.258  0.00  0.00    +0.000 C 
BRANCH  15  16
ATOM     16  O   UNL     1      -2.432  11.697  15.382  0.00  0.00    +0.000 OA
ATOM     17  H   UNL     1      -1.641  11.686  15.955  0.00  0.00    +0.000 HD
ENDBRANCH  15  16
ENDBRANCH  13  15
ENDBRANCH   1  13
BRANCH   3  18
ATOM     18  C   UNL     1       1.304  10.256  18.516  0.00  0.00    +0.000 C 
BRANCH  18  19
ATOM     19  C   UNL     1       1.717   8.865  18.917  0.00  0.00    +0.000 A 
ATOM     20  N   UNL     1       2.343   8.068  18.073  0.00  0.00    +0.000 NA
ATOM     21  C   UNL     1       2.514   6.815  18.628  0.00  0.00    +0.000 A 
ATOM     22  C   UNL     1       3.055   5.695  17.968  0.00  0.00    +0.000 A 
ATOM     23  C   UNL     1       3.095   4.459  18.617  0.00  0.00    +0.000 A 
ATOM     24  C   UNL     1       2.652   4.341  19.931  0.00  0.00    +0.000 A 
ATOM     25  C   UNL     1       2.155   5.452  20.626  0.00  0.00    +0.000 A 
ATOM     26  C   UNL     1       2.070   6.678  19.944  0.00  0.00    +0.000 A 
ATOM     27  S   UNL     1       1.438   8.190  20.475  0.00  0.00    +0.000 S 
ENDBRANCH  18  19
ENDBRANCH   3  18
TORSDOF 5
ENDMDL
MODEL 2
REMARK VINA RESULT:      -7.3      5.691      9.803
REMARK  Name = 
REMARK  5 active torsions:
REMARK  status: ('A' for Active; 'I' for Inactive)
REMARK    1  A    between atoms: C_2  and  O_3
REMARK    2  A    between atoms: C_2  and  C_4
REMARK    3  A    between atoms: C_4  and  C_5
REMARK    4  A    between atoms: N_7  and  C_8
REMARK    5  A    between atoms: C_8  and  C_9
REMARK                            x       y       z     vdW  Elec       q    Type
REMARK                         _______ _______ _______ _____ _____    ______ ____
ROOT
ATOM      1  C   UNL     1       6.447   6.283  17.113  0.00  0.00    +0.000 A 
ATOM      2  N   UNL     1       5.675   6.176  18.154  0.00  0.00    +0.000 NA
ATOM      3  N   UNL     1       4.671   5.234  18.162  0.00  0.00    +0.000 N 
ATOM      4  C   UNL     1       4.380   4.396  17.095  0.00  0.00    +0.000 A 
ATOM      5  O   UNL     1       3.447   3.597  17.079  0.00  0.00    +0.000 OA
ATOM      6  C   UNL     1       5.247   4.514  15.911  0.00  0.00    +0.000 A 
ATOM      7  C   UNL     1       4.995   3.711  14.790  0.00  0.00    +0.000 A 
ATOM      8  C   UNL     1       5.804   3.821  13.661  0.00  0.00    +0.000 A 
ATOM      9  C   UNL     1       6.858   4.730  13.658  0.00  0.00    +0.000 A 
ATOM     10 CL   UNL     1       7.864   4.861  12.269  0.00  0.00    +0.000 Cl
ATOM     11  C   UNL     1       7.103   5.543  14.768  0.00  0.00    +0.000 A 
ATOM     12  C   UNL     1       6.288   5.434  15.904  0.00  0.00    +0.000 A 
ENDROOT
BRANCH   1  13
ATOM     13  C   UNL     1       7.480   7.395  17.140  0.00  0.00    +0.000 C 
BRANCH  13  15
ATOM     14  O   UNL     1       8.678   8.598  18.863  0.00  0.00    +0.000 OA
ATOM     15  C   UNL     1       8.218   7.551  18.439  0.00  0.00    +0.000 C 
BRANCH  15  16
ATOM     16  O   UNL     1       8.273   6.401  19.151  0.00  0.00    +0.000 OA
ATOM     17  H   UNL     1       7.438   6.147  19.591  0.00  0.00    +0.000 HD
ENDBRANCH  15  16
ENDBRANCH  13  15
ENDBRANCH   1  13
BRANCH   3  18
ATOM     18  C   UNL     1       3.762   5.236  19.307  0.00  0.00    +0.000 C 
BRANCH  18  19
ATOM     19  C   UNL     1       2.856   6.432  19.414  0.00  0.00    +0.000 A 
ATOM     20  N   UNL     1       2.736   7.291  18.420  0.00  0.00    +0.000 NA
ATOM     21  C   UNL     1       1.943   8.357  18.795  0.00  0.00    +0.000 A 
ATOM     22  C   UNL     1       1.687   9.501  18.014  0.00  0.00    +0.000 A 
ATOM     23  C   UNL     1       0.933  10.549  18.545  0.00  0.00    +0.000 A 
ATOM     24  C   UNL     1       0.389  10.447  19.822  0.00  0.00    +0.000 A 
ATOM     25  C   UNL     1       0.589   9.299  20.600  0.00  0.00    +0.000 A 
ATOM     26  C   UNL     1       1.393   8.273  20.075  0.00  0.00    +0.000 A 
ATOM     27  S   UNL     1       1.896   6.792  20.797  0.00  0.00    +0.000 S 
ENDBRANCH  18  19
ENDBRANCH   3  18
TORSDOF 5
ENDMDL
MODEL 3
REMARK VINA RESULT:      -7.3      5.692      9.785
REMARK  Name = 
REMARK  5 active torsions:
REMARK  status: ('A' for Active; 'I' for Inactive)
REMARK    1  A    between atoms: C_2  and  O_3
REMARK    2  A    between atoms: C_2  and  C_4
REMARK    3  A    between atoms: C_4  and  C_5
REMARK    4  A    between atoms: N_7  and  C_8
REMARK    5  A    between atoms: C_8  and  C_9
REMARK                            x       y       z     vdW  Elec       q    Type
REMARK                         _______ _______ _______ _____ _____    ______ ____
ROOT
ATOM      1  C   UNL     1       6.228   6.478  17.221  0.00  0.00    +0.000 A 
ATOM      2  N   UNL     1       5.397   6.378  18.217  0.00  0.00    +0.000 NA
ATOM      3  N   UNL     1       4.427   5.401  18.197  0.00  0.00    +0.000 N 
ATOM      4  C   UNL     1       4.233   4.518  17.145  0.00  0.00    +0.000 A 
ATOM      5  O   UNL     1       3.331   3.686  17.100  0.00  0.00    +0.000 OA
ATOM      6  C   UNL     1       5.167   4.627  16.012  0.00  0.00    +0.000 A 
ATOM      7  C   UNL     1       5.013   3.779  14.907  0.00  0.00    +0.000 A 
ATOM      8  C   UNL     1       5.887   3.880  13.827  0.00  0.00    +0.000 A 
ATOM      9  C   UNL     1       6.907   4.826  13.856  0.00  0.00    +0.000 A 
ATOM     10 CL   UNL     1       7.994   4.947  12.527  0.00  0.00    +0.000 Cl
ATOM     11  C   UNL     1       7.054   5.685  14.948  0.00  0.00    +0.000 A 
ATOM     12  C   UNL     1       6.175   5.584  16.036  0.00  0.00    +0.000 A 
ENDROOT
BRANCH   1  13
ATOM     13  C   UNL     1       7.220   7.627  17.272  0.00  0.00    +0.000 C 
BRANCH  13  15
ATOM     14  O   UNL     1       8.775   8.581  18.860  0.00  0.00    +0.000 OA
ATOM     15  C   UNL     1       8.153   7.616  18.449  0.00  0.00    +0.000 C 
BRANCH  15  16
ATOM     16  O   UNL     1       8.195   6.414  19.072  0.00  0.00    +0.000 OA
ATOM     17  H   UNL     1       7.959   5.650  18.512  0.00  0.00    +0.000 HD
ENDBRANCH  15  16
ENDBRANCH  13  15
ENDBRANCH   1  13
BRANCH   3  18
ATOM     18  C   UNL     1       3.449   5.408  19.283  0.00  0.00    +0.000 C 
BRANCH  18  19
ATOM     19  C   UNL     1       2.677   6.689  19.453  0.00  0.00    +0.000 A 
ATOM     20  N   UNL     1       2.122   7.006  20.606  0.00  0.00    +0.000 NA
ATOM     21  C   UNL     1       1.378   8.162  20.484  0.00  0.00    +0.000 A 
ATOM     22  C   UNL     1       0.574   8.729  21.493  0.00  0.00    +0.000 A 
ATOM     23  C   UNL     1      -0.197   9.859  21.212  0.00  0.00    +0.000 A 
ATOM     24  C   UNL     1      -0.134  10.459  19.958  0.00  0.00    +0.000 A 
ATOM     25  C   UNL     1       0.694   9.942  18.953  0.00  0.00    +0.000 A 
ATOM     26  C   UNL     1       1.425   8.774  19.231  0.00  0.00    +0.000 A 
ATOM     27  S   UNL     1       2.455   7.851  18.202  0.00  0.00    +0.000 S 
ENDBRANCH  18  19
ENDBRANCH   3  18
TORSDOF 5
ENDMDL
MODEL 4
REMARK VINA RESULT:      -7.3      5.797      9.750
REMARK  Name = 
REMARK  5 active torsions:
REMARK  status: ('A' for Active; 'I' for Inactive)
REMARK    1  A    between atoms: C_2  and  O_3
REMARK    2  A    between atoms: C_2  and  C_4
REMARK    3  A    between atoms: C_4  and  C_5
REMARK    4  A    between atoms: N_7  and  C_8
REMARK    5  A    between atoms: C_8  and  C_9
REMARK                            x       y       z     vdW  Elec       q    Type
REMARK                         _______ _______ _______ _____ _____    ______ ____
ROOT
ATOM      1  C   UNL     1       6.600   5.252  17.789  0.00  0.00    +0.000 A 
ATOM      2  N   UNL     1       5.705   5.047  18.711  0.00  0.00    +0.000 NA
ATOM      3  N   UNL     1       4.507   4.458  18.375  0.00  0.00    +0.000 N 
ATOM      4  C   UNL     1       4.151   4.099  17.083  0.00  0.00    +0.000 A 
ATOM      5  O   UNL     1       3.059   3.629  16.774  0.00  0.00    +0.000 OA
ATOM      6  C   UNL     1       5.156   4.332  16.034  0.00  0.00    +0.000 A 
ATOM      7  C   UNL     1       4.853   4.010  14.704  0.00  0.00    +0.000 A 
ATOM      8  C   UNL     1       5.795   4.235  13.702  0.00  0.00    +0.000 A 
ATOM      9  C   UNL     1       7.032   4.778  14.034  0.00  0.00    +0.000 A 
ATOM     10 CL   UNL     1       8.201   5.048  12.801  0.00  0.00    +0.000 Cl
ATOM     11  C   UNL     1       7.334   5.115  15.356  0.00  0.00    +0.000 A 
ATOM     12  C   UNL     1       6.386   4.890  16.365  0.00  0.00    +0.000 A 
ENDROOT
BRANCH   1  13
ATOM     13  C   UNL     1       7.864   5.977  18.216  0.00  0.00    +0.000 C 
BRANCH  13  15
ATOM     14  O   UNL     1       7.143   8.059  17.219  0.00  0.00    +0.000 OA
ATOM     15  C   UNL     1       7.847   7.465  18.018  0.00  0.00    +0.000 C 
BRANCH  15  16
ATOM     16  O   UNL     1       8.665   8.116  18.880  0.00  0.00    +0.000 OA
ATOM     17  H   UNL     1       8.716   7.728  19.775  0.00  0.00    +0.000 HD
ENDBRANCH  15  16
ENDBRANCH  13  15
ENDBRANCH   1  13
BRANCH   3  18
ATOM     18  C   UNL     1       3.494   4.358  19.424  0.00  0.00    +0.000 C 
BRANCH  18  19
ATOM     19  C   UNL     1       2.693   5.607  19.675  0.00  0.00    +0.000 A 
ATOM     20  N   UNL     1       2.638   6.575  18.781  0.00  0.00    +0.000 NA
ATOM     21  C   UNL     1       1.942   7.657  19.282  0.00  0.00    +0.000 A 
ATOM     22  C   UNL     1       1.777   8.896  18.632  0.00  0.00    +0.000 A 
ATOM     23  C   UNL     1       1.119   9.940  19.287  0.00  0.00    +0.000 A 
ATOM     24  C   UNL     1       0.579   9.745  20.554  0.00  0.00    +0.000 A 
ATOM     25  C   UNL     1       0.688   8.508  21.201  0.00  0.00    +0.000 A 
ATOM     26  C   UNL     1       1.398   7.481  20.555  0.00  0.00    +0.000 A 
ATOM     27  S   UNL     1       1.780   5.893  21.105  0.00  0.00    +0.000 S 
ENDBRANCH  18  19
ENDBRANCH   3  18
TORSDOF 5
ENDMDL
MODEL 5
REMARK VINA RESULT:      -7.2      1.155      1.534
REMARK  Name = 
REMARK  5 active torsions:
REMARK  status: ('A' for Active; 'I' for Inactive)
REMARK    1  A    between atoms: C_2  and  O_3
REMARK    2  A    between atoms: C_2  and  C_4
REMARK    3  A    between atoms: C_4  and  C_5
REMARK    4  A    between atoms: N_7  and  C_8
REMARK    5  A    between atoms: C_8  and  C_9
REMARK                            x       y       z     vdW  Elec       q    Type
REMARK                         _______ _______ _______ _____ _____    ______ ____
ROOT
ATOM      1  C   UNL     1      -2.851  10.738  18.117  0.00  0.00    +0.000 A 
ATOM      2  N   UNL     1      -1.620  10.673  18.533  0.00  0.00    +0.000 NA
ATOM      3  N   UNL     1      -1.224  11.441  19.604  0.00  0.00    +0.000 N 
ATOM      4  C   UNL     1      -2.048  12.341  20.266  0.00  0.00    +0.000 A 
ATOM      5  O   UNL     1      -1.678  13.070  21.182  0.00  0.00    +0.000 OA
ATOM      6  C   UNL     1      -3.441  12.424  19.798  0.00  0.00    +0.000 A 
ATOM      7  C   UNL     1      -4.321  13.328  20.409  0.00  0.00    +0.000 A 
ATOM      8  C   UNL     1      -5.639  13.419  19.968  0.00  0.00    +0.000 A 
ATOM      9  C   UNL     1      -6.071  12.609  18.922  0.00  0.00    +0.000 A 
ATOM     10 CL   UNL     1      -7.701  12.713  18.382  0.00  0.00    +0.000 Cl
ATOM     11  C   UNL     1      -5.193  11.718  18.299  0.00  0.00    +0.000 A 
ATOM     12  C   UNL     1      -3.865  11.626  18.742  0.00  0.00    +0.000 A 
ENDROOT
BRANCH   1  13
ATOM     13  C   UNL     1      -3.198   9.925  16.883  0.00  0.00    +0.000 C 
BRANCH  13  15
ATOM     14  O   UNL     1      -3.253  10.200  14.481  0.00  0.00    +0.000 OA
ATOM     15  C   UNL     1      -2.856  10.573  15.572  0.00  0.00    +0.000 C 
BRANCH  15  16
ATOM     16  O   UNL     1      -2.094  11.682  15.720  0.00  0.00    +0.000 OA
ATOM     17  H   UNL     1      -2.408  12.467  15.229  0.00  0.00    +0.000 HD
ENDBRANCH  15  16
ENDBRANCH  13  15
ENDBRANCH   1  13
BRANCH   3  18
ATOM     18  C   UNL     1       0.195  11.417  19.956  0.00  0.00    +0.000 C 
BRANCH  18  19
ATOM     19  C   UNL     1       0.858  10.068  19.886  0.00  0.00    +0.000 A 
ATOM     20  N   UNL     1       1.539   9.694  18.820  0.00  0.00    +0.000 NA
ATOM     21  C   UNL     1       1.952   8.383  18.946  0.00  0.00    +0.000 A 
ATOM     22  C   UNL     1       2.616   7.635  17.953  0.00  0.00    +0.000 A 
ATOM     23  C   UNL     1       2.905   6.288  18.177  0.00  0.00    +0.000 A 
ATOM     24  C   UNL     1       2.589   5.694  19.395  0.00  0.00    +0.000 A 
ATOM     25  C   UNL     1       1.973   6.429  20.416  0.00  0.00    +0.000 A 
ATOM     26  C   UNL     1       1.639   7.770  20.160  0.00  0.00    +0.000 A 
ATOM     27  S   UNL     1       0.812   8.907  21.156  0.00  0.00    +0.000 S 
ENDBRANCH  18  19
ENDBRANCH   3  18
TORSDOF 5
ENDMDL
MODEL 6
REMARK VINA RESULT:      -7.1      2.234      2.970
REMARK  Name = 
REMARK  5 active torsions:
REMARK  status: ('A' for Active; 'I' for Inactive)
REMARK    1  A    between atoms: C_2  and  O_3
REMARK    2  A    between atoms: C_2  and  C_4
REMARK    3  A    between atoms: C_4  and  C_5
REMARK    4  A    between atoms: N_7  and  C_8
REMARK    5  A    between atoms: C_8  and  C_9
REMARK                            x       y       z     vdW  Elec       q    Type
REMARK                         _______ _______ _______ _____ _____    ______ ____
ROOT
ATOM      1  C   UNL     1      -0.277  10.461  19.594  0.00  0.00    +0.000 A 
ATOM      2  N   UNL     1       0.557   9.503  19.873  0.00  0.00    +0.000 NA
ATOM      3  N   UNL     1       0.799   9.174  21.187  0.00  0.00    +0.000 N 
ATOM      4  C   UNL     1       0.240   9.835  22.272  0.00  0.00    +0.000 A 
ATOM      5  O   UNL     1       0.502   9.581  23.444  0.00  0.00    +0.000 OA
ATOM      6  C   UNL     1      -0.702  10.923  21.965  0.00  0.00    +0.000 A 
ATOM      7  C   UNL     1      -1.287  11.646  23.014  0.00  0.00    +0.000 A 
ATOM      8  C   UNL     1      -2.173  12.683  22.733  0.00  0.00    +0.000 A 
ATOM      9  C   UNL     1      -2.471  12.992  21.410  0.00  0.00    +0.000 A 
ATOM     10 CL   UNL     1      -3.573  14.267  21.060  0.00  0.00    +0.000 Cl
ATOM     11  C   UNL     1      -1.878  12.285  20.360  0.00  0.00    +0.000 A 
ATOM     12  C   UNL     1      -0.985  11.241  20.641  0.00  0.00    +0.000 A 
ENDROOT
BRANCH   1  13
ATOM     13  C   UNL     1      -0.435  10.824  18.128  0.00  0.00    +0.000 C 
BRANCH  13  15
ATOM     14  O   UNL     1      -2.555   9.683  17.885  0.00  0.00    +0.000 OA
ATOM     15  C   UNL     1      -1.801  10.583  17.553  0.00  0.00    +0.000 C 
BRANCH  15  16
ATOM     16  O   UNL     1      -2.159  11.523  16.646  0.00  0.00    +0.000 OA
ATOM     17  H   UNL     1      -2.269  11.194  15.732  0.00  0.00    +0.000 HD
ENDBRANCH  15  16
ENDBRANCH  13  15
ENDBRANCH   1  13
BRANCH   3  18
ATOM     18  C   UNL     1       1.831   8.171  21.446  0.00  0.00    +0.000 C 
BRANCH  18  19
ATOM     19  C   UNL     1       1.820   6.977  20.530  0.00  0.00    +0.000 A 
ATOM     20  N   UNL     1       1.196   5.864  20.865  0.00  0.00    +0.000 NA
ATOM     21  C   UNL     1       1.422   4.881  19.922  0.00  0.00    +0.000 A 
ATOM     22  C   UNL     1       0.989   3.544  20.015  0.00  0.00    +0.000 A 
ATOM     23  C   UNL     1       1.357   2.626  19.029  0.00  0.00    +0.000 A 
ATOM     24  C   UNL     1       2.103   3.038  17.929  0.00  0.00    +0.000 A 
ATOM     25  C   UNL     1       2.505   4.373  17.790  0.00  0.00    +0.000 A 
ATOM     26  C   UNL     1       2.173   5.275  18.815  0.00  0.00    +0.000 A 
ATOM     27  S   UNL     1       2.582   6.941  18.988  0.00  0.00    +0.000 S 
ENDBRANCH  18  19
ENDBRANCH   3  18
TORSDOF 5
ENDMDL
MODEL 7
REMARK VINA RESULT:      -7.0      2.622      3.692
REMARK  Name = 
REMARK  5 active torsions:
REMARK  status: ('A' for Active; 'I' for Inactive)
REMARK    1  A    between atoms: C_2  and  O_3
REMARK    2  A    between atoms: C_2  and  C_4
REMARK    3  A    between atoms: C_4  and  C_5
REMARK    4  A    between atoms: N_7  and  C_8
REMARK    5  A    between atoms: C_8  and  C_9
REMARK                            x       y       z     vdW  Elec       q    Type
REMARK                         _______ _______ _______ _____ _____    ______ ____
ROOT
ATOM      1  C   UNL     1       0.199  10.310  18.838  0.00  0.00    +0.000 A 
ATOM      2  N   UNL     1       1.044   9.618  18.131  0.00  0.00    +0.000 NA
ATOM      3  N   UNL     1       1.797   8.639  18.740  0.00  0.00    +0.000 N 
ATOM      4  C   UNL     1       1.755   8.355  20.097  0.00  0.00    +0.000 A 
ATOM      5  O   UNL     1       2.469   7.523  20.650  0.00  0.00    +0.000 OA
ATOM      6  C   UNL     1       0.804   9.136  20.904  0.00  0.00    +0.000 A 
ATOM      7  C   UNL     1       0.726   8.914  22.286  0.00  0.00    +0.000 A 
ATOM      8  C   UNL     1      -0.166   9.654  23.059  0.00  0.00    +0.000 A 
ATOM      9  C   UNL     1      -0.973  10.609  22.450  0.00  0.00    +0.000 A 
ATOM     10 CL   UNL     1      -2.082  11.518  23.402  0.00  0.00    +0.000 Cl
ATOM     11  C   UNL     1      -0.888  10.846  21.076  0.00  0.00    +0.000 A 
ATOM     12  C   UNL     1       0.010  10.102  20.296  0.00  0.00    +0.000 A 
ENDROOT
BRANCH   1  13
ATOM     13  C   UNL     1      -0.538  11.426  18.119  0.00  0.00    +0.000 C 
BRANCH  13  15
ATOM     14  O   UNL     1      -2.451  10.007  17.692  0.00  0.00    +0.000 OA
ATOM     15  C   UNL     1      -1.815  11.017  17.441  0.00  0.00    +0.000 C 
BRANCH  15  16
ATOM     16  O   UNL     1      -2.244  11.933  16.540  0.00  0.00    +0.000 OA
ATOM     17  H   UNL     1      -2.883  12.585  16.888  0.00  0.00    +0.000 HD
ENDBRANCH  15  16
ENDBRANCH  13  15
ENDBRANCH   1  13
BRANCH   3  18
ATOM     18  C   UNL     1       2.813   7.974  17.926  0.00  0.00    +0.000 C 
BRANCH  18  19
ATOM     19  C   UNL     1       2.892   6.479  18.082  0.00  0.00    +0.000 A 
ATOM     20  N   UNL     1       1.818   5.722  17.976  0.00  0.00    +0.000 NA
ATOM     21  C   UNL     1       2.121   4.408  18.269  0.00  0.00    +0.000 A 
ATOM     22  C   UNL     1       1.193   3.352  18.349  0.00  0.00    +0.000 A 
ATOM     23  C   UNL     1       1.620   2.080  18.739  0.00  0.00    +0.000 A 
ATOM     24  C   UNL     1       2.966   1.840  18.996  0.00  0.00    +0.000 A 
ATOM     25  C   UNL     1       3.916   2.862  18.876  0.00  0.00    +0.000 A 
ATOM     26  C   UNL     1       3.467   4.149  18.535  0.00  0.00    +0.000 A 
ATOM     27  S   UNL     1       4.352   5.621  18.390  0.00  0.00    +0.000 S 
ENDBRANCH  18  19
ENDBRANCH   3  18
TORSDOF 5
ENDMDL
MODEL 8
REMARK VINA RESULT:      -6.9      4.055      7.891
REMARK  Name = 
REMARK  5 active torsions:
REMARK  status: ('A' for Active; 'I' for Inactive)
REMARK    1  A    between atoms: C_2  and  O_3
REMARK    2  A    between atoms: C_2  and  C_4
REMARK    3  A    between atoms: C_4  and  C_5
REMARK    4  A    between atoms: N_7  and  C_8
REMARK    5  A    between atoms: C_8  and  C_9
REMARK                            x       y       z     vdW  Elec       q    Type
REMARK                         _______ _______ _______ _____ _____    ______ ____
ROOT
ATOM      1  C   UNL     1       3.293   7.106  17.908  0.00  0.00    +0.000 A 
ATOM      2  N   UNL     1       2.913   8.343  18.037  0.00  0.00    +0.000 NA
ATOM      3  N   UNL     1       2.133   8.706  19.112  0.00  0.00    +0.000 N 
ATOM      4  C   UNL     1       1.669   7.818  20.073  0.00  0.00    +0.000 A 
ATOM      5  O   UNL     1       0.925   8.131  20.998  0.00  0.00    +0.000 OA
ATOM      6  C   UNL     1       2.092   6.415  19.932  0.00  0.00    +0.000 A 
ATOM      7  C   UNL     1       1.641   5.463  20.856  0.00  0.00    +0.000 A 
ATOM      8  C   UNL     1       2.028   4.131  20.726  0.00  0.00    +0.000 A 
ATOM      9  C   UNL     1       2.862   3.759  19.676  0.00  0.00    +0.000 A 
ATOM     10 CL   UNL     1       3.349   2.116  19.519  0.00  0.00    +0.000 Cl
ATOM     11  C   UNL     1       3.300   4.701  18.743  0.00  0.00    +0.000 A 
ATOM     12  C   UNL     1       2.911   6.042  18.872  0.00  0.00    +0.000 A 
ENDROOT
BRANCH   1  13
ATOM     13  C   UNL     1       4.083   6.761  16.659  0.00  0.00    +0.000 C 
BRANCH  13  15
ATOM     14  O   UNL     1       6.161   6.874  17.892  0.00  0.00    +0.000 OA
ATOM     15  C   UNL     1       5.574   6.719  16.834  0.00  0.00    +0.000 C 
BRANCH  15  16
ATOM     16  O   UNL     1       6.228   6.422  15.686  0.00  0.00    +0.000 OA
ATOM     17  H   UNL     1       6.843   7.112  15.371  0.00  0.00    +0.000 HD
ENDBRANCH  15  16
ENDBRANCH  13  15
ENDBRANCH   1  13
BRANCH   3  18
ATOM     18  C   UNL     1       1.639  10.081  19.146  0.00  0.00    +0.000 C 
BRANCH  18  19
ATOM     19  C   UNL     1       0.203  10.264  18.736  0.00  0.00    +0.000 A 
ATOM     20  N   UNL     1      -0.269   9.718  17.632  0.00  0.00    +0.000 NA
ATOM     21  C   UNL     1      -1.571  10.119  17.412  0.00  0.00    +0.000 A 
ATOM     22  C   UNL     1      -2.344   9.804  16.276  0.00  0.00    +0.000 A 
ATOM     23  C   UNL     1      -3.624  10.344  16.137  0.00  0.00    +0.000 A 
ATOM     24  C   UNL     1      -4.160  11.148  17.138  0.00  0.00    +0.000 A 
ATOM     25  C   UNL     1      -3.431  11.436  18.299  0.00  0.00    +0.000 A 
ATOM     26  C   UNL     1      -2.124  10.930  18.404  0.00  0.00    +0.000 A 
ATOM     27  S   UNL     1      -0.949  11.166  19.643  0.00  0.00    +0.000 S 
ENDBRANCH  18  19
ENDBRANCH   3  18
TORSDOF 5
ENDMDL
MODEL 9
REMARK VINA RESULT:      -6.9      4.402      7.575
REMARK  Name = 
REMARK  5 active torsions:
REMARK  status: ('A' for Active; 'I' for Inactive)
REMARK    1  A    between atoms: C_2  and  O_3
REMARK    2  A    between atoms: C_2  and  C_4
REMARK    3  A    between atoms: C_4  and  C_5
REMARK    4  A    between atoms: N_7  and  C_8
REMARK    5  A    between atoms: C_8  and  C_9
REMARK                            x       y       z     vdW  Elec       q    Type
REMARK                         _______ _______ _______ _____ _____    ______ ____
ROOT
ATOM      1  C   UNL     1       0.262   9.133  20.819  0.00  0.00    +0.000 A 
ATOM      2  N   UNL     1       0.070  10.314  20.309  0.00  0.00    +0.000 NA
ATOM      3  N   UNL     1       0.696  10.656  19.131  0.00  0.00    +0.000 N 
ATOM      4  C   UNL     1       1.578   9.829  18.450  0.00  0.00    +0.000 A 
ATOM      5  O   UNL     1       2.182  10.156  17.431  0.00  0.00    +0.000 OA
ATOM      6  C   UNL     1       1.804   8.493  19.023  0.00  0.00    +0.000 A 
ATOM      7  C   UNL     1       2.699   7.616  18.395  0.00  0.00    +0.000 A 
ATOM      8  C   UNL     1       2.926   6.351  18.934  0.00  0.00    +0.000 A 
ATOM      9  C   UNL     1       2.259   5.970  20.094  0.00  0.00    +0.000 A 
ATOM     10 CL   UNL     1       2.530   4.406  20.757  0.00  0.00    +0.000 Cl
ATOM     11  C   UNL     1       1.378   6.847  20.732  0.00  0.00    +0.000 A 
ATOM     12  C   UNL     1       1.149   8.120  20.191  0.00  0.00    +0.000 A 
ENDROOT
BRANCH   1  13
ATOM     13  C   UNL     1      -0.395   8.853  22.159  0.00  0.00    +0.000 C 
BRANCH  13  15
ATOM     14  O   UNL     1       0.752   9.493  24.190  0.00  0.00    +0.000 OA
ATOM     15  C   UNL     1       0.001   9.779  23.273  0.00  0.00    +0.000 C 
BRANCH  15  16
ATOM     16  O   UNL     1      -0.517  11.022  23.128  0.00  0.00    +0.000 OA
ATOM     17  H   UNL     1       0.008  11.626  22.567  0.00  0.00    +0.000 HD
ENDBRANCH  15  16
ENDBRANCH  13  15
ENDBRANCH   1  13
BRANCH   3  18
ATOM     18  C   UNL     1       0.538  12.032  18.665  0.00  0.00    +0.000 C 
BRANCH  18  19
ATOM     19  C   UNL     1       1.665  12.967  19.011  0.00  0.00    +0.000 A 
ATOM     20  N   UNL     1       2.411  13.516  18.072  0.00  0.00    +0.000 NA
ATOM     21  C   UNL     1       3.444  14.239  18.636  0.00  0.00    +0.000 A 
ATOM     22  C   UNL     1       4.483  14.870  17.925  0.00  0.00    +0.000 A 
ATOM     23  C   UNL     1       5.516  15.501  18.622  0.00  0.00    +0.000 A 
ATOM     24  C   UNL     1       5.495  15.554  20.013  0.00  0.00    +0.000 A 
ATOM     25  C   UNL     1       4.447  14.976  20.740  0.00  0.00    +0.000 A 
ATOM     26  C   UNL     1       3.441  14.299  20.030  0.00  0.00    +0.000 A 
ATOM     27  S   UNL     1       2.080  13.421  20.618  0.00  0.00    +0.000 S 
ENDBRANCH  18  19
ENDBRANCH   3  18
TORSDOF 5
ENDMDL
