MODEL 1
REMARK VINA RESULT:      -6.4      0.000      0.000
REMARK  Name = 
REMARK  8 active torsions:
REMARK  status: ('A' for Active; 'I' for Inactive)
REMARK    1  A    between atoms: C_1  and  C_2
REMARK    2  A    between atoms: C_2  and  C_3
REMARK    3  A    between atoms: C_3  and  S_4
REMARK    4  A    between atoms: S_4  and  C_5
REMARK    5  A    between atoms: C_5  and  C_7
REMARK    6  A    between atoms: C_8  and  C_9
REMARK    7  A    between atoms: N_11  and  C_12
REMARK    8  A    between atoms: C_19  and  O_20
REMARK                            x       y       z     vdW  Elec       q    Type
REMARK                         _______ _______ _______ _____ _____    ______ ____
ROOT
ATOM      1  C   UNL     1       4.872   4.965  16.694  0.00  0.00    +0.000 A 
ATOM      2  C   UNL     1       4.125   6.109  17.151  0.00  0.00    +0.000 A 
ATOM      3  C   UNL     1       4.258   7.557  16.829  0.00  0.00    +0.000 C 
ATOM      4  N   UNL     1       3.165   5.772  18.018  0.00  0.00    +0.000 NA
ATOM      5  N   UNL     1       3.387   4.471  18.296  0.00  0.00    +0.000 N 
ATOM      6  C   UNL     1       4.345   3.925  17.455  0.00  0.00    +0.000 A 
ENDROOT
BRANCH   5   7
ATOM      7  C   UNL     1       2.696   3.841  19.368  0.00  0.00    +0.000 A 
ATOM      8  C   UNL     1       1.292   3.820  19.369  0.00  0.00    +0.000 A 
ATOM      9  C   UNL     1       0.607   3.224  20.428  0.00  0.00    +0.000 A 
ATOM     10  C   UNL     1       1.321   2.685  21.493  0.00  0.00    +0.000 A 
ATOM     11  F   UNL     1       0.661   2.147  22.528  0.00  0.00    +0.000 F 
ATOM     12  C   UNL     1       2.711   2.709  21.511  0.00  0.00    +0.000 A 
ATOM     13  C   UNL     1       3.406   3.281  20.443  0.00  0.00    +0.000 A 
ENDBRANCH   5   7
BRANCH   1  14
ATOM     14  C   UNL     1       5.899   4.820  15.662  0.00  0.00    +0.000 C 
ATOM     15  S   UNL     1       5.516   4.092  14.206  0.00  0.00    +0.000 S 
BRANCH  14  16
ATOM     16  S   UNL     1       7.554   5.231  16.098  0.00  0.00    +0.000 S 
BRANCH  16  17
ATOM     17  C   UNL     1       7.619   4.785  17.849  0.00  0.00    +0.000 C 
BRANCH  17  19
ATOM     18  C   UNL     1       7.731   7.305  17.771  0.00  0.00    +0.000 C 
ATOM     19  C   UNL     1       7.765   6.074  18.661  0.00  0.00    +0.000 C 
ENDBRANCH  17  19
ENDBRANCH  16  17
ENDBRANCH  14  16
ENDBRANCH   1  14
BRANCH   6  20
ATOM     20  O   UNL     1       4.608   2.617  17.394  0.00  0.00    +0.000 OA
ATOM     21  H   UNL     1       3.787   2.102  17.467  0.00  0.00    +0.000 HD
ENDBRANCH   6  20
TORSDOF 6
ENDMDL
MODEL 2
REMARK VINA RESULT:      -6.2      3.401      4.867
REMARK  Name = 
REMARK  8 active torsions:
REMARK  status: ('A' for Active; 'I' for Inactive)
REMARK    1  A    between atoms: C_1  and  C_2
REMARK    2  A    between atoms: C_2  and  C_3
REMARK    3  A    between atoms: C_3  and  S_4
REMARK    4  A    between atoms: S_4  and  C_5
REMARK    5  A    between atoms: C_5  and  C_7
REMARK    6  A    between atoms: C_8  and  C_9
REMARK    7  A    between atoms: N_11  and  C_12
REMARK    8  A    between atoms: C_19  and  O_20
REMARK                            x       y       z     vdW  Elec       q    Type
REMARK                         _______ _______ _______ _____ _____    ______ ____
ROOT
ATOM      1  C   UNL     1       4.529   5.012  17.106  0.00  0.00    +0.000 A 
ATOM      2  C   UNL     1       3.361   4.318  17.584  0.00  0.00    +0.000 A 
ATOM      3  C   UNL     1       2.898   2.919  17.371  0.00  0.00    +0.000 C 
ATOM      4  N   UNL     1       2.579   5.103  18.334  0.00  0.00    +0.000 NA
ATOM      5  N   UNL     1       3.095   6.341  18.198  0.00  0.00    +0.000 N 
ATOM      6  C   UNL     1       4.318   6.317  17.544  0.00  0.00    +0.000 A 
ENDROOT
BRANCH   5   7
ATOM      7  C   UNL     1       2.373   7.472  18.671  0.00  0.00    +0.000 A 
ATOM      8  C   UNL     1       2.004   7.541  20.024  0.00  0.00    +0.000 A 
ATOM      9  C   UNL     1       1.276   8.636  20.490  0.00  0.00    +0.000 A 
ATOM     10  C   UNL     1       0.892   9.635  19.603  0.00  0.00    +0.000 A 
ATOM     11  F   UNL     1       0.159  10.667  20.045  0.00  0.00    +0.000 F 
ATOM     12  C   UNL     1       1.240   9.574  18.259  0.00  0.00    +0.000 A 
ATOM     13  C   UNL     1       1.991   8.495  17.787  0.00  0.00    +0.000 A 
ENDBRANCH   5   7
BRANCH   1  14
ATOM     14  C   UNL     1       5.715   4.546  16.387  0.00  0.00    +0.000 C 
ATOM     15  S   UNL     1       7.216   4.626  17.120  0.00  0.00    +0.000 S 
BRANCH  14  16
ATOM     16  S   UNL     1       5.522   4.118  14.691  0.00  0.00    +0.000 S 
BRANCH  16  17
ATOM     17  C   UNL     1       7.061   4.725  13.958  0.00  0.00    +0.000 C 
BRANCH  17  19
ATOM     18  C   UNL     1       5.986   3.292  12.179  0.00  0.00    +0.000 C 
ATOM     19  C   UNL     1       7.090   4.289  12.492  0.00  0.00    +0.000 C 
ENDBRANCH  17  19
ENDBRANCH  16  17
ENDBRANCH  14  16
ENDBRANCH   1  14
BRANCH   6  20
ATOM     20  O   UNL     1       5.123   7.379  17.453  0.00  0.00    +0.000 OA
ATOM     21  H   UNL     1       6.054   7.104  17.491  0.00  0.00    +0.000 HD
ENDBRANCH   6  20
TORSDOF 6
ENDMDL
MODEL 3
REMARK VINA RESULT:      -6.2      3.344      4.791
REMARK  Name = 
REMARK  8 active torsions:
REMARK  status: ('A' for Active; 'I' for Inactive)
REMARK    1  A    between atoms: C_1  and  C_2
REMARK    2  A    between atoms: C_2  and  C_3
REMARK    3  A    between atoms: C_3  and  S_4
REMARK    4  A    between atoms: S_4  and  C_5
REMARK    5  A    between atoms: C_5  and  C_7
REMARK    6  A    between atoms: C_8  and  C_9
REMARK    7  A    between atoms: N_11  and  C_12
REMARK    8  A    between atoms: C_19  and  O_20
REMARK                            x       y       z     vdW  Elec       q    Type
REMARK                         _______ _______ _______ _____ _____    ______ ____
ROOT
ATOM      1  C   UNL     1       4.687   4.849  17.286  0.00  0.00    +0.000 A 
ATOM      2  C   UNL     1       3.537   4.146  17.793  0.00  0.00    +0.000 A 
ATOM      3  C   UNL     1       3.125   2.720  17.664  0.00  0.00    +0.000 C 
ATOM      4  N   UNL     1       2.718   4.949  18.480  0.00  0.00    +0.000 NA
ATOM      5  N   UNL     1       3.193   6.194  18.272  0.00  0.00    +0.000 N 
ATOM      6  C   UNL     1       4.426   6.170  17.636  0.00  0.00    +0.000 A 
ENDROOT
BRANCH   5   7
ATOM      7  C   UNL     1       2.426   7.326  18.663  0.00  0.00    +0.000 A 
ATOM      8  C   UNL     1       2.109   8.309  17.711  0.00  0.00    +0.000 A 
ATOM      9  C   UNL     1       1.376   9.433  18.092  0.00  0.00    +0.000 A 
ATOM     10  C   UNL     1       0.996   9.589  19.421  0.00  0.00    +0.000 A 
ATOM     11  F   UNL     1       0.326  10.689  19.792  0.00  0.00    +0.000 F 
ATOM     12  C   UNL     1       1.313   8.630  20.375  0.00  0.00    +0.000 A 
ATOM     13  C   UNL     1       2.024   7.489  19.999  0.00  0.00    +0.000 A 
ENDBRANCH   5   7
BRANCH   1  14
ATOM     14  C   UNL     1       5.899   4.379  16.612  0.00  0.00    +0.000 C 
ATOM     15  S   UNL     1       7.393   4.622  17.326  0.00  0.00    +0.000 S 
BRANCH  14  16
ATOM     16  S   UNL     1       5.733   3.766  14.971  0.00  0.00    +0.000 S 
BRANCH  16  17
ATOM     17  C   UNL     1       6.896   4.800  14.049  0.00  0.00    +0.000 C 
BRANCH  17  19
ATOM     18  C   UNL     1       5.856   3.324  12.286  0.00  0.00    +0.000 C 
ATOM     19  C   UNL     1       7.033   4.216  12.641  0.00  0.00    +0.000 C 
ENDBRANCH  17  19
ENDBRANCH  16  17
ENDBRANCH  14  16
ENDBRANCH   1  14
BRANCH   6  20
ATOM     20  O   UNL     1       5.195   7.253  17.487  0.00  0.00    +0.000 OA
ATOM     21  H   UNL     1       4.771   7.890  16.887  0.00  0.00    +0.000 HD
ENDBRANCH   6  20
TORSDOF 6
ENDMDL
MODEL 4
REMARK VINA RESULT:      -6.1      5.742      7.470
REMARK  Name = 
REMARK  8 active torsions:
REMARK  status: ('A' for Active; 'I' for Inactive)
REMARK    1  A    between atoms: C_1  and  C_2
REMARK    2  A    between atoms: C_2  and  C_3
REMARK    3  A    between atoms: C_3  and  S_4
REMARK    4  A    between atoms: S_4  and  C_5
REMARK    5  A    between atoms: C_5  and  C_7
REMARK    6  A    between atoms: C_8  and  C_9
REMARK    7  A    between atoms: N_11  and  C_12
REMARK    8  A    between atoms: C_19  and  O_20
REMARK                            x       y       z     vdW  Elec       q    Type
REMARK                         _______ _______ _______ _____ _____    ______ ____
ROOT
ATOM      1  C   UNL     1       1.117   9.869  19.663  0.00  0.00    +0.000 A 
ATOM      2  C   UNL     1       1.237   8.941  20.758  0.00  0.00    +0.000 A 
ATOM      3  C   UNL     1       0.974   9.107  22.215  0.00  0.00    +0.000 C 
ATOM      4  N   UNL     1       1.673   7.742  20.358  0.00  0.00    +0.000 NA
ATOM      5  N   UNL     1       2.031   7.912  19.069  0.00  0.00    +0.000 N 
ATOM      6  C   UNL     1       1.629   9.149  18.587  0.00  0.00    +0.000 A 
ENDROOT
BRANCH   5   7
ATOM      7  C   UNL     1       2.762   6.898  18.391  0.00  0.00    +0.000 A 
ATOM      8  C   UNL     1       3.922   7.241  17.678  0.00  0.00    +0.000 A 
ATOM      9  C   UNL     1       4.631   6.256  16.991  0.00  0.00    +0.000 A 
ATOM     10  C   UNL     1       4.163   4.946  16.989  0.00  0.00    +0.000 A 
ATOM     11  F   UNL     1       4.825   4.008  16.296  0.00  0.00    +0.000 F 
ATOM     12  C   UNL     1       3.010   4.595  17.681  0.00  0.00    +0.000 A 
ATOM     13  C   UNL     1       2.307   5.569  18.393  0.00  0.00    +0.000 A 
ENDBRANCH   5   7
BRANCH   1  14
ATOM     14  C   UNL     1       0.561  11.221  19.586  0.00  0.00    +0.000 C 
ATOM     15  S   UNL     1       1.587  12.541  19.584  0.00  0.00    +0.000 S 
BRANCH  14  16
ATOM     16  S   UNL     1      -1.185  11.391  19.714  0.00  0.00    +0.000 S 
BRANCH  16  17
ATOM     17  C   UNL     1      -1.698  11.472  17.982  0.00  0.00    +0.000 C 
BRANCH  17  19
ATOM     18  C   UNL     1      -2.577  10.034  16.103  0.00  0.00    +0.000 C 
ATOM     19  C   UNL     1      -2.025  10.051  17.518  0.00  0.00    +0.000 C 
ENDBRANCH  17  19
ENDBRANCH  16  17
ENDBRANCH  14  16
ENDBRANCH   1  14
BRANCH   6  20
ATOM     20  O   UNL     1       1.690   9.488  17.296  0.00  0.00    +0.000 OA
ATOM     21  H   UNL     1       2.074   8.764  16.773  0.00  0.00    +0.000 HD
ENDBRANCH   6  20
TORSDOF 6
ENDMDL
MODEL 5
REMARK VINA RESULT:      -6.0      4.171      7.050
REMARK  Name = 
REMARK  8 active torsions:
REMARK  status: ('A' for Active; 'I' for Inactive)
REMARK    1  A    between atoms: C_1  and  C_2
REMARK    2  A    between atoms: C_2  and  C_3
REMARK    3  A    between atoms: C_3  and  S_4
REMARK    4  A    between atoms: S_4  and  C_5
REMARK    5  A    between atoms: C_5  and  C_7
REMARK    6  A    between atoms: C_8  and  C_9
REMARK    7  A    between atoms: N_11  and  C_12
REMARK    8  A    between atoms: C_19  and  O_20
REMARK                            x       y       z     vdW  Elec       q    Type
REMARK                         _______ _______ _______ _____ _____    ______ ____
ROOT
ATOM      1  C   UNL     1       5.545   4.399  18.241  0.00  0.00    +0.000 A 
ATOM      2  C   UNL     1       6.874   4.955  18.275  0.00  0.00    +0.000 A 
ATOM      3  C   UNL     1       7.637   5.601  19.379  0.00  0.00    +0.000 C 
ATOM      4  N   UNL     1       7.488   4.867  17.090  0.00  0.00    +0.000 NA
ATOM      5  N   UNL     1       6.534   4.453  16.232  0.00  0.00    +0.000 N 
ATOM      6  C   UNL     1       5.377   4.073  16.898  0.00  0.00    +0.000 A 
ENDROOT
BRANCH   5   7
ATOM      7  C   UNL     1       6.774   4.476  14.830  0.00  0.00    +0.000 A 
ATOM      8  C   UNL     1       7.706   5.385  14.303  0.00  0.00    +0.000 A 
ATOM      9  C   UNL     1       7.930   5.429  12.927  0.00  0.00    +0.000 A 
ATOM     10  C   UNL     1       7.202   4.596  12.084  0.00  0.00    +0.000 A 
ATOM     11  F   UNL     1       7.390   4.668  10.759  0.00  0.00    +0.000 F 
ATOM     12  C   UNL     1       6.268   3.701  12.591  0.00  0.00    +0.000 A 
ATOM     13  C   UNL     1       6.055   3.631  13.969  0.00  0.00    +0.000 A 
ENDBRANCH   5   7
BRANCH   1  14
ATOM     14  C   UNL     1       4.566   4.146  19.299  0.00  0.00    +0.000 C 
ATOM     15  S   UNL     1       4.428   2.614  19.954  0.00  0.00    +0.000 S 
BRANCH  14  16
ATOM     16  S   UNL     1       3.428   5.434  19.679  0.00  0.00    +0.000 S 
BRANCH  16  17
ATOM     17  C   UNL     1       2.360   4.658  20.915  0.00  0.00    +0.000 C 
BRANCH  17  19
ATOM     18  C   UNL     1       0.845   2.980  19.793  0.00  0.00    +0.000 C 
ATOM     19  C   UNL     1       0.993   4.414  20.272  0.00  0.00    +0.000 C 
ENDBRANCH  17  19
ENDBRANCH  16  17
ENDBRANCH  14  16
ENDBRANCH   1  14
BRANCH   6  20
ATOM     20  O   UNL     1       4.359   3.448  16.301  0.00  0.00    +0.000 OA
ATOM     21  H   UNL     1       4.666   2.981  15.506  0.00  0.00    +0.000 HD
ENDBRANCH   6  20
TORSDOF 6
ENDMDL
MODEL 6
REMARK VINA RESULT:      -6.0      4.173      6.941
REMARK  Name = 
REMARK  8 active torsions:
REMARK  status: ('A' for Active; 'I' for Inactive)
REMARK    1  A    between atoms: C_1  and  C_2
REMARK    2  A    between atoms: C_2  and  C_3
REMARK    3  A    between atoms: C_3  and  S_4
REMARK    4  A    between atoms: S_4  and  C_5
REMARK    5  A    between atoms: C_5  and  C_7
REMARK    6  A    between atoms: C_8  and  C_9
REMARK    7  A    between atoms: N_11  and  C_12
REMARK    8  A    between atoms: C_19  and  O_20
REMARK                            x       y       z     vdW  Elec       q    Type
REMARK                         _______ _______ _______ _____ _____    ______ ____
ROOT
ATOM      1  C   UNL     1       5.555   4.389  18.219  0.00  0.00    +0.000 A 
ATOM      2  C   UNL     1       6.877   4.960  18.237  0.00  0.00    +0.000 A 
ATOM      3  C   UNL     1       7.650   5.605  19.334  0.00  0.00    +0.000 C 
ATOM      4  N   UNL     1       7.473   4.890  17.042  0.00  0.00    +0.000 NA
ATOM      5  N   UNL     1       6.511   4.471  16.195  0.00  0.00    +0.000 N 
ATOM      6  C   UNL     1       5.370   4.072  16.876  0.00  0.00    +0.000 A 
ENDROOT
BRANCH   5   7
ATOM      7  C   UNL     1       6.729   4.510  14.790  0.00  0.00    +0.000 A 
ATOM      8  C   UNL     1       6.036   3.616  13.957  0.00  0.00    +0.000 A 
ATOM      9  C   UNL     1       6.261   3.634  12.581  0.00  0.00    +0.000 A 
ATOM     10  C   UNL     1       7.197   4.513  12.047  0.00  0.00    +0.000 A 
ATOM     11  F   UNL     1       7.441   4.501  10.729  0.00  0.00    +0.000 F 
ATOM     12  C   UNL     1       7.898   5.395  12.861  0.00  0.00    +0.000 A 
ATOM     13  C   UNL     1       7.661   5.403  14.237  0.00  0.00    +0.000 A 
ENDBRANCH   5   7
BRANCH   1  14
ATOM     14  C   UNL     1       4.595   4.115  19.290  0.00  0.00    +0.000 C 
ATOM     15  S   UNL     1       4.515   2.586  19.962  0.00  0.00    +0.000 S 
BRANCH  14  16
ATOM     16  S   UNL     1       3.420   5.369  19.669  0.00  0.00    +0.000 S 
BRANCH  16  17
ATOM     17  C   UNL     1       2.212   5.187  18.335  0.00  0.00    +0.000 C 
BRANCH  17  19
ATOM     18  C   UNL     1       0.962   3.955  20.150  0.00  0.00    +0.000 C 
ATOM     19  C   UNL     1       1.313   3.995  18.672  0.00  0.00    +0.000 C 
ENDBRANCH  17  19
ENDBRANCH  16  17
ENDBRANCH  14  16
ENDBRANCH   1  14
BRANCH   6  20
ATOM     20  O   UNL     1       4.349   3.441  16.289  0.00  0.00    +0.000 OA
ATOM     21  H   UNL     1       3.519   3.925  16.438  0.00  0.00    +0.000 HD
ENDBRANCH   6  20
TORSDOF 6
ENDMDL
MODEL 7
REMARK VINA RESULT:      -5.9      4.268      6.758
REMARK  Name = 
REMARK  8 active torsions:
REMARK  status: ('A' for Active; 'I' for Inactive)
REMARK    1  A    between atoms: C_1  and  C_2
REMARK    2  A    between atoms: C_2  and  C_3
REMARK    3  A    between atoms: C_3  and  S_4
REMARK    4  A    between atoms: S_4  and  C_5
REMARK    5  A    between atoms: C_5  and  C_7
REMARK    6  A    between atoms: C_8  and  C_9
REMARK    7  A    between atoms: N_11  and  C_12
REMARK    8  A    between atoms: C_19  and  O_20
REMARK                            x       y       z     vdW  Elec       q    Type
REMARK                         _______ _______ _______ _____ _____    ______ ____
ROOT
ATOM      1  C   UNL     1       5.469   4.496  18.205  0.00  0.00    +0.000 A 
ATOM      2  C   UNL     1       6.811   5.015  18.249  0.00  0.00    +0.000 A 
ATOM      3  C   UNL     1       7.577   5.657  19.353  0.00  0.00    +0.000 C 
ATOM      4  N   UNL     1       7.438   4.892  17.074  0.00  0.00    +0.000 NA
ATOM      5  N   UNL     1       6.485   4.490  16.209  0.00  0.00    +0.000 N 
ATOM      6  C   UNL     1       5.310   4.153  16.866  0.00  0.00    +0.000 A 
ENDROOT
BRANCH   5   7
ATOM      7  C   UNL     1       6.744   4.485  14.811  0.00  0.00    +0.000 A 
ATOM      8  C   UNL     1       7.692   5.374  14.280  0.00  0.00    +0.000 A 
ATOM      9  C   UNL     1       7.935   5.390  12.906  0.00  0.00    +0.000 A 
ATOM     10  C   UNL     1       7.210   4.550  12.069  0.00  0.00    +0.000 A 
ATOM     11  F   UNL     1       7.417   4.595  10.745  0.00  0.00    +0.000 F 
ATOM     12  C   UNL     1       6.260   3.673  12.580  0.00  0.00    +0.000 A 
ATOM     13  C   UNL     1       6.028   3.631  13.956  0.00  0.00    +0.000 A 
ENDBRANCH   5   7
BRANCH   1  14
ATOM     14  C   UNL     1       4.469   4.287  19.254  0.00  0.00    +0.000 C 
ATOM     15  S   UNL     1       4.160   2.740  19.810  0.00  0.00    +0.000 S 
BRANCH  14  16
ATOM     16  S   UNL     1       3.484   5.666  19.725  0.00  0.00    +0.000 S 
BRANCH  16  17
ATOM     17  C   UNL     1       2.714   6.149  18.161  0.00  0.00    +0.000 C 
BRANCH  17  19
ATOM     18  C   UNL     1       2.237   8.596  17.766  0.00  0.00    +0.000 C 
ATOM     19  C   UNL     1       3.293   7.504  17.748  0.00  0.00    +0.000 C 
ENDBRANCH  17  19
ENDBRANCH  16  17
ENDBRANCH  14  16
ENDBRANCH   1  14
BRANCH   6  20
ATOM     20  O   UNL     1       4.282   3.547  16.264  0.00  0.00    +0.000 OA
ATOM     21  H   UNL     1       3.456   3.720  16.747  0.00  0.00    +0.000 HD
ENDBRANCH   6  20
TORSDOF 6
ENDMDL
MODEL 8
REMARK VINA RESULT:      -5.9      3.297      4.214
REMARK  Name = 
REMARK  8 active torsions:
REMARK  status: ('A' for Active; 'I' for Inactive)
REMARK    1  A    between atoms: C_1  and  C_2
REMARK    2  A    between atoms: C_2  and  C_3
REMARK    3  A    between atoms: C_3  and  S_4
REMARK    4  A    between atoms: S_4  and  C_5
REMARK    5  A    between atoms: C_5  and  C_7
REMARK    6  A    between atoms: C_8  and  C_9
REMARK    7  A    between atoms: N_11  and  C_12
REMARK    8  A    between atoms: C_19  and  O_20
REMARK                            x       y       z     vdW  Elec       q    Type
REMARK                         _______ _______ _______ _____ _____    ______ ____
ROOT
ATOM      1  C   UNL     1       4.599   5.280  17.268  0.00  0.00    +0.000 A 
ATOM      2  C   UNL     1       3.634   4.499  18.000  0.00  0.00    +0.000 A 
ATOM      3  C   UNL     1       3.401   3.029  18.051  0.00  0.00    +0.000 C 
ATOM      4  N   UNL     1       2.821   5.264  18.737  0.00  0.00    +0.000 NA
ATOM      5  N   UNL     1       3.093   6.529  18.358  0.00  0.00    +0.000 N 
ATOM      6  C   UNL     1       4.216   6.589  17.546  0.00  0.00    +0.000 A 
ENDROOT
BRANCH   5   7
ATOM      7  C   UNL     1       2.246   7.596  18.768  0.00  0.00    +0.000 A 
ATOM      8  C   UNL     1       1.807   8.535  17.820  0.00  0.00    +0.000 A 
ATOM      9  C   UNL     1       0.994   9.596  18.219  0.00  0.00    +0.000 A 
ATOM     10  C   UNL     1       0.653   9.735  19.560  0.00  0.00    +0.000 A 
ATOM     11  F   UNL     1      -0.095  10.777  19.948  0.00  0.00    +0.000 F 
ATOM     12  C   UNL     1       1.090   8.819  20.511  0.00  0.00    +0.000 A 
ATOM     13  C   UNL     1       1.882   7.739  20.117  0.00  0.00    +0.000 A 
ENDBRANCH   5   7
BRANCH   1  14
ATOM     14  C   UNL     1       5.755   4.893  16.458  0.00  0.00    +0.000 C 
ATOM     15  S   UNL     1       5.557   4.568  14.829  0.00  0.00    +0.000 S 
BRANCH  14  16
ATOM     16  S   UNL     1       7.269   4.581  17.299  0.00  0.00    +0.000 S 
BRANCH  16  17
ATOM     17  C   UNL     1       7.084   5.558  18.810  0.00  0.00    +0.000 C 
BRANCH  17  19
ATOM     18  C   UNL     1       7.849   7.681  17.679  0.00  0.00    +0.000 C 
ATOM     19  C   UNL     1       8.131   6.675  18.782  0.00  0.00    +0.000 C 
ENDBRANCH  17  19
ENDBRANCH  16  17
ENDBRANCH  14  16
ENDBRANCH   1  14
BRANCH   6  20
ATOM     20  O   UNL     1       4.806   7.735  17.194  0.00  0.00    +0.000 OA
ATOM     21  H   UNL     1       5.569   7.561  16.617  0.00  0.00    +0.000 HD
ENDBRANCH   6  20
TORSDOF 6
ENDMDL
MODEL 9
REMARK VINA RESULT:      -5.9      1.571      3.092
REMARK  Name = 
REMARK  8 active torsions:
REMARK  status: ('A' for Active; 'I' for Inactive)
REMARK    1  A    between atoms: C_1  and  C_2
REMARK    2  A    between atoms: C_2  and  C_3
REMARK    3  A    between atoms: C_3  and  S_4
REMARK    4  A    between atoms: S_4  and  C_5
REMARK    5  A    between atoms: C_5  and  C_7
REMARK    6  A    between atoms: C_8  and  C_9
REMARK    7  A    between atoms: N_11  and  C_12
REMARK    8  A    between atoms: C_19  and  O_20
REMARK                            x       y       z     vdW  Elec       q    Type
REMARK                         _______ _______ _______ _____ _____    ______ ____
ROOT
ATOM      1  C   UNL     1       4.913   4.717  16.657  0.00  0.00    +0.000 A 
ATOM      2  C   UNL     1       4.315   5.939  17.132  0.00  0.00    +0.000 A 
ATOM      3  C   UNL     1       4.597   7.362  16.796  0.00  0.00    +0.000 C 
ATOM      4  N   UNL     1       3.356   5.712  18.036  0.00  0.00    +0.000 NA
ATOM      5  N   UNL     1       3.442   4.396  18.315  0.00  0.00    +0.000 N 
ATOM      6  C   UNL     1       4.302   3.744  17.443  0.00  0.00    +0.000 A 
ENDROOT
BRANCH   5   7
ATOM      7  C   UNL     1       2.725   3.850  19.415  0.00  0.00    +0.000 A 
ATOM      8  C   UNL     1       3.429   3.243  20.468  0.00  0.00    +0.000 A 
ATOM      9  C   UNL     1       2.731   2.686  21.540  0.00  0.00    +0.000 A 
ATOM     10  C   UNL     1       1.340   2.704  21.539  0.00  0.00    +0.000 A 
ATOM     11  F   UNL     1       0.671   2.133  22.550  0.00  0.00    +0.000 F 
ATOM     12  C   UNL     1       0.630   3.290  20.498  0.00  0.00    +0.000 A 
ATOM     13  C   UNL     1       1.320   3.874  19.433  0.00  0.00    +0.000 A 
ENDBRANCH   5   7
BRANCH   1  14
ATOM     14  C   UNL     1       5.880   4.455  15.590  0.00  0.00    +0.000 C 
ATOM     15  S   UNL     1       7.494   4.828  15.821  0.00  0.00    +0.000 S 
BRANCH  14  16
ATOM     16  S   UNL     1       5.249   3.952  14.026  0.00  0.00    +0.000 S 
BRANCH  16  17
ATOM     17  C   UNL     1       6.697   4.106  12.954  0.00  0.00    +0.000 C 
BRANCH  17  19
ATOM     18  C   UNL     1       5.104   2.706  11.584  0.00  0.00    +0.000 C 
ATOM     19  C   UNL     1       6.556   3.086  11.821  0.00  0.00    +0.000 C 
ENDBRANCH  17  19
ENDBRANCH  16  17
ENDBRANCH  14  16
ENDBRANCH   1  14
BRANCH   6  20
ATOM     20  O   UNL     1       4.416   2.414  17.382  0.00  0.00    +0.000 OA
ATOM     21  H   UNL     1       5.343   2.159  17.243  0.00  0.00    +0.000 HD
ENDBRANCH   6  20
TORSDOF 6
ENDMDL
