MODEL 1
REMARK VINA RESULT:      -6.7      0.000      0.000
REMARK  Name = 
REMARK  8 active torsions:
REMARK  status: ('A' for Active; 'I' for Inactive)
REMARK    1  A    between atoms: N_1  and  C_2
REMARK    2  A    between atoms: C_2  and  C_3
REMARK    3  A    between atoms: C_2  and  C_5
REMARK    4  A    between atoms: C_3  and  S_4
REMARK    5  A    between atoms: C_5  and  N_6
REMARK    6  A    between atoms: N_6  and  C_7
REMARK    7  A    between atoms: C_11  and  O_12
REMARK    8  A    between atoms: O_12  and  C_13
REMARK                            x       y       z     vdW  Elec       q    Type
REMARK                         _______ _______ _______ _____ _____    ______ ____
ROOT
ATOM      1  C   UNL     1       5.399   4.617  18.502  0.00  0.00    +0.000 A 
ATOM      2  C   UNL     1       4.467   5.664  18.455  0.00  0.00    +0.000 A 
ATOM      3  C   UNL     1       4.575   6.694  17.517  0.00  0.00    +0.000 A 
ATOM      4  C   UNL     1       5.582   6.654  16.557  0.00  0.00    +0.000 A 
ATOM      5  C   UNL     1       6.477   5.587  16.545  0.00  0.00    +0.000 A 
ATOM      6  C   UNL     1       6.420   4.608  17.548  0.00  0.00    +0.000 A 
ENDROOT
BRANCH   1   7
ATOM      7  N   UNL     1       5.165   3.579  19.409  0.00  0.00    +0.000 N 
ATOM      8  H   UNL     1       5.820   3.646  20.194  0.00  0.00    +0.000 HD
BRANCH   7   9
ATOM      9  C   UNL     1       3.813   3.373  19.934  0.00  0.00    +0.000 C 
BRANCH   9  10
ATOM     10  C   UNL     1       2.981   2.578  18.893  0.00  0.00    +0.000 C 
BRANCH  10  11
ATOM     11  N   UNL     1       3.708   1.357  18.473  0.00  0.00    +0.000 NA
ATOM     12  H   UNL     1       4.543   1.651  17.955  0.00  0.00    +0.000 HD
ATOM     13  H   UNL     1       3.148   0.845  17.790  0.00  0.00    +0.000 HD
ENDBRANCH  10  11
BRANCH  10  14
ATOM     14  C   UNL     1       1.588   2.266  19.475  0.00  0.00    +0.000 C 
BRANCH  14  15
ATOM     15  S   UNL     1       1.450   2.746  21.229  0.00  0.00    +0.000 S 
ATOM     16  H   UNL     1       2.221   3.841  21.149  0.00  0.00    +0.000 HD
ENDBRANCH  14  15
ENDBRANCH  10  14
ENDBRANCH   9  10
ENDBRANCH   7   9
ENDBRANCH   1   7
BRANCH   5  17
ATOM     17  O   UNL     1       7.406   5.569  15.526  0.00  0.00    +0.000 OA
BRANCH  17  18
ATOM     18  C   UNL     1       7.079   4.949  14.337  0.00  0.00    +0.000 A 
ATOM     19  C   UNL     1       6.094   3.966  14.203  0.00  0.00    +0.000 A 
ATOM     20  C   UNL     1       5.874   3.355  12.968  0.00  0.00    +0.000 A 
ATOM     21  C   UNL     1       6.600   3.765  11.850  0.00  0.00    +0.000 A 
ATOM     22  C   UNL     1       7.535   4.794  11.967  0.00  0.00    +0.000 A 
ATOM     23  C   UNL     1       7.775   5.385  13.207  0.00  0.00    +0.000 A 
ENDBRANCH  17  18
ENDBRANCH   5  17
TORSDOF 8
ENDMDL
MODEL 2
REMARK VINA RESULT:      -6.7      3.514      6.672
REMARK  Name = 
REMARK  8 active torsions:
REMARK  status: ('A' for Active; 'I' for Inactive)
REMARK    1  A    between atoms: N_1  and  C_2
REMARK    2  A    between atoms: C_2  and  C_3
REMARK    3  A    between atoms: C_2  and  C_5
REMARK    4  A    between atoms: C_3  and  S_4
REMARK    5  A    between atoms: C_5  and  N_6
REMARK    6  A    between atoms: N_6  and  C_7
REMARK    7  A    between atoms: C_11  and  O_12
REMARK    8  A    between atoms: O_12  and  C_13
REMARK                            x       y       z     vdW  Elec       q    Type
REMARK                         _______ _______ _______ _____ _____    ______ ____
ROOT
ATOM      1  C   UNL     1       6.545   5.648  16.734  0.00  0.00    +0.000 A 
ATOM      2  C   UNL     1       7.232   5.278  17.898  0.00  0.00    +0.000 A 
ATOM      3  C   UNL     1       6.608   5.290  19.148  0.00  0.00    +0.000 A 
ATOM      4  C   UNL     1       5.256   5.605  19.245  0.00  0.00    +0.000 A 
ATOM      5  C   UNL     1       4.539   5.911  18.091  0.00  0.00    +0.000 A 
ATOM      6  C   UNL     1       5.195   5.989  16.853  0.00  0.00    +0.000 A 
ENDROOT
BRANCH   1   7
ATOM      7  N   UNL     1       7.215   5.518  15.514  0.00  0.00    +0.000 N 
ATOM      8  H   UNL     1       8.228   5.510  15.670  0.00  0.00    +0.000 HD
BRANCH   7   9
ATOM      9  C   UNL     1       6.865   4.416  14.615  0.00  0.00    +0.000 C 
BRANCH   9  10
ATOM     10  C   UNL     1       6.970   4.907  13.147  0.00  0.00    +0.000 C 
BRANCH  10  11
ATOM     11  N   UNL     1       8.210   5.694  12.952  0.00  0.00    +0.000 NA
ATOM     12  H   UNL     1       8.588   5.462  12.027  0.00  0.00    +0.000 HD
ATOM     13  H   UNL     1       8.922   5.377  13.609  0.00  0.00    +0.000 HD
ENDBRANCH  10  11
BRANCH  10  14
ATOM     14  C   UNL     1       6.879   3.701  12.191  0.00  0.00    +0.000 C 
BRANCH  14  15
ATOM     15  S   UNL     1       5.159   3.145  11.944  0.00  0.00    +0.000 S 
ATOM     16  H   UNL     1       4.958   2.710  13.197  0.00  0.00    +0.000 HD
ENDBRANCH  14  15
ENDBRANCH  10  14
ENDBRANCH   9  10
ENDBRANCH   7   9
ENDBRANCH   1   7
BRANCH   5  17
ATOM     17  O   UNL     1       3.188   6.143  18.244  0.00  0.00    +0.000 OA
BRANCH  17  18
ATOM     18  C   UNL     1       2.397   5.147  18.778  0.00  0.00    +0.000 A 
ATOM     19  C   UNL     1       1.898   5.148  20.084  0.00  0.00    +0.000 A 
ATOM     20  C   UNL     1       1.151   4.067  20.553  0.00  0.00    +0.000 A 
ATOM     21  C   UNL     1       0.852   3.006  19.698  0.00  0.00    +0.000 A 
ATOM     22  C   UNL     1       1.290   3.035  18.373  0.00  0.00    +0.000 A 
ATOM     23  C   UNL     1       2.060   4.102  17.914  0.00  0.00    +0.000 A 
ENDBRANCH  17  18
ENDBRANCH   5  17
TORSDOF 8
ENDMDL
MODEL 3
REMARK VINA RESULT:      -6.6      0.935      1.057
REMARK  Name = 
REMARK  8 active torsions:
REMARK  status: ('A' for Active; 'I' for Inactive)
REMARK    1  A    between atoms: N_1  and  C_2
REMARK    2  A    between atoms: C_2  and  C_3
REMARK    3  A    between atoms: C_2  and  C_5
REMARK    4  A    between atoms: C_3  and  S_4
REMARK    5  A    between atoms: C_5  and  N_6
REMARK    6  A    between atoms: N_6  and  C_7
REMARK    7  A    between atoms: C_11  and  O_12
REMARK    8  A    between atoms: O_12  and  C_13
REMARK                            x       y       z     vdW  Elec       q    Type
REMARK                         _______ _______ _______ _____ _____    ______ ____
ROOT
ATOM      1  C   UNL     1       5.460   4.553  18.410  0.00  0.00    +0.000 A 
ATOM      2  C   UNL     1       4.505   5.579  18.424  0.00  0.00    +0.000 A 
ATOM      3  C   UNL     1       4.558   6.636  17.511  0.00  0.00    +0.000 A 
ATOM      4  C   UNL     1       5.531   6.644  16.516  0.00  0.00    +0.000 A 
ATOM      5  C   UNL     1       6.448   5.598  16.444  0.00  0.00    +0.000 A 
ATOM      6  C   UNL     1       6.448   4.592  17.422  0.00  0.00    +0.000 A 
ENDROOT
BRANCH   1   7
ATOM      7  N   UNL     1       5.281   3.486  19.296  0.00  0.00    +0.000 N 
ATOM      8  H   UNL     1       5.368   3.815  20.262  0.00  0.00    +0.000 HD
BRANCH   7   9
ATOM      9  C   UNL     1       4.082   2.652  19.184  0.00  0.00    +0.000 C 
BRANCH   9  10
ATOM     10  C   UNL     1       3.825   1.950  20.543  0.00  0.00    +0.000 C 
BRANCH  10  11
ATOM     11  N   UNL     1       5.104   1.696  21.246  0.00  0.00    +0.000 NA
ATOM     12  H   UNL     1       4.894   1.546  22.239  0.00  0.00    +0.000 HD
ATOM     13  H   UNL     1       5.676   2.541  21.229  0.00  0.00    +0.000 HD
ENDBRANCH  10  11
BRANCH  10  14
ATOM     14  C   UNL     1       2.846   2.795  21.383  0.00  0.00    +0.000 C 
BRANCH  14  15
ATOM     15  S   UNL     1       1.291   3.137  20.492  0.00  0.00    +0.000 S 
ATOM     16  H   UNL     1       0.475   2.986  21.546  0.00  0.00    +0.000 HD
ENDBRANCH  14  15
ENDBRANCH  10  14
ENDBRANCH   9  10
ENDBRANCH   7   9
ENDBRANCH   1   7
BRANCH   5  17
ATOM     17  O   UNL     1       7.341   5.628  15.393  0.00  0.00    +0.000 OA
BRANCH  17  18
ATOM     18  C   UNL     1       7.025   4.956  14.231  0.00  0.00    +0.000 A 
ATOM     19  C   UNL     1       5.978   4.036  14.108  0.00  0.00    +0.000 A 
ATOM     20  C   UNL     1       5.770   3.363  12.904  0.00  0.00    +0.000 A 
ATOM     21  C   UNL     1       6.574   3.648  11.800  0.00  0.00    +0.000 A 
ATOM     22  C   UNL     1       7.575   4.616  11.900  0.00  0.00    +0.000 A 
ATOM     23  C   UNL     1       7.800   5.269  13.112  0.00  0.00    +0.000 A 
ENDBRANCH  17  18
ENDBRANCH   5  17
TORSDOF 8
ENDMDL
MODEL 4
REMARK VINA RESULT:      -6.5      3.646      6.615
REMARK  Name = 
REMARK  8 active torsions:
REMARK  status: ('A' for Active; 'I' for Inactive)
REMARK    1  A    between atoms: N_1  and  C_2
REMARK    2  A    between atoms: C_2  and  C_3
REMARK    3  A    between atoms: C_2  and  C_5
REMARK    4  A    between atoms: C_3  and  S_4
REMARK    5  A    between atoms: C_5  and  N_6
REMARK    6  A    between atoms: N_6  and  C_7
REMARK    7  A    between atoms: C_11  and  O_12
REMARK    8  A    between atoms: O_12  and  C_13
REMARK                            x       y       z     vdW  Elec       q    Type
REMARK                         _______ _______ _______ _____ _____    ______ ____
ROOT
ATOM      1  C   UNL     1       6.130   4.310  15.708  0.00  0.00    +0.000 A 
ATOM      2  C   UNL     1       7.156   4.448  16.652  0.00  0.00    +0.000 A 
ATOM      3  C   UNL     1       6.956   5.140  17.850  0.00  0.00    +0.000 A 
ATOM      4  C   UNL     1       5.696   5.646  18.156  0.00  0.00    +0.000 A 
ATOM      5  C   UNL     1       4.646   5.461  17.259  0.00  0.00    +0.000 A 
ATOM      6  C   UNL     1       4.878   4.849  16.018  0.00  0.00    +0.000 A 
ENDROOT
BRANCH   1   7
ATOM      7  N   UNL     1       6.386   3.524  14.580  0.00  0.00    +0.000 N 
ATOM      8  H   UNL     1       5.553   2.979  14.337  0.00  0.00    +0.000 HD
BRANCH   7   9
ATOM      9  C   UNL     1       6.912   4.154  13.367  0.00  0.00    +0.000 C 
BRANCH   9  10
ATOM     10  C   UNL     1       6.212   3.533  12.130  0.00  0.00    +0.000 C 
BRANCH  10  11
ATOM     11  N   UNL     1       6.814   2.221  11.798  0.00  0.00    +0.000 NA
ATOM     12  H   UNL     1       7.783   2.384  11.502  0.00  0.00    +0.000 HD
ATOM     13  H   UNL     1       6.355   1.834  10.973  0.00  0.00    +0.000 HD
ENDBRANCH  10  11
BRANCH  10  14
ATOM     14  C   UNL     1       4.695   3.440  12.387  0.00  0.00    +0.000 C 
BRANCH  14  15
ATOM     15  S   UNL     1       3.741   3.293  10.839  0.00  0.00    +0.000 S 
ATOM     16  H   UNL     1       2.538   3.549  11.377  0.00  0.00    +0.000 HD
ENDBRANCH  14  15
ENDBRANCH  10  14
ENDBRANCH   9  10
ENDBRANCH   7   9
ENDBRANCH   1   7
BRANCH   5  17
ATOM     17  O   UNL     1       3.407   5.922  17.652  0.00  0.00    +0.000 OA
BRANCH  17  18
ATOM     18  C   UNL     1       2.604   5.104  18.419  0.00  0.00    +0.000 A 
ATOM     19  C   UNL     1       2.036   3.907  17.970  0.00  0.00    +0.000 A 
ATOM     20  C   UNL     1       1.189   3.174  18.802  0.00  0.00    +0.000 A 
ATOM     21  C   UNL     1       0.952   3.607  20.107  0.00  0.00    +0.000 A 
ATOM     22  C   UNL     1       1.573   4.764  20.581  0.00  0.00    +0.000 A 
ATOM     23  C   UNL     1       2.397   5.511  19.739  0.00  0.00    +0.000 A 
ENDBRANCH  17  18
ENDBRANCH   5  17
TORSDOF 8
ENDMDL
MODEL 5
REMARK VINA RESULT:      -6.5      3.826      6.860
REMARK  Name = 
REMARK  8 active torsions:
REMARK  status: ('A' for Active; 'I' for Inactive)
REMARK    1  A    between atoms: N_1  and  C_2
REMARK    2  A    between atoms: C_2  and  C_3
REMARK    3  A    between atoms: C_2  and  C_5
REMARK    4  A    between atoms: C_3  and  S_4
REMARK    5  A    between atoms: C_5  and  N_6
REMARK    6  A    between atoms: N_6  and  C_7
REMARK    7  A    between atoms: C_11  and  O_12
REMARK    8  A    between atoms: O_12  and  C_13
REMARK                            x       y       z     vdW  Elec       q    Type
REMARK                         _______ _______ _______ _____ _____    ______ ____
ROOT
ATOM      1  C   UNL     1       4.101   3.832  18.178  0.00  0.00    +0.000 A 
ATOM      2  C   UNL     1       2.952   3.147  17.757  0.00  0.00    +0.000 A 
ATOM      3  C   UNL     1       1.685   3.484  18.241  0.00  0.00    +0.000 A 
ATOM      4  C   UNL     1       1.537   4.567  19.103  0.00  0.00    +0.000 A 
ATOM      5  C   UNL     1       2.659   5.302  19.480  0.00  0.00    +0.000 A 
ATOM      6  C   UNL     1       3.938   4.898  19.067  0.00  0.00    +0.000 A 
ENDROOT
BRANCH   1   7
ATOM      7  N   UNL     1       5.316   3.494  17.575  0.00  0.00    +0.000 N 
ATOM      8  H   UNL     1       5.513   2.499  17.718  0.00  0.00    +0.000 HD
BRANCH   7   9
ATOM      9  C   UNL     1       5.537   3.825  16.166  0.00  0.00    +0.000 C 
BRANCH   9  10
ATOM     10  C   UNL     1       6.777   4.749  16.050  0.00  0.00    +0.000 C 
BRANCH  10  11
ATOM     11  N   UNL     1       7.877   4.251  16.909  0.00  0.00    +0.000 NA
ATOM     12  H   UNL     1       8.281   3.424  16.455  0.00  0.00    +0.000 HD
ATOM     13  H   UNL     1       7.492   3.901  17.787  0.00  0.00    +0.000 HD
ENDBRANCH  10  11
BRANCH  10  14
ATOM     14  C   UNL     1       7.192   4.875  14.571  0.00  0.00    +0.000 C 
BRANCH  14  15
ATOM     15  S   UNL     1       6.168   3.835  13.477  0.00  0.00    +0.000 S 
ATOM     16  H   UNL     1       6.343   2.687  14.149  0.00  0.00    +0.000 HD
ENDBRANCH  14  15
ENDBRANCH  10  14
ENDBRANCH   9  10
ENDBRANCH   7   9
ENDBRANCH   1   7
BRANCH   5  17
ATOM     17  O   UNL     1       2.437   6.404  20.277  0.00  0.00    +0.000 OA
BRANCH  17  18
ATOM     18  C   UNL     1       2.039   7.586  19.686  0.00  0.00    +0.000 A 
ATOM     19  C   UNL     1       2.314   7.938  18.360  0.00  0.00    +0.000 A 
ATOM     20  C   UNL     1       1.918   9.182  17.867  0.00  0.00    +0.000 A 
ATOM     21  C   UNL     1       1.197  10.056  18.680  0.00  0.00    +0.000 A 
ATOM     22  C   UNL     1       0.861   9.678  19.982  0.00  0.00    +0.000 A 
ATOM     23  C   UNL     1       1.281   8.446  20.483  0.00  0.00    +0.000 A 
ENDBRANCH  17  18
ENDBRANCH   5  17
TORSDOF 8
ENDMDL
MODEL 6
REMARK VINA RESULT:      -6.5      3.637      6.635
REMARK  Name = 
REMARK  8 active torsions:
REMARK  status: ('A' for Active; 'I' for Inactive)
REMARK    1  A    between atoms: N_1  and  C_2
REMARK    2  A    between atoms: C_2  and  C_3
REMARK    3  A    between atoms: C_2  and  C_5
REMARK    4  A    between atoms: C_3  and  S_4
REMARK    5  A    between atoms: C_5  and  N_6
REMARK    6  A    between atoms: N_6  and  C_7
REMARK    7  A    between atoms: C_11  and  O_12
REMARK    8  A    between atoms: O_12  and  C_13
REMARK                            x       y       z     vdW  Elec       q    Type
REMARK                         _______ _______ _______ _____ _____    ______ ____
ROOT
ATOM      1  C   UNL     1       6.087   4.303  15.753  0.00  0.00    +0.000 A 
ATOM      2  C   UNL     1       7.101   4.437  16.712  0.00  0.00    +0.000 A 
ATOM      3  C   UNL     1       6.885   5.120  17.912  0.00  0.00    +0.000 A 
ATOM      4  C   UNL     1       5.620   5.620  18.206  0.00  0.00    +0.000 A 
ATOM      5  C   UNL     1       4.581   5.439  17.295  0.00  0.00    +0.000 A 
ATOM      6  C   UNL     1       4.830   4.837  16.052  0.00  0.00    +0.000 A 
ENDROOT
BRANCH   1   7
ATOM      7  N   UNL     1       6.359   3.526  14.624  0.00  0.00    +0.000 N 
ATOM      8  H   UNL     1       5.528   2.986  14.362  0.00  0.00    +0.000 HD
BRANCH   7   9
ATOM      9  C   UNL     1       6.907   4.165  13.425  0.00  0.00    +0.000 C 
BRANCH   9  10
ATOM     10  C   UNL     1       6.222   3.559  12.171  0.00  0.00    +0.000 C 
BRANCH  10  11
ATOM     11  N   UNL     1       6.839   2.258  11.822  0.00  0.00    +0.000 NA
ATOM     12  H   UNL     1       7.736   2.448  11.362  0.00  0.00    +0.000 HD
ATOM     13  H   UNL     1       6.276   1.795  11.107  0.00  0.00    +0.000 HD
ENDBRANCH  10  11
BRANCH  10  14
ATOM     14  C   UNL     1       4.704   3.449  12.414  0.00  0.00    +0.000 C 
BRANCH  14  15
ATOM     15  S   UNL     1       3.768   3.275  10.858  0.00  0.00    +0.000 S 
ATOM     16  H   UNL     1       4.769   2.752  10.134  0.00  0.00    +0.000 HD
ENDBRANCH  14  15
ENDBRANCH  10  14
ENDBRANCH   9  10
ENDBRANCH   7   9
ENDBRANCH   1   7
BRANCH   5  17
ATOM     17  O   UNL     1       3.337   5.894  17.677  0.00  0.00    +0.000 OA
BRANCH  17  18
ATOM     18  C   UNL     1       2.579   5.123  18.534  0.00  0.00    +0.000 A 
ATOM     19  C   UNL     1       2.427   5.377  19.901  0.00  0.00    +0.000 A 
ATOM     20  C   UNL     1       1.684   4.507  20.699  0.00  0.00    +0.000 A 
ATOM     21  C   UNL     1       1.044   3.410  20.124  0.00  0.00    +0.000 A 
ATOM     22  C   UNL     1       1.137   3.193  18.748  0.00  0.00    +0.000 A 
ATOM     23  C   UNL     1       1.902   4.047  17.955  0.00  0.00    +0.000 A 
ENDBRANCH  17  18
ENDBRANCH   5  17
TORSDOF 8
ENDMDL
MODEL 7
REMARK VINA RESULT:      -6.4      3.472      6.834
REMARK  Name = 
REMARK  8 active torsions:
REMARK  status: ('A' for Active; 'I' for Inactive)
REMARK    1  A    between atoms: N_1  and  C_2
REMARK    2  A    between atoms: C_2  and  C_3
REMARK    3  A    between atoms: C_2  and  C_5
REMARK    4  A    between atoms: C_3  and  S_4
REMARK    5  A    between atoms: C_5  and  N_6
REMARK    6  A    between atoms: N_6  and  C_7
REMARK    7  A    between atoms: C_11  and  O_12
REMARK    8  A    between atoms: O_12  and  C_13
REMARK                            x       y       z     vdW  Elec       q    Type
REMARK                         _______ _______ _______ _____ _____    ______ ____
ROOT
ATOM      1  C   UNL     1       5.930   5.490  16.486  0.00  0.00    +0.000 A 
ATOM      2  C   UNL     1       6.944   6.281  17.045  0.00  0.00    +0.000 A 
ATOM      3  C   UNL     1       7.222   6.248  18.414  0.00  0.00    +0.000 A 
ATOM      4  C   UNL     1       6.536   5.363  19.240  0.00  0.00    +0.000 A 
ATOM      5  C   UNL     1       5.571   4.520  18.691  0.00  0.00    +0.000 A 
ATOM      6  C   UNL     1       5.231   4.628  17.334  0.00  0.00    +0.000 A 
ENDROOT
BRANCH   1   7
ATOM      7  N   UNL     1       5.780   5.513  15.096  0.00  0.00    +0.000 N 
ATOM      8  H   UNL     1       6.141   6.395  14.719  0.00  0.00    +0.000 HD
BRANCH   7   9
ATOM      9  C   UNL     1       6.305   4.404  14.297  0.00  0.00    +0.000 C 
BRANCH   9  10
ATOM     10  C   UNL     1       7.015   4.976  13.041  0.00  0.00    +0.000 C 
BRANCH  10  11
ATOM     11  N   UNL     1       8.303   5.603  13.415  0.00  0.00    +0.000 NA
ATOM     12  H   UNL     1       8.799   5.845  12.550  0.00  0.00    +0.000 HD
ATOM     13  H   UNL     1       8.901   4.912  13.869  0.00  0.00    +0.000 HD
ENDBRANCH  10  11
BRANCH  10  14
ATOM     14  C   UNL     1       7.182   3.861  11.990  0.00  0.00    +0.000 C 
BRANCH  14  15
ATOM     15  S   UNL     1       5.706   2.796  11.872  0.00  0.00    +0.000 S 
ATOM     16  H   UNL     1       6.310   1.656  12.238  0.00  0.00    +0.000 HD
ENDBRANCH  14  15
ENDBRANCH  10  14
ENDBRANCH   9  10
ENDBRANCH   7   9
ENDBRANCH   1   7
BRANCH   5  17
ATOM     17  O   UNL     1       4.978   3.617  19.548  0.00  0.00    +0.000 OA
BRANCH  17  18
ATOM     18  C   UNL     1       3.620   3.707  19.775  0.00  0.00    +0.000 A 
ATOM     19  C   UNL     1       2.961   4.871  20.181  0.00  0.00    +0.000 A 
ATOM     20  C   UNL     1       1.590   4.850  20.440  0.00  0.00    +0.000 A 
ATOM     21  C   UNL     1       0.863   3.677  20.241  0.00  0.00    +0.000 A 
ATOM     22  C   UNL     1       1.506   2.531  19.770  0.00  0.00    +0.000 A 
ATOM     23  C   UNL     1       2.881   2.545  19.537  0.00  0.00    +0.000 A 
ENDBRANCH  17  18
ENDBRANCH   5  17
TORSDOF 8
ENDMDL
MODEL 8
REMARK VINA RESULT:      -6.4      0.683      1.298
REMARK  Name = 
REMARK  8 active torsions:
REMARK  status: ('A' for Active; 'I' for Inactive)
REMARK    1  A    between atoms: N_1  and  C_2
REMARK    2  A    between atoms: C_2  and  C_3
REMARK    3  A    between atoms: C_2  and  C_5
REMARK    4  A    between atoms: C_3  and  S_4
REMARK    5  A    between atoms: C_5  and  N_6
REMARK    6  A    between atoms: N_6  and  C_7
REMARK    7  A    between atoms: C_11  and  O_12
REMARK    8  A    between atoms: O_12  and  C_13
REMARK                            x       y       z     vdW  Elec       q    Type
REMARK                         _______ _______ _______ _____ _____    ______ ____
ROOT
ATOM      1  C   UNL     1       5.274   4.501  18.457  0.00  0.00    +0.000 A 
ATOM      2  C   UNL     1       4.311   5.516  18.376  0.00  0.00    +0.000 A 
ATOM      3  C   UNL     1       4.424   6.555  17.448  0.00  0.00    +0.000 A 
ATOM      4  C   UNL     1       5.471   6.554  16.531  0.00  0.00    +0.000 A 
ATOM      5  C   UNL     1       6.401   5.517  16.552  0.00  0.00    +0.000 A 
ATOM      6  C   UNL     1       6.334   4.530  17.547  0.00  0.00    +0.000 A 
ENDROOT
BRANCH   1   7
ATOM      7  N   UNL     1       5.036   3.450  19.349  0.00  0.00    +0.000 N 
ATOM      8  H   UNL     1       4.628   3.812  20.216  0.00  0.00    +0.000 HD
BRANCH   7   9
ATOM      9  C   UNL     1       4.257   2.292  18.904  0.00  0.00    +0.000 C 
BRANCH   9  10
ATOM     10  C   UNL     1       2.766   2.701  18.780  0.00  0.00    +0.000 C 
BRANCH  10  11
ATOM     11  N   UNL     1       2.128   1.998  17.643  0.00  0.00    +0.000 NA
ATOM     12  H   UNL     1       2.200   0.990  17.816  0.00  0.00    +0.000 HD
ATOM     13  H   UNL     1       2.675   2.154  16.796  0.00  0.00    +0.000 HD
ENDBRANCH  10  11
BRANCH  10  14
ATOM     14  C   UNL     1       2.046   2.439  20.118  0.00  0.00    +0.000 C 
BRANCH  14  15
ATOM     15  S   UNL     1       1.930   3.941  21.146  0.00  0.00    +0.000 S 
ATOM     16  H   UNL     1       2.905   3.613  22.007  0.00  0.00    +0.000 HD
ENDBRANCH  14  15
ENDBRANCH  10  14
ENDBRANCH   9  10
ENDBRANCH   7   9
ENDBRANCH   1   7
BRANCH   5  17
ATOM     17  O   UNL     1       7.371   5.535  15.572  0.00  0.00    +0.000 OA
BRANCH  17  18
ATOM     18  C   UNL     1       7.098   4.952  14.352  0.00  0.00    +0.000 A 
ATOM     19  C   UNL     1       7.810   5.208  13.176  0.00  0.00    +0.000 A 
ATOM     20  C   UNL     1       7.424   4.611  11.976  0.00  0.00    +0.000 A 
ATOM     21  C   UNL     1       6.357   3.712  11.957  0.00  0.00    +0.000 A 
ATOM     22  C   UNL     1       5.689   3.402  13.143  0.00  0.00    +0.000 A 
ATOM     23  C   UNL     1       6.058   4.020  14.337  0.00  0.00    +0.000 A 
ENDBRANCH  17  18
ENDBRANCH   5  17
TORSDOF 8
ENDMDL
MODEL 9
REMARK VINA RESULT:      -6.4      3.760      6.751
REMARK  Name = 
REMARK  8 active torsions:
REMARK  status: ('A' for Active; 'I' for Inactive)
REMARK    1  A    between atoms: N_1  and  C_2
REMARK    2  A    between atoms: C_2  and  C_3
REMARK    3  A    between atoms: C_2  and  C_5
REMARK    4  A    between atoms: C_3  and  S_4
REMARK    5  A    between atoms: C_5  and  N_6
REMARK    6  A    between atoms: N_6  and  C_7
REMARK    7  A    between atoms: C_11  and  O_12
REMARK    8  A    between atoms: O_12  and  C_13
REMARK                            x       y       z     vdW  Elec       q    Type
REMARK                         _______ _______ _______ _____ _____    ______ ____
ROOT
ATOM      1  C   UNL     1       4.106   3.872  18.456  0.00  0.00    +0.000 A 
ATOM      2  C   UNL     1       3.000   3.093  18.090  0.00  0.00    +0.000 A 
ATOM      3  C   UNL     1       1.721   3.364  18.585  0.00  0.00    +0.000 A 
ATOM      4  C   UNL     1       1.515   4.473  19.401  0.00  0.00    +0.000 A 
ATOM      5  C   UNL     1       2.590   5.299  19.721  0.00  0.00    +0.000 A 
ATOM      6  C   UNL     1       3.886   4.965  19.299  0.00  0.00    +0.000 A 
ENDROOT
BRANCH   1   7
ATOM      7  N   UNL     1       5.331   3.590  17.843  0.00  0.00    +0.000 N 
ATOM      8  H   UNL     1       5.571   2.603  17.978  0.00  0.00    +0.000 HD
BRANCH   7   9
ATOM      9  C   UNL     1       5.527   3.938  16.434  0.00  0.00    +0.000 C 
BRANCH   9  10
ATOM     10  C   UNL     1       6.813   4.796  16.299  0.00  0.00    +0.000 C 
BRANCH  10  11
ATOM     11  N   UNL     1       7.919   4.199  17.084  0.00  0.00    +0.000 NA
ATOM     12  H   UNL     1       8.495   3.642  16.444  0.00  0.00    +0.000 HD
ATOM     13  H   UNL     1       7.540   3.521  17.746  0.00  0.00    +0.000 HD
ENDBRANCH  10  11
BRANCH  10  14
ATOM     14  C   UNL     1       7.169   4.962  14.809  0.00  0.00    +0.000 C 
BRANCH  14  15
ATOM     15  S   UNL     1       6.143   3.906  13.732  0.00  0.00    +0.000 S 
ATOM     16  H   UNL     1       5.245   4.848  13.405  0.00  0.00    +0.000 HD
ENDBRANCH  14  15
ENDBRANCH  10  14
ENDBRANCH   9  10
ENDBRANCH   7   9
ENDBRANCH   1   7
BRANCH   5  17
ATOM     17  O   UNL     1       2.307   6.420  20.473  0.00  0.00    +0.000 OA
BRANCH  17  18
ATOM     18  C   UNL     1       1.957   7.586  19.825  0.00  0.00    +0.000 A 
ATOM     19  C   UNL     1       1.214   8.620  20.403  0.00  0.00    +0.000 A 
ATOM     20  C   UNL     1       0.859   9.739  19.649  0.00  0.00    +0.000 A 
ATOM     21  C   UNL     1       1.294   9.855  18.329  0.00  0.00    +0.000 A 
ATOM     22  C   UNL     1       2.094   8.857  17.771  0.00  0.00    +0.000 A 
ATOM     23  C   UNL     1       2.425   7.725  18.516  0.00  0.00    +0.000 A 
ENDBRANCH  17  18
ENDBRANCH   5  17
TORSDOF 8
ENDMDL
