MODEL 1
REMARK VINA RESULT:      -6.8      0.000      0.000
REMARK  Name = 
REMARK  3 active torsions:
REMARK  status: ('A' for Active; 'I' for Inactive)
REMARK    1  A    between atoms: C_1  and  C_2
REMARK    2  A    between atoms: C_6  and  N_7
REMARK    3  A    between atoms: C_13  and  C_15
REMARK                            x       y       z     vdW  Elec       q    Type
REMARK                         _______ _______ _______ _____ _____    ______ ____
ROOT
ATOM      1  N   UNL     1       2.219   7.716  19.480  0.00  0.00    +0.000 N 
ATOM      2  C   UNL     1       2.421   8.242  18.134  0.00  0.00    +0.000 C 
ATOM      3  C   UNL     1       1.158   8.961  17.631  0.00  0.00    +0.000 C 
ATOM      4  C   UNL     1       0.622  10.020  18.623  0.00  0.00    +0.000 C 
ATOM      5  C   UNL     1       1.541  11.257  18.537  0.00  0.00    +0.000 C 
ATOM      6  N   UNL     1       1.519  12.274  19.572  0.00  0.00    +0.000 N 
ATOM      7  C   UNL     1       2.461  13.317  19.432  0.00  0.00    +0.000 C 
ATOM      8  O   UNL     1       3.182  13.378  18.437  0.00  0.00    +0.000 OA
ATOM      9  C   UNL     1       0.348  12.361  20.443  0.00  0.00    +0.000 C 
ATOM     10  C   UNL     1       0.339  11.237  21.469  0.00  0.00    +0.000 C 
ATOM     11  O   UNL     1      -0.298  10.078  20.953  0.00  0.00    +0.000 OA
ATOM     12  C   UNL     1       0.410   9.314  19.978  0.00  0.00    +0.000 C 
ATOM     13  C   UNL     1       1.682   8.624  20.497  0.00  0.00    +0.000 C 
ENDROOT
BRANCH   1  19
ATOM     14  C   UNL     1       4.897   3.753  19.069  0.00  0.00    +0.000 C 
ATOM     15  C   UNL     1       3.652   4.408  19.591  0.00  0.00    +0.000 A 
ATOM     16  C   UNL     1       2.764   3.688  20.377  0.00  0.00    +0.000 A 
ATOM     17  C   UNL     1       1.646   4.341  20.864  0.00  0.00    +0.000 A 
ATOM     18  C   UNL     1       1.462   5.688  20.561  0.00  0.00    +0.000 A 
ATOM     19  C   UNL     1       2.388   6.374  19.772  0.00  0.00    +0.000 A 
ATOM     20  N   UNL     1       3.467   5.720  19.282  0.00  0.00    +0.000 NA
ENDBRANCH   1  19
BRANCH   7  21
ATOM     21  C   UNL     1       2.554  14.328  20.478  0.00  0.00    +0.000 A 
ATOM     22  C   UNL     1       2.047  15.616  20.535  0.00  0.00    +0.000 A 
ATOM     23  C   UNL     1       2.434  16.154  21.785  0.00  0.00    +0.000 A 
ATOM     24  C   UNL     1       3.187  15.182  22.401  0.00  0.00    +0.000 A 
ATOM     25  O   UNL     1       3.287  14.087  21.609  0.00  0.00    +0.000 OA
ENDBRANCH   7  21
TORSDOF 2
ENDMDL
MODEL 2
REMARK VINA RESULT:      -6.6      4.506      7.222
REMARK  Name = 
REMARK  3 active torsions:
REMARK  status: ('A' for Active; 'I' for Inactive)
REMARK    1  A    between atoms: C_1  and  C_2
REMARK    2  A    between atoms: C_6  and  N_7
REMARK    3  A    between atoms: C_13  and  C_15
REMARK                            x       y       z     vdW  Elec       q    Type
REMARK                         _______ _______ _______ _____ _____    ______ ____
ROOT
ATOM      1  N   UNL     1      -2.536  12.441  22.340  0.00  0.00    +0.000 N 
ATOM      2  C   UNL     1      -1.461  11.802  23.092  0.00  0.00    +0.000 C 
ATOM      3  C   UNL     1      -0.811  10.675  22.271  0.00  0.00    +0.000 C 
ATOM      4  C   UNL     1      -0.379  11.124  20.855  0.00  0.00    +0.000 C 
ATOM      5  C   UNL     1       0.908  11.964  20.998  0.00  0.00    +0.000 C 
ATOM      6  N   UNL     1       1.369  12.810  19.912  0.00  0.00    +0.000 N 
ATOM      7  C   UNL     1       2.509  13.598  20.184  0.00  0.00    +0.000 C 
ATOM      8  O   UNL     1       3.104  13.484  21.255  0.00  0.00    +0.000 OA
ATOM      9  C   UNL     1       0.885  12.538  18.559  0.00  0.00    +0.000 C 
ATOM     10  C   UNL     1      -0.554  13.001  18.384  0.00  0.00    +0.000 C 
ATOM     11  O   UNL     1      -1.469  11.986  18.771  0.00  0.00    +0.000 OA
ATOM     12  C   UNL     1      -1.618  11.729  20.166  0.00  0.00    +0.000 C 
ATOM     13  C   UNL     1      -2.248  12.878  20.971  0.00  0.00    +0.000 C 
ENDROOT
BRANCH   1  19
ATOM     14  C   UNL     1      -7.245  12.648  21.434  0.00  0.00    +0.000 C 
ATOM     15  C   UNL     1      -6.136  12.631  22.444  0.00  0.00    +0.000 A 
ATOM     16  C   UNL     1      -6.429  12.630  23.800  0.00  0.00    +0.000 A 
ATOM     17  C   UNL     1      -5.376  12.580  24.695  0.00  0.00    +0.000 A 
ATOM     18  C   UNL     1      -4.073  12.520  24.206  0.00  0.00    +0.000 A 
ATOM     19  C   UNL     1      -3.827  12.515  22.831  0.00  0.00    +0.000 A 
ATOM     20  N   UNL     1      -4.863  12.586  21.964  0.00  0.00    +0.000 NA
ENDBRANCH   1  19
BRANCH   7  21
ATOM     21  C   UNL     1       2.978  14.534  19.170  0.00  0.00    +0.000 A 
ATOM     22  C   UNL     1       4.052  14.454  18.297  0.00  0.00    +0.000 A 
ATOM     23  C   UNL     1       4.042  15.642  17.527  0.00  0.00    +0.000 A 
ATOM     24  C   UNL     1       2.992  16.393  18.000  0.00  0.00    +0.000 A 
ATOM     25  O   UNL     1       2.360  15.745  19.009  0.00  0.00    +0.000 OA
ENDBRANCH   7  21
TORSDOF 2
ENDMDL
MODEL 3
REMARK VINA RESULT:      -6.4      3.879      5.802
REMARK  Name = 
REMARK  3 active torsions:
REMARK  status: ('A' for Active; 'I' for Inactive)
REMARK    1  A    between atoms: C_1  and  C_2
REMARK    2  A    between atoms: C_6  and  N_7
REMARK    3  A    between atoms: C_13  and  C_15
REMARK                            x       y       z     vdW  Elec       q    Type
REMARK                         _______ _______ _______ _____ _____    ______ ____
ROOT
ATOM      1  N   UNL     1       0.445   9.883  20.170  0.00  0.00    +0.000 N 
ATOM      2  C   UNL     1       0.891  10.667  21.318  0.00  0.00    +0.000 C 
ATOM      3  C   UNL     1       0.834  12.173  21.009  0.00  0.00    +0.000 C 
ATOM      4  C   UNL     1      -0.536  12.631  20.456  0.00  0.00    +0.000 C 
ATOM      5  C   UNL     1      -1.529  12.684  21.637  0.00  0.00    +0.000 C 
ATOM      6  N   UNL     1      -2.961  12.740  21.403  0.00  0.00    +0.000 N 
ATOM      7  C   UNL     1      -3.776  12.700  22.555  0.00  0.00    +0.000 C 
ATOM      8  O   UNL     1      -3.271  12.706  23.677  0.00  0.00    +0.000 OA
ATOM      9  C   UNL     1      -3.439  13.186  20.095  0.00  0.00    +0.000 C 
ATOM     10  C   UNL     1      -3.253  12.106  19.041  0.00  0.00    +0.000 C 
ATOM     11  O   UNL     1      -1.966  12.186  18.447  0.00  0.00    +0.000 OA
ATOM     12  C   UNL     1      -0.851  11.755  19.227  0.00  0.00    +0.000 C 
ATOM     13  C   UNL     1      -0.828  10.251  19.543  0.00  0.00    +0.000 C 
ENDROOT
BRANCH   1  19
ATOM     14  C   UNL     1       2.493   5.554  20.490  0.00  0.00    +0.000 C 
ATOM     15  C   UNL     1       2.279   6.813  19.703  0.00  0.00    +0.000 A 
ATOM     16  C   UNL     1       2.824   6.943  18.434  0.00  0.00    +0.000 A 
ATOM     17  C   UNL     1       2.574   8.107  17.732  0.00  0.00    +0.000 A 
ATOM     18  C   UNL     1       1.780   9.092  18.314  0.00  0.00    +0.000 A 
ATOM     19  C   UNL     1       1.246   8.915  19.593  0.00  0.00    +0.000 A 
ATOM     20  N   UNL     1       1.515   7.781  20.280  0.00  0.00    +0.000 NA
ENDBRANCH   1  19
BRANCH   7  21
ATOM     21  C   UNL     1      -5.224  12.667  22.393  0.00  0.00    +0.000 A 
ATOM     22  C   UNL     1      -6.221  13.367  23.054  0.00  0.00    +0.000 A 
ATOM     23  C   UNL     1      -7.453  12.949  22.496  0.00  0.00    +0.000 A 
ATOM     24  C   UNL     1      -7.141  11.992  21.559  0.00  0.00    +0.000 A 
ATOM     25  O   UNL     1      -5.801  11.796  21.509  0.00  0.00    +0.000 OA
ENDBRANCH   7  21
TORSDOF 2
ENDMDL
MODEL 4
REMARK VINA RESULT:      -6.4      3.989      5.802
REMARK  Name = 
REMARK  3 active torsions:
REMARK  status: ('A' for Active; 'I' for Inactive)
REMARK    1  A    between atoms: C_1  and  C_2
REMARK    2  A    between atoms: C_6  and  N_7
REMARK    3  A    between atoms: C_13  and  C_15
REMARK                            x       y       z     vdW  Elec       q    Type
REMARK                         _______ _______ _______ _____ _____    ______ ____
ROOT
ATOM      1  N   UNL     1       0.381  10.653  20.155  0.00  0.00    +0.000 N 
ATOM      2  C   UNL     1       1.049  11.716  20.898  0.00  0.00    +0.000 C 
ATOM      3  C   UNL     1       0.711  13.095  20.308  0.00  0.00    +0.000 C 
ATOM      4  C   UNL     1      -0.808  13.332  20.143  0.00  0.00    +0.000 C 
ATOM      5  C   UNL     1      -1.396  13.622  21.541  0.00  0.00    +0.000 C 
ATOM      6  N   UNL     1      -2.826  13.545  21.777  0.00  0.00    +0.000 N 
ATOM      7  C   UNL     1      -3.243  13.746  23.111  0.00  0.00    +0.000 C 
ATOM      8  O   UNL     1      -2.427  14.053  23.980  0.00  0.00    +0.000 OA
ATOM      9  C   UNL     1      -3.730  13.632  20.631  0.00  0.00    +0.000 C 
ATOM     10  C   UNL     1      -3.736  12.337  19.833  0.00  0.00    +0.000 C 
ATOM     11  O   UNL     1      -2.710  12.336  18.851  0.00  0.00    +0.000 OA
ATOM     12  C   UNL     1      -1.367  12.167  19.302  0.00  0.00    +0.000 C 
ATOM     13  C   UNL     1      -1.058  10.789  19.910  0.00  0.00    +0.000 C 
ENDROOT
BRANCH   1  19
ATOM     14  C   UNL     1       2.112   6.190  20.505  0.00  0.00    +0.000 C 
ATOM     15  C   UNL     1       1.963   7.445  19.697  0.00  0.00    +0.000 A 
ATOM     16  C   UNL     1       2.468   7.506  18.406  0.00  0.00    +0.000 A 
ATOM     17  C   UNL     1       2.280   8.671  17.686  0.00  0.00    +0.000 A 
ATOM     18  C   UNL     1       1.584   9.725  18.272  0.00  0.00    +0.000 A 
ATOM     19  C   UNL     1       1.085   9.615  19.572  0.00  0.00    +0.000 A 
ATOM     20  N   UNL     1       1.295   8.479  20.277  0.00  0.00    +0.000 NA
ENDBRANCH   1  19
BRANCH   7  21
ATOM     21  C   UNL     1      -4.656  13.600  23.439  0.00  0.00    +0.000 A 
ATOM     22  C   UNL     1      -5.644  14.555  23.612  0.00  0.00    +0.000 A 
ATOM     23  C   UNL     1      -6.838  13.859  23.916  0.00  0.00    +0.000 A 
ATOM     24  C   UNL     1      -6.502  12.526  23.951  0.00  0.00    +0.000 A 
ATOM     25  O   UNL     1      -5.182  12.362  23.690  0.00  0.00    +0.000 OA
ENDBRANCH   7  21
TORSDOF 2
ENDMDL
MODEL 5
REMARK VINA RESULT:      -6.4      4.174      6.082
REMARK  Name = 
REMARK  3 active torsions:
REMARK  status: ('A' for Active; 'I' for Inactive)
REMARK    1  A    between atoms: C_1  and  C_2
REMARK    2  A    between atoms: C_6  and  N_7
REMARK    3  A    between atoms: C_13  and  C_15
REMARK                            x       y       z     vdW  Elec       q    Type
REMARK                         _______ _______ _______ _____ _____    ______ ____
ROOT
ATOM      1  N   UNL     1       0.191  10.251  19.489  0.00  0.00    +0.000 N 
ATOM      2  C   UNL     1       0.581  11.417  20.275  0.00  0.00    +0.000 C 
ATOM      3  C   UNL     1       0.224  12.719  19.539  0.00  0.00    +0.000 C 
ATOM      4  C   UNL     1      -1.249  12.770  19.069  0.00  0.00    +0.000 C 
ATOM      5  C   UNL     1      -2.131  13.051  20.304  0.00  0.00    +0.000 C 
ATOM      6  N   UNL     1      -3.563  12.818  20.265  0.00  0.00    +0.000 N 
ATOM      7  C   UNL     1      -4.256  13.029  21.477  0.00  0.00    +0.000 C 
ATOM      8  O   UNL     1      -3.666  13.468  22.464  0.00  0.00    +0.000 OA
ATOM      9  C   UNL     1      -4.225  12.747  18.963  0.00  0.00    +0.000 C 
ATOM     10  C   UNL     1      -3.934  11.426  18.267  0.00  0.00    +0.000 C 
ATOM     11  O   UNL     1      -2.739  11.501  17.504  0.00  0.00    +0.000 OA
ATOM     12  C   UNL     1      -1.502  11.510  18.216  0.00  0.00    +0.000 C 
ATOM     13  C   UNL     1      -1.177  10.207  18.963  0.00  0.00    +0.000 C 
ENDROOT
BRANCH   1  19
ATOM     14  C   UNL     1       2.299   6.054  20.478  0.00  0.00    +0.000 C 
ATOM     15  C   UNL     1       2.172   7.239  19.567  0.00  0.00    +0.000 A 
ATOM     16  C   UNL     1       2.906   7.294  18.391  0.00  0.00    +0.000 A 
ATOM     17  C   UNL     1       2.733   8.390  17.565  0.00  0.00    +0.000 A 
ATOM     18  C   UNL     1       1.826   9.380  17.934  0.00  0.00    +0.000 A 
ATOM     19  C   UNL     1       1.103   9.278  19.124  0.00  0.00    +0.000 A 
ATOM     20  N   UNL     1       1.297   8.213  19.936  0.00  0.00    +0.000 NA
ENDBRANCH   1  19
BRANCH   7  21
ATOM     21  C   UNL     1      -5.682  12.733  21.535  0.00  0.00    +0.000 A 
ATOM     22  C   UNL     1      -6.744  13.500  21.986  0.00  0.00    +0.000 A 
ATOM     23  C   UNL     1      -7.914  12.724  21.810  0.00  0.00    +0.000 A 
ATOM     24  C   UNL     1      -7.496  11.516  21.301  0.00  0.00    +0.000 A 
ATOM     25  O   UNL     1      -6.148  11.503  21.157  0.00  0.00    +0.000 OA
ENDBRANCH   7  21
TORSDOF 2
ENDMDL
MODEL 6
REMARK VINA RESULT:      -6.3      0.648      1.342
REMARK  Name = 
REMARK  3 active torsions:
REMARK  status: ('A' for Active; 'I' for Inactive)
REMARK    1  A    between atoms: C_1  and  C_2
REMARK    2  A    between atoms: C_6  and  N_7
REMARK    3  A    between atoms: C_13  and  C_15
REMARK                            x       y       z     vdW  Elec       q    Type
REMARK                         _______ _______ _______ _____ _____    ______ ____
ROOT
ATOM      1  N   UNL     1       2.501   7.570  19.242  0.00  0.00    +0.000 N 
ATOM      2  C   UNL     1       2.560   8.152  17.905  0.00  0.00    +0.000 C 
ATOM      3  C   UNL     1       1.215   8.793  17.526  0.00  0.00    +0.000 C 
ATOM      4  C   UNL     1       0.686   9.779  18.594  0.00  0.00    +0.000 C 
ATOM      5  C   UNL     1       1.507  11.081  18.484  0.00  0.00    +0.000 C 
ATOM      6  N   UNL     1       1.495  12.061  19.555  0.00  0.00    +0.000 N 
ATOM      7  C   UNL     1       2.348  13.173  19.383  0.00  0.00    +0.000 C 
ATOM      8  O   UNL     1       2.983  13.317  18.339  0.00  0.00    +0.000 OA
ATOM      9  C   UNL     1       0.392  12.035  20.514  0.00  0.00    +0.000 C 
ATOM     10  C   UNL     1       0.542  10.882  21.496  0.00  0.00    +0.000 C 
ATOM     11  O   UNL     1      -0.052   9.697  20.987  0.00  0.00    +0.000 OA
ATOM     12  C   UNL     1       0.630   9.018  19.934  0.00  0.00    +0.000 C 
ATOM     13  C   UNL     1       1.983   8.405  20.330  0.00  0.00    +0.000 C 
ENDROOT
BRANCH   1  19
ATOM     14  C   UNL     1       1.037   3.306  20.891  0.00  0.00    +0.000 C 
ATOM     15  C   UNL     1       2.125   4.135  20.274  0.00  0.00    +0.000 A 
ATOM     16  C   UNL     1       3.327   3.545  19.908  0.00  0.00    +0.000 A 
ATOM     17  C   UNL     1       4.289   4.341  19.313  0.00  0.00    +0.000 A 
ATOM     18  C   UNL     1       4.013   5.688  19.093  0.00  0.00    +0.000 A 
ATOM     19  C   UNL     1       2.786   6.236  19.471  0.00  0.00    +0.000 A 
ATOM     20  N   UNL     1       1.860   5.455  20.073  0.00  0.00    +0.000 NA
ENDBRANCH   1  19
BRANCH   7  21
ATOM     21  C   UNL     1       2.452  14.155  20.455  0.00  0.00    +0.000 A 
ATOM     22  C   UNL     1       1.846  15.392  20.607  0.00  0.00    +0.000 A 
ATOM     23  C   UNL     1       2.300  15.922  21.839  0.00  0.00    +0.000 A 
ATOM     24  C   UNL     1       3.185  14.999  22.346  0.00  0.00    +0.000 A 
ATOM     25  O   UNL     1       3.303  13.942  21.506  0.00  0.00    +0.000 OA
ENDBRANCH   7  21
TORSDOF 2
ENDMDL
MODEL 7
REMARK VINA RESULT:      -6.2      3.941      5.804
REMARK  Name = 
REMARK  3 active torsions:
REMARK  status: ('A' for Active; 'I' for Inactive)
REMARK    1  A    between atoms: C_1  and  C_2
REMARK    2  A    between atoms: C_6  and  N_7
REMARK    3  A    between atoms: C_13  and  C_15
REMARK                            x       y       z     vdW  Elec       q    Type
REMARK                         _______ _______ _______ _____ _____    ______ ____
ROOT
ATOM      1  N   UNL     1      -0.057  10.023  20.516  0.00  0.00    +0.000 N 
ATOM      2  C   UNL     1      -0.674   9.467  21.716  0.00  0.00    +0.000 C 
ATOM      3  C   UNL     1      -0.401  10.362  22.937  0.00  0.00    +0.000 C 
ATOM      4  C   UNL     1      -0.765  11.847  22.698  0.00  0.00    +0.000 C 
ATOM      5  C   UNL     1      -2.302  11.974  22.761  0.00  0.00    +0.000 C 
ATOM      6  N   UNL     1      -2.973  13.152  22.242  0.00  0.00    +0.000 N 
ATOM      7  C   UNL     1      -4.385  13.122  22.276  0.00  0.00    +0.000 C 
ATOM      8  O   UNL     1      -4.976  12.180  22.800  0.00  0.00    +0.000 OA
ATOM      9  C   UNL     1      -2.199  14.380  22.072  0.00  0.00    +0.000 C 
ATOM     10  C   UNL     1      -1.288  14.295  20.857  0.00  0.00    +0.000 C 
ATOM     11  O   UNL     1      -0.037  13.714  21.193  0.00  0.00    +0.000 OA
ATOM     12  C   UNL     1      -0.008  12.308  21.436  0.00  0.00    +0.000 C 
ATOM     13  C   UNL     1      -0.306  11.434  20.208  0.00  0.00    +0.000 C 
ENDROOT
BRANCH   1  19
ATOM     14  C   UNL     1       2.663   6.095  20.053  0.00  0.00    +0.000 C 
ATOM     15  C   UNL     1       2.203   7.406  19.489  0.00  0.00    +0.000 A 
ATOM     16  C   UNL     1       2.637   7.816  18.236  0.00  0.00    +0.000 A 
ATOM     17  C   UNL     1       2.162   9.017  17.741  0.00  0.00    +0.000 A 
ATOM     18  C   UNL     1       1.263   9.756  18.505  0.00  0.00    +0.000 A 
ATOM     19  C   UNL     1       0.847   9.299  19.758  0.00  0.00    +0.000 A 
ATOM     20  N   UNL     1       1.336   8.135  20.243  0.00  0.00    +0.000 NA
ENDBRANCH   1  19
BRANCH   7  21
ATOM     21  C   UNL     1      -5.127  14.234  21.694  0.00  0.00    +0.000 A 
ATOM     22  C   UNL     1      -5.798  15.284  22.299  0.00  0.00    +0.000 A 
ATOM     23  C   UNL     1      -6.341  16.077  21.260  0.00  0.00    +0.000 A 
ATOM     24  C   UNL     1      -6.005  15.444  20.085  0.00  0.00    +0.000 A 
ATOM     25  O   UNL     1      -5.295  14.318  20.338  0.00  0.00    +0.000 OA
ENDBRANCH   7  21
TORSDOF 2
ENDMDL
MODEL 8
REMARK VINA RESULT:      -6.2      1.939      2.569
REMARK  Name = 
REMARK  3 active torsions:
REMARK  status: ('A' for Active; 'I' for Inactive)
REMARK    1  A    between atoms: C_1  and  C_2
REMARK    2  A    between atoms: C_6  and  N_7
REMARK    3  A    between atoms: C_13  and  C_15
REMARK                            x       y       z     vdW  Elec       q    Type
REMARK                         _______ _______ _______ _____ _____    ______ ____
ROOT
ATOM      1  N   UNL     1       1.461   9.055  19.051  0.00  0.00    +0.000 N 
ATOM      2  C   UNL     1       0.923   9.699  17.858  0.00  0.00    +0.000 C 
ATOM      3  C   UNL     1      -0.592   9.926  17.994  0.00  0.00    +0.000 C 
ATOM      4  C   UNL     1      -0.986  10.649  19.304  0.00  0.00    +0.000 C 
ATOM      5  C   UNL     1      -0.625  12.142  19.147  0.00  0.00    +0.000 C 
ATOM      6  N   UNL     1      -0.547  13.014  20.305  0.00  0.00    +0.000 N 
ATOM      7  C   UNL     1      -0.127  14.338  20.052  0.00  0.00    +0.000 C 
ATOM      8  O   UNL     1       0.068  14.721  18.899  0.00  0.00    +0.000 OA
ATOM      9  C   UNL     1      -1.226  12.607  21.534  0.00  0.00    +0.000 C 
ATOM     10  C   UNL     1      -0.461  11.501  22.246  0.00  0.00    +0.000 C 
ATOM     11  O   UNL     1      -0.849  10.221  21.769  0.00  0.00    +0.000 OA
ATOM     12  C   UNL     1      -0.394   9.835  20.473  0.00  0.00    +0.000 C 
ATOM     13  C   UNL     1       1.125   9.637  20.354  0.00  0.00    +0.000 C 
ENDROOT
BRANCH   1  19
ATOM     14  C   UNL     1       2.317   4.728  20.944  0.00  0.00    +0.000 C 
ATOM     15  C   UNL     1       2.615   5.739  19.877  0.00  0.00    +0.000 A 
ATOM     16  C   UNL     1       3.501   5.432  18.855  0.00  0.00    +0.000 A 
ATOM     17  C   UNL     1       3.721   6.383  17.875  0.00  0.00    +0.000 A 
ATOM     18  C   UNL     1       3.041   7.596  17.942  0.00  0.00    +0.000 A 
ATOM     19  C   UNL     1       2.151   7.858  18.986  0.00  0.00    +0.000 A 
ATOM     20  N   UNL     1       1.960   6.930  19.953  0.00  0.00    +0.000 NA
ENDBRANCH   1  19
BRANCH   7  21
ATOM     21  C   UNL     1       0.056  15.247  21.177  0.00  0.00    +0.000 A 
ATOM     22  C   UNL     1       1.112  15.384  22.063  0.00  0.00    +0.000 A 
ATOM     23  C   UNL     1       0.764  16.423  22.959  0.00  0.00    +0.000 A 
ATOM     24  C   UNL     1      -0.498  16.830  22.595  0.00  0.00    +0.000 A 
ATOM     25  O   UNL     1      -0.945  16.109  21.538  0.00  0.00    +0.000 OA
ENDBRANCH   7  21
TORSDOF 2
ENDMDL
MODEL 9
REMARK VINA RESULT:      -6.1      7.374      9.077
REMARK  Name = 
REMARK  3 active torsions:
REMARK  status: ('A' for Active; 'I' for Inactive)
REMARK    1  A    between atoms: C_1  and  C_2
REMARK    2  A    between atoms: C_6  and  N_7
REMARK    3  A    between atoms: C_13  and  C_15
REMARK                            x       y       z     vdW  Elec       q    Type
REMARK                         _______ _______ _______ _____ _____    ______ ____
ROOT
ATOM      1  N   UNL     1      -4.844  12.118  18.123  0.00  0.00    +0.000 N 
ATOM      2  C   UNL     1      -5.995  12.638  17.392  0.00  0.00    +0.000 C 
ATOM      3  C   UNL     1      -7.311  12.222  18.071  0.00  0.00    +0.000 C 
ATOM      4  C   UNL     1      -7.349  12.554  19.582  0.00  0.00    +0.000 C 
ATOM      5  C   UNL     1      -7.583  14.073  19.726  0.00  0.00    +0.000 C 
ATOM      6  N   UNL     1      -7.327  14.750  20.985  0.00  0.00    +0.000 N 
ATOM      7  C   UNL     1      -7.495  16.152  20.977  0.00  0.00    +0.000 C 
ATOM      8  O   UNL     1      -7.917  16.724  19.973  0.00  0.00    +0.000 OA
ATOM      9  C   UNL     1      -7.281  13.953  22.210  0.00  0.00    +0.000 C 
ATOM     10  C   UNL     1      -5.983  13.164  22.306  0.00  0.00    +0.000 C 
ATOM     11  O   UNL     1      -6.098  11.908  21.654  0.00  0.00    +0.000 OA
ATOM     12  C   UNL     1      -6.109  11.904  20.227  0.00  0.00    +0.000 C 
ATOM     13  C   UNL     1      -4.792  12.346  19.570  0.00  0.00    +0.000 C 
ENDROOT
BRANCH   1  19
ATOM     14  C   UNL     1      -3.239  10.005  14.123  0.00  0.00    +0.000 C 
ATOM     15  C   UNL     1      -3.076  10.251  15.594  0.00  0.00    +0.000 A 
ATOM     16  C   UNL     1      -1.982   9.732  16.270  0.00  0.00    +0.000 A 
ATOM     17  C   UNL     1      -1.855  10.011  17.618  0.00  0.00    +0.000 A 
ATOM     18  C   UNL     1      -2.814  10.807  18.239  0.00  0.00    +0.000 A 
ATOM     19  C   UNL     1      -3.896  11.315  17.516  0.00  0.00    +0.000 A 
ATOM     20  N   UNL     1      -4.023  11.017  16.202  0.00  0.00    +0.000 NA
ENDBRANCH   1  19
BRANCH   7  21
ATOM     21  C   UNL     1      -7.174  16.907  22.182  0.00  0.00    +0.000 A 
ATOM     22  C   UNL     1      -7.913  17.850  22.878  0.00  0.00    +0.000 A 
ATOM     23  C   UNL     1      -7.121  18.261  23.977  0.00  0.00    +0.000 A 
ATOM     24  C   UNL     1      -5.933  17.577  23.866  0.00  0.00    +0.000 A 
ATOM     25  O   UNL     1      -5.946  16.777  22.772  0.00  0.00    +0.000 OA
ENDBRANCH   7  21
TORSDOF 2
ENDMDL
