MODEL 1
REMARK VINA RESULT:      -7.2      0.000      0.000
REMARK  Name = 
REMARK  4 active torsions:
REMARK  status: ('A' for Active; 'I' for Inactive)
REMARK    1  A    between atoms: C_1  and  C_2
REMARK    2  A    between atoms: C_7  and  N_8
REMARK    3  A    between atoms: C_9  and  C_11
REMARK    4  A    between atoms: C_11  and  N_12
REMARK                            x       y       z     vdW  Elec       q    Type
REMARK                         _______ _______ _______ _____ _____    ______ ____
ROOT
ATOM      1  N   UNL     1       2.552   6.628  20.192  0.00  0.00    +0.000 N 
ATOM      2  C   UNL     1       2.252   5.295  20.390  0.00  0.00    +0.000 C 
ATOM      3  O   UNL     1       1.107   4.862  20.487  0.00  0.00    +0.000 OA
ATOM      4  H   UNL     1       3.525   6.902  20.084  0.00  0.00    +0.000 HD
ENDROOT
BRANCH   1  11
ATOM      5  C   UNL     1       2.080   8.236  17.687  0.00  0.00    +0.000 C 
ATOM      6  C   UNL     1       1.901   8.775  19.108  0.00  0.00    +0.000 C 
ATOM      7  C   UNL     1       0.833   9.882  19.095  0.00  0.00    +0.000 C 
ATOM      8  C   UNL     1       0.615  10.474  20.482  0.00  0.00    +0.000 C 
ATOM      9  C   UNL     1       0.253   9.393  21.493  0.00  0.00    +0.000 C 
ATOM     10  C   UNL     1       1.295   8.275  21.519  0.00  0.00    +0.000 C 
ATOM     11  C   UNL     1       1.525   7.668  20.124  0.00  0.00    +0.000 C 
ENDBRANCH   1  11
BRANCH   2  12
ATOM     12  C   UNL     1       3.459   4.358  20.371  0.00  0.00    +0.000 C 
BRANCH  12  13
ATOM     13  N   UNL     1       4.027   4.332  19.033  0.00  0.00    +0.000 N 
ATOM     14  C   UNL     1       3.244   3.979  17.948  0.00  0.00    +0.000 A 
ATOM     15  N   UNL     1       3.648   3.892  16.721  0.00  0.00    +0.000 NA
ATOM     16  C   UNL     1       4.956   4.204  16.541  0.00  0.00    +0.000 A 
ATOM     17  S   UNL     1       5.695   4.138  15.001  0.00  0.00    +0.000 S 
ATOM     18  C   UNL     1       7.199   4.671  15.630  0.00  0.00    +0.000 A 
ATOM     19  C   UNL     1       7.140   4.886  16.990  0.00  0.00    +0.000 A 
ATOM     20  C   UNL     1       5.843   4.603  17.514  0.00  0.00    +0.000 A 
ATOM     21  C   UNL     1       5.367   4.686  18.881  0.00  0.00    +0.000 A 
ATOM     22  O   UNL     1       6.084   5.031  19.815  0.00  0.00    +0.000 OA
ENDBRANCH  12  13
ENDBRANCH   2  12
TORSDOF 3
ENDMDL
MODEL 2
REMARK VINA RESULT:      -6.5      1.295      1.689
REMARK  Name = 
REMARK  4 active torsions:
REMARK  status: ('A' for Active; 'I' for Inactive)
REMARK    1  A    between atoms: C_1  and  C_2
REMARK    2  A    between atoms: C_7  and  N_8
REMARK    3  A    between atoms: C_9  and  C_11
REMARK    4  A    between atoms: C_11  and  N_12
REMARK                            x       y       z     vdW  Elec       q    Type
REMARK                         _______ _______ _______ _____ _____    ______ ____
ROOT
ATOM      1  N   UNL     1       2.557   6.459  20.279  0.00  0.00    +0.000 N 
ATOM      2  C   UNL     1       2.289   5.135  19.994  0.00  0.00    +0.000 C 
ATOM      3  O   UNL     1       1.209   4.736  19.562  0.00  0.00    +0.000 OA
ATOM      4  H   UNL     1       3.488   6.714  20.597  0.00  0.00    +0.000 HD
ENDROOT
BRANCH   1  11
ATOM      5  C   UNL     1       2.220   7.988  17.704  0.00  0.00    +0.000 C 
ATOM      6  C   UNL     1       1.997   8.580  19.097  0.00  0.00    +0.000 C 
ATOM      7  C   UNL     1       0.957   9.708  19.003  0.00  0.00    +0.000 C 
ATOM      8  C   UNL     1       0.698  10.354  20.359  0.00  0.00    +0.000 C 
ATOM      9  C   UNL     1       0.271   9.317  21.391  0.00  0.00    +0.000 C 
ATOM     10  C   UNL     1       1.286   8.178  21.497  0.00  0.00    +0.000 C 
ATOM     11  C   UNL     1       1.557   7.518  20.134  0.00  0.00    +0.000 C 
ENDBRANCH   1  11
BRANCH   2  12
ATOM     12  C   UNL     1       3.480   4.192  20.153  0.00  0.00    +0.000 C 
BRANCH  12  13
ATOM     13  N   UNL     1       4.434   4.440  19.084  0.00  0.00    +0.000 N 
ATOM     14  C   UNL     1       5.514   5.280  19.291  0.00  0.00    +0.000 A 
ATOM     15  N   UNL     1       6.407   5.597  18.408  0.00  0.00    +0.000 NA
ATOM     16  C   UNL     1       6.227   5.009  17.198  0.00  0.00    +0.000 A 
ATOM     17  S   UNL     1       7.283   5.304  15.887  0.00  0.00    +0.000 S 
ATOM     18  C   UNL     1       6.416   4.233  14.866  0.00  0.00    +0.000 A 
ATOM     19  C   UNL     1       5.336   3.669  15.512  0.00  0.00    +0.000 A 
ATOM     20  C   UNL     1       5.225   4.130  16.857  0.00  0.00    +0.000 A 
ATOM     21  C   UNL     1       4.235   3.798  17.862  0.00  0.00    +0.000 A 
ATOM     22  O   UNL     1       3.305   3.025  17.651  0.00  0.00    +0.000 OA
ENDBRANCH  12  13
ENDBRANCH   2  12
TORSDOF 3
ENDMDL
MODEL 3
REMARK VINA RESULT:      -6.4      2.432      4.361
REMARK  Name = 
REMARK  4 active torsions:
REMARK  status: ('A' for Active; 'I' for Inactive)
REMARK    1  A    between atoms: C_1  and  C_2
REMARK    2  A    between atoms: C_7  and  N_8
REMARK    3  A    between atoms: C_9  and  C_11
REMARK    4  A    between atoms: C_11  and  N_12
REMARK                            x       y       z     vdW  Elec       q    Type
REMARK                         _______ _______ _______ _____ _____    ______ ____
ROOT
ATOM      1  N   UNL     1       3.886   4.914  18.040  0.00  0.00    +0.000 N 
ATOM      2  C   UNL     1       5.071   4.462  18.585  0.00  0.00    +0.000 C 
ATOM      3  O   UNL     1       5.132   3.619  19.477  0.00  0.00    +0.000 OA
ATOM      4  H   UNL     1       3.921   5.586  17.277  0.00  0.00    +0.000 HD
ENDROOT
BRANCH   1  11
ATOM      5  C   UNL     1       2.318   6.437  20.115  0.00  0.00    +0.000 C 
ATOM      6  C   UNL     1       2.298   4.915  19.960  0.00  0.00    +0.000 C 
ATOM      7  C   UNL     1       0.941   4.378  20.445  0.00  0.00    +0.000 C 
ATOM      8  C   UNL     1       0.859   2.861  20.330  0.00  0.00    +0.000 C 
ATOM      9  C   UNL     1       1.139   2.399  18.905  0.00  0.00    +0.000 C 
ATOM     10  C   UNL     1       2.479   2.927  18.396  0.00  0.00    +0.000 C 
ATOM     11  C   UNL     1       2.576   4.459  18.506  0.00  0.00    +0.000 C 
ENDBRANCH   1  11
BRANCH   2  12
ATOM     12  C   UNL     1       6.332   5.012  17.921  0.00  0.00    +0.000 C 
BRANCH  12  13
ATOM     13  N   UNL     1       6.330   4.650  16.513  0.00  0.00    +0.000 N 
ATOM     14  C   UNL     1       5.549   3.601  16.061  0.00  0.00    +0.000 A 
ATOM     15  N   UNL     1       5.490   3.172  14.841  0.00  0.00    +0.000 NA
ATOM     16  C   UNL     1       6.269   3.862  13.970  0.00  0.00    +0.000 A 
ATOM     17  S   UNL     1       6.352   3.450  12.313  0.00  0.00    +0.000 S 
ATOM     18  C   UNL     1       7.436   4.736  11.982  0.00  0.00    +0.000 A 
ATOM     19  C   UNL     1       7.736   5.459  13.116  0.00  0.00    +0.000 A 
ATOM     20  C   UNL     1       7.068   4.943  14.266  0.00  0.00    +0.000 A 
ATOM     21  C   UNL     1       7.120   5.398  15.641  0.00  0.00    +0.000 A 
ATOM     22  O   UNL     1       7.804   6.352  16.000  0.00  0.00    +0.000 OA
ENDBRANCH  12  13
ENDBRANCH   2  12
TORSDOF 3
ENDMDL
MODEL 4
REMARK VINA RESULT:      -6.4      3.376      4.561
REMARK  Name = 
REMARK  4 active torsions:
REMARK  status: ('A' for Active; 'I' for Inactive)
REMARK    1  A    between atoms: C_1  and  C_2
REMARK    2  A    between atoms: C_7  and  N_8
REMARK    3  A    between atoms: C_9  and  C_11
REMARK    4  A    between atoms: C_11  and  N_12
REMARK                            x       y       z     vdW  Elec       q    Type
REMARK                         _______ _______ _______ _____ _____    ______ ____
ROOT
ATOM      1  N   UNL     1       4.020   4.737  18.648  0.00  0.00    +0.000 N 
ATOM      2  C   UNL     1       5.389   4.905  18.705  0.00  0.00    +0.000 C 
ATOM      3  O   UNL     1       6.126   4.246  19.435  0.00  0.00    +0.000 OA
ATOM      4  H   UNL     1       3.483   5.295  17.989  0.00  0.00    +0.000 HD
ENDROOT
BRANCH   1  11
ATOM      5  C   UNL     1       2.508   2.405  17.482  0.00  0.00    +0.000 C 
ATOM      6  C   UNL     1       2.097   3.155  18.751  0.00  0.00    +0.000 C 
ATOM      7  C   UNL     1       1.331   2.195  19.677  0.00  0.00    +0.000 C 
ATOM      8  C   UNL     1       0.878   2.885  20.957  0.00  0.00    +0.000 C 
ATOM      9  C   UNL     1       2.056   3.512  21.693  0.00  0.00    +0.000 C 
ATOM     10  C   UNL     1       2.841   4.464  20.791  0.00  0.00    +0.000 C 
ATOM     11  C   UNL     1       3.304   3.780  19.493  0.00  0.00    +0.000 C 
ENDBRANCH   1  11
BRANCH   2  12
ATOM     12  C   UNL     1       5.953   5.909  17.702  0.00  0.00    +0.000 C 
BRANCH  12  13
ATOM     13  N   UNL     1       5.978   5.305  16.379  0.00  0.00    +0.000 N 
ATOM     14  C   UNL     1       5.004   4.395  16.008  0.00  0.00    +0.000 A 
ATOM     15  N   UNL     1       4.943   3.774  14.873  0.00  0.00    +0.000 NA
ATOM     16  C   UNL     1       5.935   4.098  14.006  0.00  0.00    +0.000 A 
ATOM     17  S   UNL     1       6.050   3.381  12.459  0.00  0.00    +0.000 S 
ATOM     18  C   UNL     1       7.439   4.306  12.064  0.00  0.00    +0.000 A 
ATOM     19  C   UNL     1       7.813   5.138  13.097  0.00  0.00    +0.000 A 
ATOM     20  C   UNL     1       6.946   5.006  14.222  0.00  0.00    +0.000 A 
ATOM     21  C   UNL     1       6.995   5.682  15.504  0.00  0.00    +0.000 A 
ATOM     22  O   UNL     1       7.859   6.506  15.788  0.00  0.00    +0.000 OA
ENDBRANCH  12  13
ENDBRANCH   2  12
TORSDOF 3
ENDMDL
MODEL 5
REMARK VINA RESULT:      -6.3      3.337      4.830
REMARK  Name = 
REMARK  4 active torsions:
REMARK  status: ('A' for Active; 'I' for Inactive)
REMARK    1  A    between atoms: C_1  and  C_2
REMARK    2  A    between atoms: C_7  and  N_8
REMARK    3  A    between atoms: C_9  and  C_11
REMARK    4  A    between atoms: C_11  and  N_12
REMARK                            x       y       z     vdW  Elec       q    Type
REMARK                         _______ _______ _______ _____ _____    ______ ____
ROOT
ATOM      1  N   UNL     1       3.989   4.988  18.777  0.00  0.00    +0.000 N 
ATOM      2  C   UNL     1       5.339   5.055  18.491  0.00  0.00    +0.000 C 
ATOM      3  O   UNL     1       6.161   4.233  18.889  0.00  0.00    +0.000 OA
ATOM      4  H   UNL     1       3.367   5.686  18.377  0.00  0.00    +0.000 HD
ENDROOT
BRANCH   1  11
ATOM      5  C   UNL     1       3.044   2.358  17.647  0.00  0.00    +0.000 C 
ATOM      6  C   UNL     1       2.405   3.066  18.844  0.00  0.00    +0.000 C 
ATOM      7  C   UNL     1       1.772   2.014  19.770  0.00  0.00    +0.000 C 
ATOM      8  C   UNL     1       1.102   2.655  20.979  0.00  0.00    +0.000 C 
ATOM      9  C   UNL     1       2.081   3.531  21.753  0.00  0.00    +0.000 C 
ATOM     10  C   UNL     1       2.731   4.580  20.851  0.00  0.00    +0.000 C 
ATOM     11  C   UNL     1       3.412   3.945  19.625  0.00  0.00    +0.000 C 
ENDBRANCH   1  11
BRANCH   2  12
ATOM     12  C   UNL     1       5.735   6.181  17.538  0.00  0.00    +0.000 C 
BRANCH  12  13
ATOM     13  N   UNL     1       6.115   5.614  16.254  0.00  0.00    +0.000 N 
ATOM     14  C   UNL     1       7.389   5.812  15.752  0.00  0.00    +0.000 A 
ATOM     15  N   UNL     1       7.827   5.383  14.612  0.00  0.00    +0.000 NA
ATOM     16  C   UNL     1       6.921   4.667  13.900  0.00  0.00    +0.000 A 
ATOM     17  S   UNL     1       7.289   4.023  12.360  0.00  0.00    +0.000 S 
ATOM     18  C   UNL     1       5.737   3.309  12.217  0.00  0.00    +0.000 A 
ATOM     19  C   UNL     1       4.949   3.567  13.319  0.00  0.00    +0.000 A 
ATOM     20  C   UNL     1       5.635   4.362  14.284  0.00  0.00    +0.000 A 
ATOM     21  C   UNL     1       5.168   4.861  15.563  0.00  0.00    +0.000 A 
ATOM     22  O   UNL     1       4.038   4.641  15.989  0.00  0.00    +0.000 OA
ENDBRANCH  12  13
ENDBRANCH   2  12
TORSDOF 3
ENDMDL
MODEL 6
REMARK VINA RESULT:      -6.2      3.371      7.225
REMARK  Name = 
REMARK  4 active torsions:
REMARK  status: ('A' for Active; 'I' for Inactive)
REMARK    1  A    between atoms: C_1  and  C_2
REMARK    2  A    between atoms: C_7  and  N_8
REMARK    3  A    between atoms: C_9  and  C_11
REMARK    4  A    between atoms: C_11  and  N_12
REMARK                            x       y       z     vdW  Elec       q    Type
REMARK                         _______ _______ _______ _____ _____    ______ ____
ROOT
ATOM      1  N   UNL     1       1.833   5.598  17.983  0.00  0.00    +0.000 N 
ATOM      2  C   UNL     1       2.863   6.467  18.287  0.00  0.00    +0.000 C 
ATOM      3  O   UNL     1       3.984   6.100  18.631  0.00  0.00    +0.000 OA
ATOM      4  H   UNL     1       0.944   5.981  17.669  0.00  0.00    +0.000 HD
ENDROOT
BRANCH   1  11
ATOM      5  C   UNL     1       0.924   4.084  20.426  0.00  0.00    +0.000 C 
ATOM      6  C   UNL     1       2.120   3.689  19.558  0.00  0.00    +0.000 C 
ATOM      7  C   UNL     1       2.315   2.165  19.635  0.00  0.00    +0.000 C 
ATOM      8  C   UNL     1       3.504   1.704  18.801  0.00  0.00    +0.000 C 
ATOM      9  C   UNL     1       3.369   2.154  17.352  0.00  0.00    +0.000 C 
ATOM     10  C   UNL     1       3.166   3.666  17.248  0.00  0.00    +0.000 C 
ATOM     11  C   UNL     1       1.967   4.145  18.086  0.00  0.00    +0.000 C 
ENDBRANCH   1  11
BRANCH   2  12
ATOM     12  C   UNL     1       2.543   7.943  18.058  0.00  0.00    +0.000 C 
BRANCH  12  13
ATOM     13  N   UNL     1       1.822   8.462  19.210  0.00  0.00    +0.000 N 
ATOM     14  C   UNL     1       1.820   7.766  20.406  0.00  0.00    +0.000 A 
ATOM     15  N   UNL     1       1.192   8.115  21.483  0.00  0.00    +0.000 NA
ATOM     16  C   UNL     1       0.509   9.283  21.376  0.00  0.00    +0.000 A 
ATOM     17  S   UNL     1      -0.402   9.916  22.676  0.00  0.00    +0.000 S 
ATOM     18  C   UNL     1      -0.858  11.297  21.767  0.00  0.00    +0.000 A 
ATOM     19  C   UNL     1      -0.333  11.269  20.492  0.00  0.00    +0.000 A 
ATOM     20  C   UNL     1       0.447  10.096  20.268  0.00  0.00    +0.000 A 
ATOM     21  C   UNL     1       1.155   9.679  19.073  0.00  0.00    +0.000 A 
ATOM     22  O   UNL     1       1.157  10.337  18.038  0.00  0.00    +0.000 OA
ENDBRANCH  12  13
ENDBRANCH   2  12
TORSDOF 3
ENDMDL
MODEL 7
REMARK VINA RESULT:      -6.1      3.987      7.750
REMARK  Name = 
REMARK  4 active torsions:
REMARK  status: ('A' for Active; 'I' for Inactive)
REMARK    1  A    between atoms: C_1  and  C_2
REMARK    2  A    between atoms: C_7  and  N_8
REMARK    3  A    between atoms: C_9  and  C_11
REMARK    4  A    between atoms: C_11  and  N_12
REMARK                            x       y       z     vdW  Elec       q    Type
REMARK                         _______ _______ _______ _____ _____    ______ ____
ROOT
ATOM      1  N   UNL     1       2.555   7.270  17.845  0.00  0.00    +0.000 N 
ATOM      2  C   UNL     1       2.072   8.193  18.751  0.00  0.00    +0.000 C 
ATOM      3  O   UNL     1       1.812   7.927  19.922  0.00  0.00    +0.000 OA
ATOM      4  H   UNL     1       2.782   7.578  16.903  0.00  0.00    +0.000 HD
ENDROOT
BRANCH   1  11
ATOM      5  C   UNL     1       5.298   6.021  17.837  0.00  0.00    +0.000 C 
ATOM      6  C   UNL     1       4.010   5.281  17.472  0.00  0.00    +0.000 C 
ATOM      7  C   UNL     1       4.176   3.789  17.803  0.00  0.00    +0.000 C 
ATOM      8  C   UNL     1       2.929   2.988  17.448  0.00  0.00    +0.000 C 
ATOM      9  C   UNL     1       1.695   3.555  18.139  0.00  0.00    +0.000 C 
ATOM     10  C   UNL     1       1.512   5.042  17.833  0.00  0.00    +0.000 C 
ATOM     11  C   UNL     1       2.765   5.862  18.186  0.00  0.00    +0.000 C 
ENDBRANCH   1  11
BRANCH   2  12
ATOM     12  C   UNL     1       1.980   9.623  18.221  0.00  0.00    +0.000 C 
BRANCH  12  13
ATOM     13  N   UNL     1       0.613  10.099  18.356  0.00  0.00    +0.000 N 
ATOM     14  C   UNL     1      -0.381   9.618  17.522  0.00  0.00    +0.000 A 
ATOM     15  N   UNL     1      -1.621   9.991  17.531  0.00  0.00    +0.000 NA
ATOM     16  C   UNL     1      -1.917  10.921  18.473  0.00  0.00    +0.000 A 
ATOM     17  S   UNL     1      -3.493  11.560  18.644  0.00  0.00    +0.000 S 
ATOM     18  C   UNL     1      -3.018  12.545  19.966  0.00  0.00    +0.000 A 
ATOM     19  C   UNL     1      -1.680  12.395  20.263  0.00  0.00    +0.000 A 
ATOM     20  C   UNL     1      -1.046  11.463  19.390  0.00  0.00    +0.000 A 
ATOM     21  C   UNL     1       0.338  11.034  19.354  0.00  0.00    +0.000 A 
ATOM     22  O   UNL     1       1.188  11.461  20.129  0.00  0.00    +0.000 OA
ENDBRANCH  12  13
ENDBRANCH   2  12
TORSDOF 3
ENDMDL
MODEL 8
REMARK VINA RESULT:      -6.1      5.493      6.715
REMARK  Name = 
REMARK  4 active torsions:
REMARK  status: ('A' for Active; 'I' for Inactive)
REMARK    1  A    between atoms: C_1  and  C_2
REMARK    2  A    between atoms: C_7  and  N_8
REMARK    3  A    between atoms: C_9  and  C_11
REMARK    4  A    between atoms: C_11  and  N_12
REMARK                            x       y       z     vdW  Elec       q    Type
REMARK                         _______ _______ _______ _____ _____    ______ ____
ROOT
ATOM      1  N   UNL     1       9.102   9.316  18.895  0.00  0.00    +0.000 N 
ATOM      2  C   UNL     1       8.124   8.920  18.005  0.00  0.00    +0.000 C 
ATOM      3  O   UNL     1       7.227   9.659  17.606  0.00  0.00    +0.000 OA
ATOM      4  H   UNL     1       9.834   8.655  19.147  0.00  0.00    +0.000 HD
ENDROOT
BRANCH   1  11
ATOM      5  C   UNL     1      10.626  11.582  17.620  0.00  0.00    +0.000 C 
ATOM      6  C   UNL     1      10.445  11.402  19.129  0.00  0.00    +0.000 C 
ATOM      7  C   UNL     1      10.483  12.781  19.808  0.00  0.00    +0.000 C 
ATOM      8  C   UNL     1      10.323  12.672  21.319  0.00  0.00    +0.000 C 
ATOM      9  C   UNL     1       9.044  11.929  21.686  0.00  0.00    +0.000 C 
ATOM     10  C   UNL     1       8.977  10.557  21.016  0.00  0.00    +0.000 C 
ATOM     11  C   UNL     1       9.138  10.653  19.488  0.00  0.00    +0.000 C 
ENDBRANCH   1  11
BRANCH   2  12
ATOM     12  C   UNL     1       8.295   7.506  17.453  0.00  0.00    +0.000 C 
BRANCH  12  13
ATOM     13  N   UNL     1       7.246   6.652  17.986  0.00  0.00    +0.000 N 
ATOM     14  C   UNL     1       7.406   6.031  19.212  0.00  0.00    +0.000 A 
ATOM     15  N   UNL     1       6.556   5.228  19.769  0.00  0.00    +0.000 NA
ATOM     16  C   UNL     1       5.422   5.032  19.052  0.00  0.00    +0.000 A 
ATOM     17  S   UNL     1       4.177   3.995  19.599  0.00  0.00    +0.000 S 
ATOM     18  C   UNL     1       3.205   4.334  18.228  0.00  0.00    +0.000 A 
ATOM     19  C   UNL     1       3.824   5.214  17.365  0.00  0.00    +0.000 A 
ATOM     20  C   UNL     1       5.110   5.605  17.840  0.00  0.00    +0.000 A 
ATOM     21  C   UNL     1       6.082   6.494  17.235  0.00  0.00    +0.000 A 
ATOM     22  O   UNL     1       5.893   7.051  16.158  0.00  0.00    +0.000 OA
ENDBRANCH  12  13
ENDBRANCH   2  12
TORSDOF 3
ENDMDL
MODEL 9
REMARK VINA RESULT:      -5.9      2.942      7.179
REMARK  Name = 
REMARK  4 active torsions:
REMARK  status: ('A' for Active; 'I' for Inactive)
REMARK    1  A    between atoms: C_1  and  C_2
REMARK    2  A    between atoms: C_7  and  N_8
REMARK    3  A    between atoms: C_9  and  C_11
REMARK    4  A    between atoms: C_11  and  N_12
REMARK                            x       y       z     vdW  Elec       q    Type
REMARK                         _______ _______ _______ _____ _____    ______ ____
ROOT
ATOM      1  N   UNL     1       3.955   6.084  18.118  0.00  0.00    +0.000 N 
ATOM      2  C   UNL     1       2.635   6.138  18.518  0.00  0.00    +0.000 C 
ATOM      3  O   UNL     1       1.718   5.583  17.916  0.00  0.00    +0.000 OA
ATOM      4  H   UNL     1       4.661   6.539  18.691  0.00  0.00    +0.000 HD
ENDROOT
BRANCH   1  11
ATOM      5  C   UNL     1       4.262   3.087  18.021  0.00  0.00    +0.000 C 
ATOM      6  C   UNL     1       5.129   4.072  17.233  0.00  0.00    +0.000 C 
ATOM      7  C   UNL     1       5.619   3.390  15.945  0.00  0.00    +0.000 C 
ATOM      8  C   UNL     1       6.503   4.314  15.117  0.00  0.00    +0.000 C 
ATOM      9  C   UNL     1       5.787   5.619  14.793  0.00  0.00    +0.000 C 
ATOM     10  C   UNL     1       5.281   6.313  16.058  0.00  0.00    +0.000 C 
ATOM     11  C   UNL     1       4.386   5.390  16.904  0.00  0.00    +0.000 C 
ENDBRANCH   1  11
BRANCH   2  12
ATOM     12  C   UNL     1       2.397   6.859  19.843  0.00  0.00    +0.000 C 
BRANCH  12  13
ATOM     13  N   UNL     1       1.802   8.160  19.583  0.00  0.00    +0.000 N 
ATOM     14  C   UNL     1       1.945   8.759  18.344  0.00  0.00    +0.000 A 
ATOM     15  N   UNL     1       1.487   9.923  18.009  0.00  0.00    +0.000 NA
ATOM     16  C   UNL     1       0.800  10.556  18.993  0.00  0.00    +0.000 A 
ATOM     17  S   UNL     1       0.126  12.110  18.766  0.00  0.00    +0.000 S 
ATOM     18  C   UNL     1      -0.529  12.127  20.351  0.00  0.00    +0.000 A 
ATOM     19  C   UNL     1      -0.230  10.972  21.043  0.00  0.00    +0.000 A 
ATOM     20  C   UNL     1       0.549  10.072  20.257  0.00  0.00    +0.000 A 
ATOM     21  C   UNL     1       1.078   8.769  20.607  0.00  0.00    +0.000 A 
ATOM     22  O   UNL     1       0.907   8.256  21.709  0.00  0.00    +0.000 OA
ENDBRANCH  12  13
ENDBRANCH   2  12
TORSDOF 3
ENDMDL
