MODEL 1
REMARK VINA RESULT:      -8.9      0.000      0.000
REMARK  Name = 
REMARK  6 active torsions:
REMARK  status: ('A' for Active; 'I' for Inactive)
REMARK    1  A    between atoms: C_1  and  O_2
REMARK    2  A    between atoms: O_2  and  C_3
REMARK    3  A    between atoms: C_7  and  C_8
REMARK    4  A    between atoms: C_8  and  N_9
REMARK    5  A    between atoms: N_9  and  C_10
REMARK    6  A    between atoms: C_14  and  C_15
REMARK                            x       y       z     vdW  Elec       q    Type
REMARK                         _______ _______ _______ _____ _____    ______ ____
ROOT
ATOM      1  C   UNL     1       2.055   7.518  19.925  0.00  0.00    +0.000 C 
ENDROOT
BRANCH   1   6
ATOM      2  C   UNL     1       4.787   4.296  16.752  0.00  0.00    +0.000 A 
ATOM      3  C   UNL     1       4.656   5.683  16.820  0.00  0.00    +0.000 A 
ATOM      4  C   UNL     1       3.861   6.283  17.806  0.00  0.00    +0.000 A 
ATOM      5  C   UNL     1       3.167   5.499  18.740  0.00  0.00    +0.000 A 
ATOM      6  C   UNL     1       2.284   6.036  19.786  0.00  0.00    +0.000 A 
ATOM      7  C   UNL     1       1.632   5.162  20.572  0.00  0.00    +0.000 A 
ATOM      8  C   UNL     1       1.772   3.703  20.473  0.00  0.00    +0.000 A 
ATOM      9  O   UNL     1       1.135   2.954  21.204  0.00  0.00    +0.000 OA
ATOM     10  O   UNL     1       2.654   3.232  19.520  0.00  0.00    +0.000 OA
ATOM     11  C   UNL     1       3.318   4.116  18.649  0.00  0.00    +0.000 A 
ATOM     12  C   UNL     1       4.117   3.509  17.684  0.00  0.00    +0.000 A 
BRANCH   2  14
ATOM     13  C   UNL     1       6.777   4.558  15.495  0.00  0.00    +0.000 C 
ATOM     14  O   UNL     1       5.581   3.819  15.748  0.00  0.00    +0.000 OA
ENDBRANCH   2  14
ENDBRANCH   1   6
BRANCH   1  15
ATOM     15  N   UNL     1       1.709   7.815  21.311  0.00  0.00    +0.000 N 
ATOM     16  H   UNL     1       2.510   7.758  21.937  0.00  0.00    +0.000 HD
BRANCH  15  17
ATOM     17  C   UNL     1       0.932   8.955  21.559  0.00  0.00    +0.000 A 
ATOM     18  C   UNL     1       0.125   8.998  22.703  0.00  0.00    +0.000 A 
ATOM     19  C   UNL     1      -0.734  10.081  22.965  0.00  0.00    +0.000 A 
ATOM     20  C   UNL     1      -0.842  11.146  22.068  0.00  0.00    +0.000 A 
ATOM     21  C   UNL     1      -1.748  12.293  22.234  0.00  0.00    +0.000 A 
ATOM     22  C   UNL     1      -2.696  12.421  23.391  0.00  0.00    +0.000 C 
ATOM     23  C   UNL     1      -1.736  13.249  21.292  0.00  0.00    +0.000 A 
ATOM     24  C   UNL     1      -0.871  13.217  20.103  0.00  0.00    +0.000 A 
ATOM     25  O   UNL     1      -0.884  14.135  19.292  0.00  0.00    +0.000 OA
ATOM     26  O   UNL     1      -0.064  12.106  19.954  0.00  0.00    +0.000 OA
ATOM     27  C   UNL     1      -0.048  11.084  20.925  0.00  0.00    +0.000 A 
ATOM     28  C   UNL     1       0.811  10.012  20.656  0.00  0.00    +0.000 A 
ENDBRANCH  15  17
ENDBRANCH   1  15
TORSDOF 4
ENDMDL
MODEL 2
REMARK VINA RESULT:      -8.8      2.547      9.002
REMARK  Name = 
REMARK  6 active torsions:
REMARK  status: ('A' for Active; 'I' for Inactive)
REMARK    1  A    between atoms: C_1  and  O_2
REMARK    2  A    between atoms: O_2  and  C_3
REMARK    3  A    between atoms: C_7  and  C_8
REMARK    4  A    between atoms: C_8  and  N_9
REMARK    5  A    between atoms: N_9  and  C_10
REMARK    6  A    between atoms: C_14  and  C_15
REMARK                            x       y       z     vdW  Elec       q    Type
REMARK                         _______ _______ _______ _____ _____    ______ ____
ROOT
ATOM      1  C   UNL     1       1.148   9.279  18.298  0.00  0.00    +0.000 C 
ENDROOT
BRANCH   1   6
ATOM      2  C   UNL     1      -3.669  11.387  17.781  0.00  0.00    +0.000 A 
ATOM      3  C   UNL     1      -2.953  10.449  17.037  0.00  0.00    +0.000 A 
ATOM      4  C   UNL     1      -1.669  10.048  17.430  0.00  0.00    +0.000 A 
ATOM      5  C   UNL     1      -1.068  10.594  18.575  0.00  0.00    +0.000 A 
ATOM      6  C   UNL     1       0.284  10.261  19.046  0.00  0.00    +0.000 A 
ATOM      7  C   UNL     1       0.756  10.911  20.124  0.00  0.00    +0.000 A 
ATOM      8  C   UNL     1      -0.010  11.908  20.883  0.00  0.00    +0.000 A 
ATOM      9  O   UNL     1       0.481  12.484  21.847  0.00  0.00    +0.000 OA
ATOM     10  O   UNL     1      -1.298  12.155  20.452  0.00  0.00    +0.000 OA
ATOM     11  C   UNL     1      -1.808  11.528  19.298  0.00  0.00    +0.000 A 
ATOM     12  C   UNL     1      -3.090  11.923  18.928  0.00  0.00    +0.000 A 
BRANCH   2  14
ATOM     13  C   UNL     1      -6.013  11.104  17.974  0.00  0.00    +0.000 C 
ATOM     14  O   UNL     1      -4.907  11.710  17.302  0.00  0.00    +0.000 OA
ENDBRANCH   2  14
ENDBRANCH   1   6
BRANCH   1  15
ATOM     15  N   UNL     1       2.086   8.667  19.233  0.00  0.00    +0.000 N 
ATOM     16  H   UNL     1       1.978   9.016  20.183  0.00  0.00    +0.000 HD
BRANCH  15  17
ATOM     17  C   UNL     1       2.220   7.272  19.202  0.00  0.00    +0.000 A 
ATOM     18  C   UNL     1       2.515   6.639  17.987  0.00  0.00    +0.000 A 
ATOM     19  C   UNL     1       2.585   5.239  17.878  0.00  0.00    +0.000 A 
ATOM     20  C   UNL     1       2.326   4.418  18.978  0.00  0.00    +0.000 A 
ATOM     21  C   UNL     1       2.327   2.947  18.945  0.00  0.00    +0.000 A 
ATOM     22  C   UNL     1       2.576   2.161  17.691  0.00  0.00    +0.000 C 
ATOM     23  C   UNL     1       2.069   2.289  20.086  0.00  0.00    +0.000 A 
ATOM     24  C   UNL     1       1.784   2.953  21.367  0.00  0.00    +0.000 A 
ATOM     25  O   UNL     1       1.584   2.297  22.383  0.00  0.00    +0.000 OA
ATOM     26  O   UNL     1       1.747   4.334  21.356  0.00  0.00    +0.000 OA
ATOM     27  C   UNL     1       2.016   5.057  20.177  0.00  0.00    +0.000 A 
ATOM     28  C   UNL     1       1.945   6.450  20.296  0.00  0.00    +0.000 A 
ENDBRANCH  15  17
ENDBRANCH   1  15
TORSDOF 4
ENDMDL
MODEL 3
REMARK VINA RESULT:      -8.8      2.863      4.475
REMARK  Name = 
REMARK  6 active torsions:
REMARK  status: ('A' for Active; 'I' for Inactive)
REMARK    1  A    between atoms: C_1  and  O_2
REMARK    2  A    between atoms: O_2  and  C_3
REMARK    3  A    between atoms: C_7  and  C_8
REMARK    4  A    between atoms: C_8  and  N_9
REMARK    5  A    between atoms: N_9  and  C_10
REMARK    6  A    between atoms: C_14  and  C_15
REMARK                            x       y       z     vdW  Elec       q    Type
REMARK                         _______ _______ _______ _____ _____    ______ ____
ROOT
ATOM      1  C   UNL     1       4.286   4.455  18.588  0.00  0.00    +0.000 C 
ENDROOT
BRANCH   1   6
ATOM      2  C   UNL     1       6.481   4.230  13.788  0.00  0.00    +0.000 A 
ATOM      3  C   UNL     1       5.376   3.602  14.363  0.00  0.00    +0.000 A 
ATOM      4  C   UNL     1       5.000   3.875  15.685  0.00  0.00    +0.000 A 
ATOM      5  C   UNL     1       5.738   4.778  16.466  0.00  0.00    +0.000 A 
ATOM      6  C   UNL     1       5.442   5.100  17.870  0.00  0.00    +0.000 A 
ATOM      7  C   UNL     1       6.274   5.936  18.515  0.00  0.00    +0.000 A 
ATOM      8  C   UNL     1       7.442   6.574  17.895  0.00  0.00    +0.000 A 
ATOM      9  O   UNL     1       8.178   7.312  18.540  0.00  0.00    +0.000 OA
ATOM     10  O   UNL     1       7.660   6.298  16.559  0.00  0.00    +0.000 OA
ATOM     11  C   UNL     1       6.836   5.390  15.865  0.00  0.00    +0.000 A 
ATOM     12  C   UNL     1       7.211   5.140  14.548  0.00  0.00    +0.000 A 
BRANCH   2  14
ATOM     13  C   UNL     1       5.898   2.906  11.913  0.00  0.00    +0.000 C 
ATOM     14  O   UNL     1       6.760   3.885  12.496  0.00  0.00    +0.000 OA
ENDBRANCH   2  14
ENDBRANCH   1   6
BRANCH   1  15
ATOM     15  N   UNL     1       3.045   5.080  18.143  0.00  0.00    +0.000 N 
ATOM     16  H   UNL     1       2.309   4.402  17.957  0.00  0.00    +0.000 HD
BRANCH  15  17
ATOM     17  C   UNL     1       2.570   6.179  18.873  0.00  0.00    +0.000 A 
ATOM     18  C   UNL     1       2.113   5.986  20.183  0.00  0.00    +0.000 A 
ATOM     19  C   UNL     1       1.554   7.034  20.936  0.00  0.00    +0.000 A 
ATOM     20  C   UNL     1       1.399   8.309  20.389  0.00  0.00    +0.000 A 
ATOM     21  C   UNL     1       0.781   9.450  21.082  0.00  0.00    +0.000 A 
ATOM     22  C   UNL     1       0.209   9.348  22.466  0.00  0.00    +0.000 C 
ATOM     23  C   UNL     1       0.709  10.622  20.432  0.00  0.00    +0.000 A 
ATOM     24  C   UNL     1       1.212  10.832  19.066  0.00  0.00    +0.000 A 
ATOM     25  O   UNL     1       1.144  11.935  18.535  0.00  0.00    +0.000 OA
ATOM     26  O   UNL     1       1.746   9.731  18.425  0.00  0.00    +0.000 OA
ATOM     27  C   UNL     1       1.841   8.486  19.079  0.00  0.00    +0.000 A 
ATOM     28  C   UNL     1       2.400   7.450  18.321  0.00  0.00    +0.000 A 
ENDBRANCH  15  17
ENDBRANCH   1  15
TORSDOF 4
ENDMDL
MODEL 4
REMARK VINA RESULT:      -8.7      2.702      8.826
REMARK  Name = 
REMARK  6 active torsions:
REMARK  status: ('A' for Active; 'I' for Inactive)
REMARK    1  A    between atoms: C_1  and  O_2
REMARK    2  A    between atoms: O_2  and  C_3
REMARK    3  A    between atoms: C_7  and  C_8
REMARK    4  A    between atoms: C_8  and  N_9
REMARK    5  A    between atoms: N_9  and  C_10
REMARK    6  A    between atoms: C_14  and  C_15
REMARK                            x       y       z     vdW  Elec       q    Type
REMARK                         _______ _______ _______ _____ _____    ______ ____
ROOT
ATOM      1  C   UNL     1       1.248   9.245  17.788  0.00  0.00    +0.000 C 
ENDROOT
BRANCH   1   6
ATOM      2  C   UNL     1      -3.718  11.027  17.527  0.00  0.00    +0.000 A 
ATOM      3  C   UNL     1      -2.966  10.176  16.717  0.00  0.00    +0.000 A 
ATOM      4  C   UNL     1      -1.644   9.849  17.049  0.00  0.00    +0.000 A 
ATOM      5  C   UNL     1      -1.042  10.385  18.198  0.00  0.00    +0.000 A 
ATOM      6  C   UNL     1       0.346  10.129  18.608  0.00  0.00    +0.000 A 
ATOM      7  C   UNL     1       0.810  10.762  19.700  0.00  0.00    +0.000 A 
ATOM      8  C   UNL     1       0.005  11.668  20.529  0.00  0.00    +0.000 A 
ATOM      9  O   UNL     1       0.488  12.234  21.502  0.00  0.00    +0.000 OA
ATOM     10  O   UNL     1      -1.313  11.842  20.152  0.00  0.00    +0.000 OA
ATOM     11  C   UNL     1      -1.819  11.232  18.988  0.00  0.00    +0.000 A 
ATOM     12  C   UNL     1      -3.137  11.551  18.678  0.00  0.00    +0.000 A 
BRANCH   2  14
ATOM     13  C   UNL     1      -5.658  12.368  17.752  0.00  0.00    +0.000 C 
ATOM     14  O   UNL     1      -4.992  11.282  17.104  0.00  0.00    +0.000 OA
ENDBRANCH   2  14
ENDBRANCH   1   6
BRANCH   1  15
ATOM     15  N   UNL     1       2.300   8.714  18.648  0.00  0.00    +0.000 N 
ATOM     16  H   UNL     1       2.506   9.323  19.438  0.00  0.00    +0.000 HD
BRANCH  15  17
ATOM     17  C   UNL     1       2.208   7.369  19.036  0.00  0.00    +0.000 A 
ATOM     18  C   UNL     1       1.693   7.054  20.299  0.00  0.00    +0.000 A 
ATOM     19  C   UNL     1       1.649   5.731  20.774  0.00  0.00    +0.000 A 
ATOM     20  C   UNL     1       2.154   4.676  20.010  0.00  0.00    +0.000 A 
ATOM     21  C   UNL     1       2.196   3.271  20.444  0.00  0.00    +0.000 A 
ATOM     22  C   UNL     1       1.722   2.823  21.796  0.00  0.00    +0.000 C 
ATOM     23  C   UNL     1       2.703   2.362  19.597  0.00  0.00    +0.000 A 
ATOM     24  C   UNL     1       3.221   2.689  18.260  0.00  0.00    +0.000 A 
ATOM     25  O   UNL     1       3.646   1.810  17.519  0.00  0.00    +0.000 OA
ATOM     26  O   UNL     1       3.209   4.022  17.899  0.00  0.00    +0.000 OA
ATOM     27  C   UNL     1       2.681   5.003  18.762  0.00  0.00    +0.000 A 
ATOM     28  C   UNL     1       2.728   6.317  18.280  0.00  0.00    +0.000 A 
ENDBRANCH  15  17
ENDBRANCH   1  15
TORSDOF 4
ENDMDL
MODEL 5
REMARK VINA RESULT:      -8.7      2.751      3.983
REMARK  Name = 
REMARK  6 active torsions:
REMARK  status: ('A' for Active; 'I' for Inactive)
REMARK    1  A    between atoms: C_1  and  O_2
REMARK    2  A    between atoms: O_2  and  C_3
REMARK    3  A    between atoms: C_7  and  C_8
REMARK    4  A    between atoms: C_8  and  N_9
REMARK    5  A    between atoms: N_9  and  C_10
REMARK    6  A    between atoms: C_14  and  C_15
REMARK                            x       y       z     vdW  Elec       q    Type
REMARK                         _______ _______ _______ _____ _____    ______ ____
ROOT
ATOM      1  C   UNL     1       3.329   5.941  18.317  0.00  0.00    +0.000 C 
ENDROOT
BRANCH   1   6
ATOM      2  C   UNL     1       6.660   4.467  14.491  0.00  0.00    +0.000 A 
ATOM      3  C   UNL     1       5.294   4.747  14.511  0.00  0.00    +0.000 A 
ATOM      4  C   UNL     1       4.659   5.149  15.694  0.00  0.00    +0.000 A 
ATOM      5  C   UNL     1       5.384   5.264  16.891  0.00  0.00    +0.000 A 
ATOM      6  C   UNL     1       4.799   5.643  18.186  0.00  0.00    +0.000 A 
ATOM      7  C   UNL     1       5.602   5.650  19.264  0.00  0.00    +0.000 A 
ATOM      8  C   UNL     1       7.036   5.335  19.223  0.00  0.00    +0.000 A 
ATOM      9  O   UNL     1       7.714   5.337  20.243  0.00  0.00    +0.000 OA
ATOM     10  O   UNL     1       7.568   5.040  17.983  0.00  0.00    +0.000 OA
ATOM     11  C   UNL     1       6.747   4.978  16.840  0.00  0.00    +0.000 A 
ATOM     12  C   UNL     1       7.392   4.593  15.668  0.00  0.00    +0.000 A 
BRANCH   2  14
ATOM     13  C   UNL     1       6.273   3.382  12.422  0.00  0.00    +0.000 C 
ATOM     14  O   UNL     1       7.173   4.078  13.286  0.00  0.00    +0.000 OA
ENDBRANCH   2  14
ENDBRANCH   1   6
BRANCH   1  15
ATOM     15  N   UNL     1       3.075   7.293  17.833  0.00  0.00    +0.000 N 
ATOM     16  H   UNL     1       2.915   7.327  16.829  0.00  0.00    +0.000 HD
BRANCH  15  17
ATOM     17  C   UNL     1       2.147   8.074  18.537  0.00  0.00    +0.000 A 
ATOM     18  C   UNL     1       1.357   8.995  17.837  0.00  0.00    +0.000 A 
ATOM     19  C   UNL     1       0.465   9.859  18.497  0.00  0.00    +0.000 A 
ATOM     20  C   UNL     1       0.358   9.857  19.889  0.00  0.00    +0.000 A 
ATOM     21  C   UNL     1      -0.508  10.757  20.666  0.00  0.00    +0.000 A 
ATOM     22  C   UNL     1      -1.358  11.818  20.029  0.00  0.00    +0.000 C 
ATOM     23  C   UNL     1      -0.513  10.632  22.002  0.00  0.00    +0.000 A 
ATOM     24  C   UNL     1       0.296   9.648  22.736  0.00  0.00    +0.000 A 
ATOM     25  O   UNL     1       0.227   9.563  23.956  0.00  0.00    +0.000 OA
ATOM     26  O   UNL     1       1.132   8.847  21.982  0.00  0.00    +0.000 OA
ATOM     27  C   UNL     1       1.162   8.949  20.576  0.00  0.00    +0.000 A 
ATOM     28  C   UNL     1       2.052   8.083  19.929  0.00  0.00    +0.000 A 
ENDBRANCH  15  17
ENDBRANCH   1  15
TORSDOF 4
ENDMDL
MODEL 6
REMARK VINA RESULT:      -8.6      1.171      1.382
REMARK  Name = 
REMARK  6 active torsions:
REMARK  status: ('A' for Active; 'I' for Inactive)
REMARK    1  A    between atoms: C_1  and  O_2
REMARK    2  A    between atoms: O_2  and  C_3
REMARK    3  A    between atoms: C_7  and  C_8
REMARK    4  A    between atoms: C_8  and  N_9
REMARK    5  A    between atoms: N_9  and  C_10
REMARK    6  A    between atoms: C_14  and  C_15
REMARK                            x       y       z     vdW  Elec       q    Type
REMARK                         _______ _______ _______ _____ _____    ______ ____
ROOT
ATOM      1  C   UNL     1       2.528   7.283  18.862  0.00  0.00    +0.000 C 
ENDROOT
BRANCH   1   6
ATOM      2  C   UNL     1       5.787   4.612  15.676  0.00  0.00    +0.000 A 
ATOM      3  C   UNL     1       5.687   5.958  16.027  0.00  0.00    +0.000 A 
ATOM      4  C   UNL     1       4.714   6.394  16.938  0.00  0.00    +0.000 A 
ATOM      5  C   UNL     1       3.808   5.485  17.506  0.00  0.00    +0.000 A 
ATOM      6  C   UNL     1       2.735   5.852  18.441  0.00  0.00    +0.000 A 
ATOM      7  C   UNL     1       1.900   4.884  18.856  0.00  0.00    +0.000 A 
ATOM      8  C   UNL     1       2.013   3.475  18.461  0.00  0.00    +0.000 A 
ATOM      9  O   UNL     1       1.208   2.639  18.855  0.00  0.00    +0.000 OA
ATOM     10  O   UNL     1       3.067   3.151  17.628  0.00  0.00    +0.000 OA
ATOM     11  C   UNL     1       3.933   4.146  17.137  0.00  0.00    +0.000 A 
ATOM     12  C   UNL     1       4.904   3.699  16.246  0.00  0.00    +0.000 A 
BRANCH   2  14
ATOM     13  C   UNL     1       6.316   3.874  13.488  0.00  0.00    +0.000 C 
ATOM     14  O   UNL     1       6.766   4.301  14.775  0.00  0.00    +0.000 OA
ENDBRANCH   2  14
ENDBRANCH   1   6
BRANCH   1  15
ATOM     15  N   UNL     1       2.041   7.306  20.238  0.00  0.00    +0.000 N 
ATOM     16  H   UNL     1       2.760   7.054  20.913  0.00  0.00    +0.000 HD
BRANCH  15  17
ATOM     17  C   UNL     1       1.305   8.425  20.651  0.00  0.00    +0.000 A 
ATOM     18  C   UNL     1       0.678   8.408  21.903  0.00  0.00    +0.000 A 
ATOM     19  C   UNL     1      -0.137   9.469  22.339  0.00  0.00    +0.000 A 
ATOM     20  C   UNL     1      -0.382  10.572  21.518  0.00  0.00    +0.000 A 
ATOM     21  C   UNL     1      -1.258  11.700  21.870  0.00  0.00    +0.000 A 
ATOM     22  C   UNL     1      -2.023  11.766  23.160  0.00  0.00    +0.000 C 
ATOM     23  C   UNL     1      -1.391  12.697  20.981  0.00  0.00    +0.000 A 
ATOM     24  C   UNL     1      -0.713  12.728  19.677  0.00  0.00    +0.000 A 
ATOM     25  O   UNL     1      -0.851  13.681  18.919  0.00  0.00    +0.000 OA
ATOM     26  O   UNL     1       0.067  11.633  19.358  0.00  0.00    +0.000 OA
ATOM     27  C   UNL     1       0.232  10.570  20.268  0.00  0.00    +0.000 A 
ATOM     28  C   UNL     1       1.046   9.520  19.825  0.00  0.00    +0.000 A 
ENDBRANCH  15  17
ENDBRANCH   1  15
TORSDOF 4
ENDMDL
MODEL 7
REMARK VINA RESULT:      -8.6      2.735      3.072
REMARK  Name = 
REMARK  6 active torsions:
REMARK  status: ('A' for Active; 'I' for Inactive)
REMARK    1  A    between atoms: C_1  and  O_2
REMARK    2  A    between atoms: O_2  and  C_3
REMARK    3  A    between atoms: C_7  and  C_8
REMARK    4  A    between atoms: C_8  and  N_9
REMARK    5  A    between atoms: N_9  and  C_10
REMARK    6  A    between atoms: C_14  and  C_15
REMARK                            x       y       z     vdW  Elec       q    Type
REMARK                         _______ _______ _______ _____ _____    ______ ____
ROOT
ATOM      1  C   UNL     1       2.348   8.489  18.169  0.00  0.00    +0.000 C 
ENDROOT
BRANCH   1   6
ATOM      2  C   UNL     1       5.634   4.736  16.429  0.00  0.00    +0.000 A 
ATOM      3  C   UNL     1       5.292   6.001  15.952  0.00  0.00    +0.000 A 
ATOM      4  C   UNL     1       4.385   6.812  16.648  0.00  0.00    +0.000 A 
ATOM      5  C   UNL     1       3.788   6.361  17.835  0.00  0.00    +0.000 A 
ATOM      6  C   UNL     1       2.802   7.124  18.615  0.00  0.00    +0.000 A 
ATOM      7  C   UNL     1       2.265   6.539  19.699  0.00  0.00    +0.000 A 
ATOM      8  C   UNL     1       2.627   5.198  20.175  0.00  0.00    +0.000 A 
ATOM      9  O   UNL     1       2.087   4.708  21.159  0.00  0.00    +0.000 OA
ATOM     10  O   UNL     1       3.599   4.530  19.456  0.00  0.00    +0.000 OA
ATOM     11  C   UNL     1       4.150   5.093  18.288  0.00  0.00    +0.000 A 
ATOM     12  C   UNL     1       5.060   4.284  17.614  0.00  0.00    +0.000 A 
BRANCH   2  14
ATOM     13  C   UNL     1       6.954   4.666  14.463  0.00  0.00    +0.000 C 
ATOM     14  O   UNL     1       6.521   4.030  15.667  0.00  0.00    +0.000 OA
ENDBRANCH   2  14
ENDBRANCH   1   6
BRANCH   1  15
ATOM     15  N   UNL     1       1.670   9.148  19.281  0.00  0.00    +0.000 N 
ATOM     16  H   UNL     1       2.297   9.725  19.837  0.00  0.00    +0.000 HD
BRANCH  15  17
ATOM     17  C   UNL     1       0.460   9.802  19.011  0.00  0.00    +0.000 A 
ATOM     18  C   UNL     1      -0.156  10.549  20.023  0.00  0.00    +0.000 A 
ATOM     19  C   UNL     1      -1.407  11.162  19.836  0.00  0.00    +0.000 A 
ATOM     20  C   UNL     1      -2.107  11.018  18.636  0.00  0.00    +0.000 A 
ATOM     21  C   UNL     1      -3.439  11.581  18.369  0.00  0.00    +0.000 A 
ATOM     22  C   UNL     1      -4.217  12.353  19.395  0.00  0.00    +0.000 C 
ATOM     23  C   UNL     1      -3.985  11.368  17.161  0.00  0.00    +0.000 A 
ATOM     24  C   UNL     1      -3.329  10.605  16.089  0.00  0.00    +0.000 A 
ATOM     25  O   UNL     1      -3.866  10.469  14.996  0.00  0.00    +0.000 OA
ATOM     26  O   UNL     1      -2.097  10.053  16.385  0.00  0.00    +0.000 OA
ATOM     27  C   UNL     1      -1.493  10.259  17.641  0.00  0.00    +0.000 A 
ATOM     28  C   UNL     1      -0.247   9.645  17.817  0.00  0.00    +0.000 A 
ENDBRANCH  15  17
ENDBRANCH   1  15
TORSDOF 4
ENDMDL
MODEL 8
REMARK VINA RESULT:      -8.5      2.858      4.637
REMARK  Name = 
REMARK  6 active torsions:
REMARK  status: ('A' for Active; 'I' for Inactive)
REMARK    1  A    between atoms: C_1  and  O_2
REMARK    2  A    between atoms: O_2  and  C_3
REMARK    3  A    between atoms: C_7  and  C_8
REMARK    4  A    between atoms: C_8  and  N_9
REMARK    5  A    between atoms: N_9  and  C_10
REMARK    6  A    between atoms: C_14  and  C_15
REMARK                            x       y       z     vdW  Elec       q    Type
REMARK                         _______ _______ _______ _____ _____    ______ ____
ROOT
ATOM      1  C   UNL     1       4.192   5.660  18.744  0.00  0.00    +0.000 C 
ENDROOT
BRANCH   1   6
ATOM      2  C   UNL     1       6.227   3.946  14.180  0.00  0.00    +0.000 A 
ATOM      3  C   UNL     1       5.098   3.585  14.917  0.00  0.00    +0.000 A 
ATOM      4  C   UNL     1       4.780   4.243  16.113  0.00  0.00    +0.000 A 
ATOM      5  C   UNL     1       5.601   5.271  16.604  0.00  0.00    +0.000 A 
ATOM      6  C   UNL     1       5.368   5.993  17.864  0.00  0.00    +0.000 A 
ATOM      7  C   UNL     1       6.273   6.911  18.242  0.00  0.00    +0.000 A 
ATOM      8  C   UNL     1       7.464   7.264  17.458  0.00  0.00    +0.000 A 
ATOM      9  O   UNL     1       8.266   8.095  17.865  0.00  0.00    +0.000 OA
ATOM     10  O   UNL     1       7.623   6.611  16.251  0.00  0.00    +0.000 OA
ATOM     11  C   UNL     1       6.720   5.609  15.846  0.00  0.00    +0.000 A 
ATOM     12  C   UNL     1       7.038   4.975  14.649  0.00  0.00    +0.000 A 
BRANCH   2  14
ATOM     13  C   UNL     1       5.437   3.351  12.027  0.00  0.00    +0.000 C 
ATOM     14  O   UNL     1       6.444   3.234  13.034  0.00  0.00    +0.000 OA
ENDBRANCH   2  14
ENDBRANCH   1   6
BRANCH   1  15
ATOM     15  N   UNL     1       2.967   6.094  18.081  0.00  0.00    +0.000 N 
ATOM     16  H   UNL     1       2.339   5.321  17.872  0.00  0.00    +0.000 HD
BRANCH  15  17
ATOM     17  C   UNL     1       2.283   7.190  18.626  0.00  0.00    +0.000 A 
ATOM     18  C   UNL     1       1.951   8.271  17.798  0.00  0.00    +0.000 A 
ATOM     19  C   UNL     1       1.336   9.430  18.303  0.00  0.00    +0.000 A 
ATOM     20  C   UNL     1       1.063   9.564  19.666  0.00  0.00    +0.000 A 
ATOM     21  C   UNL     1       0.469  10.757  20.289  0.00  0.00    +0.000 A 
ATOM     22  C   UNL     1       0.122  11.993  19.512  0.00  0.00    +0.000 C 
ATOM     23  C   UNL     1       0.255  10.738  21.614  0.00  0.00    +0.000 A 
ATOM     24  C   UNL     1       0.580   9.595  22.480  0.00  0.00    +0.000 A 
ATOM     25  O   UNL     1       0.334   9.626  23.680  0.00  0.00    +0.000 OA
ATOM     26  O   UNL     1       1.177   8.507  21.872  0.00  0.00    +0.000 OA
ATOM     27  C   UNL     1       1.414   8.491  20.483  0.00  0.00    +0.000 A 
ATOM     28  C   UNL     1       2.025   7.332  19.990  0.00  0.00    +0.000 A 
ENDBRANCH  15  17
ENDBRANCH   1  15
TORSDOF 4
ENDMDL
MODEL 9
REMARK VINA RESULT:      -8.5      2.671      4.147
REMARK  Name = 
REMARK  6 active torsions:
REMARK  status: ('A' for Active; 'I' for Inactive)
REMARK    1  A    between atoms: C_1  and  O_2
REMARK    2  A    between atoms: O_2  and  C_3
REMARK    3  A    between atoms: C_7  and  C_8
REMARK    4  A    between atoms: C_8  and  N_9
REMARK    5  A    between atoms: N_9  and  C_10
REMARK    6  A    between atoms: C_14  and  C_15
REMARK                            x       y       z     vdW  Elec       q    Type
REMARK                         _______ _______ _______ _____ _____    ______ ____
ROOT
ATOM      1  C   UNL     1       3.474   4.912  18.589  0.00  0.00    +0.000 C 
ENDROOT
BRANCH   1   6
ATOM      2  C   UNL     1       6.555   4.536  14.314  0.00  0.00    +0.000 A 
ATOM      3  C   UNL     1       5.178   4.426  14.510  0.00  0.00    +0.000 A 
ATOM      4  C   UNL     1       4.618   4.600  15.783  0.00  0.00    +0.000 A 
ATOM      5  C   UNL     1       5.433   4.875  16.892  0.00  0.00    +0.000 A 
ATOM      6  C   UNL     1       4.940   5.038  18.268  0.00  0.00    +0.000 A 
ATOM      7  C   UNL     1       5.844   5.235  19.243  0.00  0.00    +0.000 A 
ATOM      8  C   UNL     1       7.291   5.331  19.016  0.00  0.00    +0.000 A 
ATOM      9  O   UNL     1       8.070   5.490  19.949  0.00  0.00    +0.000 OA
ATOM     10  O   UNL     1       7.718   5.233  17.706  0.00  0.00    +0.000 OA
ATOM     11  C   UNL     1       6.804   4.980  16.665  0.00  0.00    +0.000 A 
ATOM     12  C   UNL     1       7.372   4.825  15.403  0.00  0.00    +0.000 A 
BRANCH   2  14
ATOM     13  C   UNL     1       7.963   5.276  12.558  0.00  0.00    +0.000 C 
ATOM     14  O   UNL     1       6.993   4.341  13.034  0.00  0.00    +0.000 OA
ENDBRANCH   2  14
ENDBRANCH   1   6
BRANCH   1  15
ATOM     15  N   UNL     1       3.210   5.571  19.863  0.00  0.00    +0.000 N 
ATOM     16  H   UNL     1       4.050   5.685  20.428  0.00  0.00    +0.000 HD
BRANCH  15  17
ATOM     17  C   UNL     1       2.431   6.737  19.846  0.00  0.00    +0.000 A 
ATOM     18  C   UNL     1       2.437   7.547  18.704  0.00  0.00    +0.000 A 
ATOM     19  C   UNL     1       1.738   8.766  18.655  0.00  0.00    +0.000 A 
ATOM     20  C   UNL     1       1.035   9.237  19.767  0.00  0.00    +0.000 A 
ATOM     21  C   UNL     1       0.318  10.520  19.824  0.00  0.00    +0.000 A 
ATOM     22  C   UNL     1       0.300  11.493  18.682  0.00  0.00    +0.000 C 
ATOM     23  C   UNL     1      -0.323  10.835  20.960  0.00  0.00    +0.000 A 
ATOM     24  C   UNL     1      -0.352   9.973  22.151  0.00  0.00    +0.000 A 
ATOM     25  O   UNL     1      -0.980  10.303  23.150  0.00  0.00    +0.000 OA
ATOM     26  O   UNL     1       0.367   8.795  22.081  0.00  0.00    +0.000 OA
ATOM     27  C   UNL     1       1.050   8.431  20.903  0.00  0.00    +0.000 A 
ATOM     28  C   UNL     1       1.742   7.215  20.961  0.00  0.00    +0.000 A 
ENDBRANCH  15  17
ENDBRANCH   1  15
TORSDOF 4
ENDMDL
