MODEL 1
REMARK VINA RESULT:      -7.9      0.000      0.000
REMARK  Name = 
REMARK  11 active torsions:
REMARK  status: ('A' for Active; 'I' for Inactive)
REMARK    1  A    between atoms: N_1  and  C_2
REMARK    2  A    between atoms: C_2  and  C_3
REMARK    3  A    between atoms: C_3  and  C_4
REMARK    4  A    between atoms: C_4  and  C_5
REMARK    5  A    between atoms: C_5  and  N_6
REMARK    6  A    between atoms: C_5  and  C_7
REMARK    7  A    between atoms: C_7  and  N_8
REMARK    8  A    between atoms: C_9  and  C_11
REMARK    9  A    between atoms: C_11  and  C_12
REMARK   10  A    between atoms: C_12  and  C_13
REMARK   11  A    between atoms: C_12  and  C_19
REMARK                            x       y       z     vdW  Elec       q    Type
REMARK                         _______ _______ _______ _____ _____    ______ ____
ROOT
ATOM      1  N   UNL     1       6.052   5.608  17.231  0.00  0.00    +0.000 N 
ATOM      2  C   UNL     1       5.587   5.064  18.402  0.00  0.00    +0.000 C 
ATOM      3  O   UNL     1       5.939   3.964  18.820  0.00  0.00    +0.000 OA
ATOM      4  H   UNL     1       5.883   6.585  17.030  0.00  0.00    +0.000 HD
ENDROOT
BRANCH   1   5
ATOM      5  C   UNL     1       6.953   4.876  16.358  0.00  0.00    +0.000 C 
BRANCH   5   6
ATOM      6  C   UNL     1       6.667   5.135  14.860  0.00  0.00    +0.000 C 
BRANCH   6   7
ATOM      7  N   UNL     1       7.889   5.499  14.121  0.00  0.00    +0.000 NA
ATOM      8  H   UNL     1       8.575   4.747  14.235  0.00  0.00    +0.000 HD
ATOM      9  H   UNL     1       8.338   6.280  14.601  0.00  0.00    +0.000 HD
ENDBRANCH   6   7
BRANCH   6  10
ATOM     10  C   UNL     1       6.048   3.913  14.164  0.00  0.00    +0.000 C 
BRANCH  10  11
ATOM     11  C   UNL     1       6.521   3.717  12.719  0.00  0.00    +0.000 C 
BRANCH  11  12
ATOM     12  C   UNL     1       5.494   2.900  11.937  0.00  0.00    +0.000 C 
BRANCH  12  13
ATOM     13  N   UNL     1       6.048   1.606  11.557  0.00  0.00    +0.000 NA
ATOM     14  H   UNL     1       6.863   1.411  12.139  0.00  0.00    +0.000 HD
ATOM     15  H   UNL     1       6.393   1.649  10.598  0.00  0.00    +0.000 HD
ENDBRANCH  12  13
ENDBRANCH  11  12
ENDBRANCH  10  11
ENDBRANCH   6  10
ENDBRANCH   5   6
ENDBRANCH   1   5
BRANCH   2  16
ATOM     16  C   UNL     1       4.669   5.959  19.194  0.00  0.00    +0.000 C 
BRANCH  16  17
ATOM     17  C   UNL     1       3.190   5.894  18.755  0.00  0.00    +0.000 C 
BRANCH  17  18
ATOM     18  C   UNL     1       2.424   4.791  19.476  0.00  0.00    +0.000 A 
ATOM     19  C   UNL     1       2.616   4.545  20.845  0.00  0.00    +0.000 A 
ATOM     20  C   UNL     1       1.958   3.491  21.481  0.00  0.00    +0.000 A 
ATOM     21  C   UNL     1       1.095   2.668  20.764  0.00  0.00    +0.000 A 
ATOM     22  C   UNL     1       0.881   2.904  19.409  0.00  0.00    +0.000 A 
ATOM     23  C   UNL     1       1.540   3.959  18.768  0.00  0.00    +0.000 A 
ENDBRANCH  17  18
BRANCH  17  24
ATOM     24  C   UNL     1       2.517   7.265  18.864  0.00  0.00    +0.000 A 
ATOM     25  C   UNL     1       1.903   7.647  20.070  0.00  0.00    +0.000 A 
ATOM     26  C   UNL     1       1.235   8.867  20.176  0.00  0.00    +0.000 A 
ATOM     27  C   UNL     1       1.173   9.733  19.086  0.00  0.00    +0.000 A 
ATOM     28  C   UNL     1       1.794   9.385  17.892  0.00  0.00    +0.000 A 
ATOM     29  C   UNL     1       2.467   8.167  17.787  0.00  0.00    +0.000 A 
ENDBRANCH  17  24
ENDBRANCH  16  17
ENDBRANCH   2  16
TORSDOF 11
ENDMDL
MODEL 2
REMARK VINA RESULT:      -7.8      0.506      1.105
REMARK  Name = 
REMARK  11 active torsions:
REMARK  status: ('A' for Active; 'I' for Inactive)
REMARK    1  A    between atoms: N_1  and  C_2
REMARK    2  A    between atoms: C_2  and  C_3
REMARK    3  A    between atoms: C_3  and  C_4
REMARK    4  A    between atoms: C_4  and  C_5
REMARK    5  A    between atoms: C_5  and  N_6
REMARK    6  A    between atoms: C_5  and  C_7
REMARK    7  A    between atoms: C_7  and  N_8
REMARK    8  A    between atoms: C_9  and  C_11
REMARK    9  A    between atoms: C_11  and  C_12
REMARK   10  A    between atoms: C_12  and  C_13
REMARK   11  A    between atoms: C_12  and  C_19
REMARK                            x       y       z     vdW  Elec       q    Type
REMARK                         _______ _______ _______ _____ _____    ______ ____
ROOT
ATOM      1  N   UNL     1       5.858   5.499  17.243  0.00  0.00    +0.000 N 
ATOM      2  C   UNL     1       5.536   5.105  18.518  0.00  0.00    +0.000 C 
ATOM      3  O   UNL     1       6.024   4.117  19.060  0.00  0.00    +0.000 OA
ATOM      4  H   UNL     1       5.579   6.416  16.916  0.00  0.00    +0.000 HD
ENDROOT
BRANCH   1   5
ATOM      5  C   UNL     1       6.759   4.722  16.412  0.00  0.00    +0.000 C 
BRANCH   5   6
ATOM      6  C   UNL     1       6.566   5.005  14.902  0.00  0.00    +0.000 C 
BRANCH   6   7
ATOM      7  N   UNL     1       7.804   5.493  14.271  0.00  0.00    +0.000 NA
ATOM      8  H   UNL     1       7.582   6.325  13.716  0.00  0.00    +0.000 HD
ATOM      9  H   UNL     1       8.090   4.823  13.555  0.00  0.00    +0.000 HD
ENDBRANCH   6   7
BRANCH   6  10
ATOM     10  C   UNL     1       6.107   3.759  14.129  0.00  0.00    +0.000 C 
BRANCH  10  11
ATOM     11  C   UNL     1       6.438   3.802  12.633  0.00  0.00    +0.000 C 
BRANCH  11  12
ATOM     12  C   UNL     1       5.634   2.739  11.887  0.00  0.00    +0.000 C 
BRANCH  12  13
ATOM     13  N   UNL     1       4.333   3.261  11.490  0.00  0.00    +0.000 NA
ATOM     14  H   UNL     1       3.642   2.996  12.193  0.00  0.00    +0.000 HD
ATOM     15  H   UNL     1       4.035   2.816  10.622  0.00  0.00    +0.000 HD
ENDBRANCH  12  13
ENDBRANCH  11  12
ENDBRANCH  10  11
ENDBRANCH   6  10
ENDBRANCH   5   6
ENDBRANCH   1   5
BRANCH   2  16
ATOM     16  C   UNL     1       4.596   6.029  19.248  0.00  0.00    +0.000 C 
BRANCH  16  17
ATOM     17  C   UNL     1       3.125   5.922  18.792  0.00  0.00    +0.000 C 
BRANCH  17  18
ATOM     18  C   UNL     1       2.384   4.794  19.501  0.00  0.00    +0.000 A 
ATOM     19  C   UNL     1       2.585   4.535  20.866  0.00  0.00    +0.000 A 
ATOM     20  C   UNL     1       1.952   3.459  21.491  0.00  0.00    +0.000 A 
ATOM     21  C   UNL     1       1.104   2.627  20.765  0.00  0.00    +0.000 A 
ATOM     22  C   UNL     1       0.881   2.876  19.414  0.00  0.00    +0.000 A 
ATOM     23  C   UNL     1       1.515   3.953  18.785  0.00  0.00    +0.000 A 
ENDBRANCH  17  18
BRANCH  17  24
ATOM     24  C   UNL     1       2.409   7.272  18.899  0.00  0.00    +0.000 A 
ATOM     25  C   UNL     1       2.375   8.134  17.790  0.00  0.00    +0.000 A 
ATOM     26  C   UNL     1       1.778   9.392  17.880  0.00  0.00    +0.000 A 
ATOM     27  C   UNL     1       1.195   9.810  19.076  0.00  0.00    +0.000 A 
ATOM     28  C   UNL     1       1.197   8.963  20.177  0.00  0.00    +0.000 A 
ATOM     29  C   UNL     1       1.790   7.703  20.086  0.00  0.00    +0.000 A 
ENDBRANCH  17  24
ENDBRANCH  16  17
ENDBRANCH   2  16
TORSDOF 11
ENDMDL
MODEL 3
REMARK VINA RESULT:      -7.7      1.656      2.024
REMARK  Name = 
REMARK  11 active torsions:
REMARK  status: ('A' for Active; 'I' for Inactive)
REMARK    1  A    between atoms: N_1  and  C_2
REMARK    2  A    between atoms: C_2  and  C_3
REMARK    3  A    between atoms: C_3  and  C_4
REMARK    4  A    between atoms: C_4  and  C_5
REMARK    5  A    between atoms: C_5  and  N_6
REMARK    6  A    between atoms: C_5  and  C_7
REMARK    7  A    between atoms: C_7  and  N_8
REMARK    8  A    between atoms: C_9  and  C_11
REMARK    9  A    between atoms: C_11  and  C_12
REMARK   10  A    between atoms: C_12  and  C_13
REMARK   11  A    between atoms: C_12  and  C_19
REMARK                            x       y       z     vdW  Elec       q    Type
REMARK                         _______ _______ _______ _____ _____    ______ ____
ROOT
ATOM      1  N   UNL     1       6.294   5.633  16.666  0.00  0.00    +0.000 N 
ATOM      2  C   UNL     1       5.326   6.584  16.466  0.00  0.00    +0.000 C 
ATOM      3  O   UNL     1       5.017   7.005  15.354  0.00  0.00    +0.000 OA
ATOM      4  H   UNL     1       6.377   5.184  17.570  0.00  0.00    +0.000 HD
ENDROOT
BRANCH   1   5
ATOM      5  C   UNL     1       7.079   5.103  15.566  0.00  0.00    +0.000 C 
BRANCH   5   6
ATOM      6  C   UNL     1       6.504   3.778  15.010  0.00  0.00    +0.000 C 
BRANCH   6   7
ATOM      7  N   UNL     1       5.661   3.085  16.001  0.00  0.00    +0.000 NA
ATOM      8  H   UNL     1       4.681   3.315  15.814  0.00  0.00    +0.000 HD
ATOM      9  H   UNL     1       5.816   3.512  16.915  0.00  0.00    +0.000 HD
ENDBRANCH   6   7
BRANCH   6  10
ATOM     10  C   UNL     1       5.657   3.994  13.748  0.00  0.00    +0.000 C 
BRANCH  10  11
ATOM     11  C   UNL     1       6.325   3.499  12.460  0.00  0.00    +0.000 C 
BRANCH  11  12
ATOM     12  C   UNL     1       5.403   2.525  11.729  0.00  0.00    +0.000 C 
BRANCH  12  13
ATOM     13  N   UNL     1       6.120   1.306  11.374  0.00  0.00    +0.000 NA
ATOM     14  H   UNL     1       5.449   0.611  11.048  0.00  0.00    +0.000 HD
ATOM     15  H   UNL     1       6.553   0.908  12.207  0.00  0.00    +0.000 HD
ENDBRANCH  12  13
ENDBRANCH  11  12
ENDBRANCH  10  11
ENDBRANCH   6  10
ENDBRANCH   5   6
ENDBRANCH   1   5
BRANCH   2  16
ATOM     16  C   UNL     1       4.598   7.019  17.711  0.00  0.00    +0.000 C 
BRANCH  16  17
ATOM     17  C   UNL     1       3.103   6.635  17.735  0.00  0.00    +0.000 C 
BRANCH  17  18
ATOM     18  C   UNL     1       2.886   5.200  18.204  0.00  0.00    +0.000 A 
ATOM     19  C   UNL     1       3.818   4.555  19.032  0.00  0.00    +0.000 A 
ATOM     20  C   UNL     1       3.643   3.221  19.402  0.00  0.00    +0.000 A 
ATOM     21  C   UNL     1       2.533   2.509  18.956  0.00  0.00    +0.000 A 
ATOM     22  C   UNL     1       1.591   3.135  18.144  0.00  0.00    +0.000 A 
ATOM     23  C   UNL     1       1.765   4.472  17.771  0.00  0.00    +0.000 A 
ENDBRANCH  17  18
BRANCH  17  24
ATOM     24  C   UNL     1       2.278   7.655  18.523  0.00  0.00    +0.000 A 
ATOM     25  C   UNL     1       1.758   8.786  17.871  0.00  0.00    +0.000 A 
ATOM     26  C   UNL     1       1.051   9.758  18.579  0.00  0.00    +0.000 A 
ATOM     27  C   UNL     1       0.841   9.617  19.951  0.00  0.00    +0.000 A 
ATOM     28  C   UNL     1       1.326   8.494  20.610  0.00  0.00    +0.000 A 
ATOM     29  C   UNL     1       2.029   7.519  19.901  0.00  0.00    +0.000 A 
ENDBRANCH  17  24
ENDBRANCH  16  17
ENDBRANCH   2  16
TORSDOF 11
ENDMDL
MODEL 4
REMARK VINA RESULT:      -7.7      4.117      7.770
REMARK  Name = 
REMARK  11 active torsions:
REMARK  status: ('A' for Active; 'I' for Inactive)
REMARK    1  A    between atoms: N_1  and  C_2
REMARK    2  A    between atoms: C_2  and  C_3
REMARK    3  A    between atoms: C_3  and  C_4
REMARK    4  A    between atoms: C_4  and  C_5
REMARK    5  A    between atoms: C_5  and  N_6
REMARK    6  A    between atoms: C_5  and  C_7
REMARK    7  A    between atoms: C_7  and  N_8
REMARK    8  A    between atoms: C_9  and  C_11
REMARK    9  A    between atoms: C_11  and  C_12
REMARK   10  A    between atoms: C_12  and  C_13
REMARK   11  A    between atoms: C_12  and  C_19
REMARK                            x       y       z     vdW  Elec       q    Type
REMARK                         _______ _______ _______ _____ _____    ______ ____
ROOT
ATOM      1  N   UNL     1       0.948   9.415  18.957  0.00  0.00    +0.000 N 
ATOM      2  C   UNL     1       1.924   8.685  18.326  0.00  0.00    +0.000 C 
ATOM      3  O   UNL     1       2.406   9.003  17.241  0.00  0.00    +0.000 OA
ATOM      4  H   UNL     1       0.724   9.220  19.925  0.00  0.00    +0.000 HD
ENDROOT
BRANCH   1   5
ATOM      5  C   UNL     1       0.361  10.592  18.343  0.00  0.00    +0.000 C 
BRANCH   5   6
ATOM      6  C   UNL     1      -1.183  10.605  18.441  0.00  0.00    +0.000 C 
BRANCH   6   7
ATOM      7  N   UNL     1      -1.714  11.971  18.593  0.00  0.00    +0.000 NA
ATOM      8  H   UNL     1      -2.092  12.276  17.692  0.00  0.00    +0.000 HD
ATOM      9  H   UNL     1      -0.931  12.610  18.731  0.00  0.00    +0.000 HD
ENDBRANCH   6   7
BRANCH   6  10
ATOM     10  C   UNL     1      -1.851   9.980  17.208  0.00  0.00    +0.000 C 
BRANCH  10  11
ATOM     11  C   UNL     1      -3.376   9.872  17.316  0.00  0.00    +0.000 C 
BRANCH  11  12
ATOM     12  C   UNL     1      -4.043  10.785  16.289  0.00  0.00    +0.000 C 
BRANCH  12  13
ATOM     13  N   UNL     1      -3.040  11.465  15.478  0.00  0.00    +0.000 NA
ATOM     14  H   UNL     1      -2.126  11.346  15.913  0.00  0.00    +0.000 HD
ATOM     15  H   UNL     1      -3.222  12.469  15.479  0.00  0.00    +0.000 HD
ENDBRANCH  12  13
ENDBRANCH  11  12
ENDBRANCH  10  11
ENDBRANCH   6  10
ENDBRANCH   5   6
ENDBRANCH   1   5
BRANCH   2  16
ATOM     16  C   UNL     1       2.432   7.500  19.104  0.00  0.00    +0.000 C 
BRANCH  16  17
ATOM     17  C   UNL     1       2.768   6.270  18.233  0.00  0.00    +0.000 C 
BRANCH  17  18
ATOM     18  C   UNL     1       4.270   6.107  18.022  0.00  0.00    +0.000 A 
ATOM     19  C   UNL     1       4.876   6.457  16.806  0.00  0.00    +0.000 A 
ATOM     20  C   UNL     1       6.241   6.244  16.600  0.00  0.00    +0.000 A 
ATOM     21  C   UNL     1       7.022   5.682  17.605  0.00  0.00    +0.000 A 
ATOM     22  C   UNL     1       6.441   5.340  18.824  0.00  0.00    +0.000 A 
ATOM     23  C   UNL     1       5.074   5.552  19.032  0.00  0.00    +0.000 A 
ENDBRANCH  17  18
BRANCH  17  24
ATOM     24  C   UNL     1       2.097   5.004  18.774  0.00  0.00    +0.000 A 
ATOM     25  C   UNL     1       1.846   3.924  17.912  0.00  0.00    +0.000 A 
ATOM     26  C   UNL     1       1.186   2.783  18.369  0.00  0.00    +0.000 A 
ATOM     27  C   UNL     1       0.771   2.694  19.697  0.00  0.00    +0.000 A 
ATOM     28  C   UNL     1       1.032   3.741  20.572  0.00  0.00    +0.000 A 
ATOM     29  C   UNL     1       1.697   4.880  20.117  0.00  0.00    +0.000 A 
ENDBRANCH  17  24
ENDBRANCH  16  17
ENDBRANCH   2  16
TORSDOF 11
ENDMDL
MODEL 5
REMARK VINA RESULT:      -7.6      1.153      3.939
REMARK  Name = 
REMARK  11 active torsions:
REMARK  status: ('A' for Active; 'I' for Inactive)
REMARK    1  A    between atoms: N_1  and  C_2
REMARK    2  A    between atoms: C_2  and  C_3
REMARK    3  A    between atoms: C_3  and  C_4
REMARK    4  A    between atoms: C_4  and  C_5
REMARK    5  A    between atoms: C_5  and  N_6
REMARK    6  A    between atoms: C_5  and  C_7
REMARK    7  A    between atoms: C_7  and  N_8
REMARK    8  A    between atoms: C_9  and  C_11
REMARK    9  A    between atoms: C_11  and  C_12
REMARK   10  A    between atoms: C_12  and  C_13
REMARK   11  A    between atoms: C_12  and  C_19
REMARK                            x       y       z     vdW  Elec       q    Type
REMARK                         _______ _______ _______ _____ _____    ______ ____
ROOT
ATOM      1  N   UNL     1       5.691   6.317  16.670  0.00  0.00    +0.000 N 
ATOM      2  C   UNL     1       5.008   6.150  17.848  0.00  0.00    +0.000 C 
ATOM      3  O   UNL     1       5.500   5.622  18.842  0.00  0.00    +0.000 OA
ATOM      4  H   UNL     1       5.313   6.923  15.952  0.00  0.00    +0.000 HD
ENDROOT
BRANCH   1   5
ATOM      5  C   UNL     1       7.040   5.809  16.494  0.00  0.00    +0.000 C 
BRANCH   5   6
ATOM      6  C   UNL     1       7.068   4.439  15.775  0.00  0.00    +0.000 C 
BRANCH   6   7
ATOM      7  N   UNL     1       6.025   3.529  16.281  0.00  0.00    +0.000 NA
ATOM      8  H   UNL     1       6.478   2.772  16.802  0.00  0.00    +0.000 HD
ATOM      9  H   UNL     1       5.614   3.033  15.489  0.00  0.00    +0.000 HD
ENDBRANCH   6   7
BRANCH   6  10
ATOM     10  C   UNL     1       6.874   4.572  14.257  0.00  0.00    +0.000 C 
BRANCH  10  11
ATOM     11  C   UNL     1       5.675   3.786  13.714  0.00  0.00    +0.000 C 
BRANCH  11  12
ATOM     12  C   UNL     1       5.818   3.585  12.206  0.00  0.00    +0.000 C 
BRANCH  12  13
ATOM     13  N   UNL     1       6.105   2.189  11.898  0.00  0.00    +0.000 NA
ATOM     14  H   UNL     1       6.454   1.730  12.739  0.00  0.00    +0.000 HD
ATOM     15  H   UNL     1       6.861   2.138  11.216  0.00  0.00    +0.000 HD
ENDBRANCH  12  13
ENDBRANCH  11  12
ENDBRANCH  10  11
ENDBRANCH   6  10
ENDBRANCH   5   6
ENDBRANCH   1   5
BRANCH   2  16
ATOM     16  C   UNL     1       3.624   6.745  17.868  0.00  0.00    +0.000 C 
BRANCH  16  17
ATOM     17  C   UNL     1       2.915   6.651  19.236  0.00  0.00    +0.000 C 
BRANCH  17  18
ATOM     18  C   UNL     1       1.992   7.838  19.488  0.00  0.00    +0.000 A 
ATOM     19  C   UNL     1       1.383   8.034  20.738  0.00  0.00    +0.000 A 
ATOM     20  C   UNL     1       0.489   9.087  20.939  0.00  0.00    +0.000 A 
ATOM     21  C   UNL     1       0.190   9.963  19.900  0.00  0.00    +0.000 A 
ATOM     22  C   UNL     1       0.794   9.792  18.657  0.00  0.00    +0.000 A 
ATOM     23  C   UNL     1       1.690   8.737  18.452  0.00  0.00    +0.000 A 
ENDBRANCH  17  18
BRANCH  17  24
ATOM     24  C   UNL     1       2.217   5.299  19.409  0.00  0.00    +0.000 A 
ATOM     25  C   UNL     1       1.805   4.576  18.277  0.00  0.00    +0.000 A 
ATOM     26  C   UNL     1       1.117   3.369  18.411  0.00  0.00    +0.000 A 
ATOM     27  C   UNL     1       0.834   2.856  19.677  0.00  0.00    +0.000 A 
ATOM     28  C   UNL     1       1.254   3.545  20.808  0.00  0.00    +0.000 A 
ATOM     29  C   UNL     1       1.947   4.748  20.675  0.00  0.00    +0.000 A 
ENDBRANCH  17  24
ENDBRANCH  16  17
ENDBRANCH   2  16
TORSDOF 11
ENDMDL
MODEL 6
REMARK VINA RESULT:      -7.6      0.542      1.496
REMARK  Name = 
REMARK  11 active torsions:
REMARK  status: ('A' for Active; 'I' for Inactive)
REMARK    1  A    between atoms: N_1  and  C_2
REMARK    2  A    between atoms: C_2  and  C_3
REMARK    3  A    between atoms: C_3  and  C_4
REMARK    4  A    between atoms: C_4  and  C_5
REMARK    5  A    between atoms: C_5  and  N_6
REMARK    6  A    between atoms: C_5  and  C_7
REMARK    7  A    between atoms: C_7  and  N_8
REMARK    8  A    between atoms: C_9  and  C_11
REMARK    9  A    between atoms: C_11  and  C_12
REMARK   10  A    between atoms: C_12  and  C_13
REMARK   11  A    between atoms: C_12  and  C_19
REMARK                            x       y       z     vdW  Elec       q    Type
REMARK                         _______ _______ _______ _____ _____    ______ ____
ROOT
ATOM      1  N   UNL     1       5.610   5.209  16.858  0.00  0.00    +0.000 N 
ATOM      2  C   UNL     1       5.496   5.011  18.211  0.00  0.00    +0.000 C 
ATOM      3  O   UNL     1       6.135   4.159  18.823  0.00  0.00    +0.000 OA
ATOM      4  H   UNL     1       5.213   6.039  16.438  0.00  0.00    +0.000 HD
ENDROOT
BRANCH   1   5
ATOM      5  C   UNL     1       6.455   4.363  16.035  0.00  0.00    +0.000 C 
BRANCH   5   6
ATOM      6  C   UNL     1       6.539   4.855  14.569  0.00  0.00    +0.000 C 
BRANCH   6   7
ATOM      7  N   UNL     1       7.828   5.507  14.279  0.00  0.00    +0.000 NA
ATOM      8  H   UNL     1       7.753   6.499  14.523  0.00  0.00    +0.000 HD
ATOM      9  H   UNL     1       7.955   5.540  13.267  0.00  0.00    +0.000 HD
ENDBRANCH   6   7
BRANCH   6  10
ATOM     10  C   UNL     1       6.357   3.712  13.559  0.00  0.00    +0.000 C 
BRANCH  10  11
ATOM     11  C   UNL     1       5.000   3.725  12.846  0.00  0.00    +0.000 C 
BRANCH  11  12
ATOM     12  C   UNL     1       5.070   2.892  11.567  0.00  0.00    +0.000 C 
BRANCH  12  13
ATOM     13  N   UNL     1       6.028   1.803  11.714  0.00  0.00    +0.000 NA
ATOM     14  H   UNL     1       6.898   2.063  11.248  0.00  0.00    +0.000 HD
ATOM     15  H   UNL     1       5.684   0.977  11.226  0.00  0.00    +0.000 HD
ENDBRANCH  12  13
ENDBRANCH  11  12
ENDBRANCH  10  11
ENDBRANCH   6  10
ENDBRANCH   5   6
ENDBRANCH   1   5
BRANCH   2  16
ATOM     16  C   UNL     1       4.587   5.982  18.919  0.00  0.00    +0.000 C 
BRANCH  16  17
ATOM     17  C   UNL     1       3.120   5.935  18.440  0.00  0.00    +0.000 C 
BRANCH  17  18
ATOM     18  C   UNL     1       2.378   4.716  18.977  0.00  0.00    +0.000 A 
ATOM     19  C   UNL     1       1.629   3.887  18.128  0.00  0.00    +0.000 A 
ATOM     20  C   UNL     1       0.900   2.811  18.639  0.00  0.00    +0.000 A 
ATOM     21  C   UNL     1       0.911   2.542  20.005  0.00  0.00    +0.000 A 
ATOM     22  C   UNL     1       1.659   3.345  20.861  0.00  0.00    +0.000 A 
ATOM     23  C   UNL     1       2.389   4.424  20.352  0.00  0.00    +0.000 A 
ENDBRANCH  17  18
BRANCH  17  24
ATOM     24  C   UNL     1       2.397   7.253  18.731  0.00  0.00    +0.000 A 
ATOM     25  C   UNL     1       2.194   8.182  17.696  0.00  0.00    +0.000 A 
ATOM     26  C   UNL     1       1.588   9.413  17.949  0.00  0.00    +0.000 A 
ATOM     27  C   UNL     1       1.165   9.739  19.237  0.00  0.00    +0.000 A 
ATOM     28  C   UNL     1       1.335   8.825  20.269  0.00  0.00    +0.000 A 
ATOM     29  C   UNL     1       1.936   7.591  20.016  0.00  0.00    +0.000 A 
ENDBRANCH  17  24
ENDBRANCH  16  17
ENDBRANCH   2  16
TORSDOF 11
ENDMDL
MODEL 7
REMARK VINA RESULT:      -7.6      1.068      3.955
REMARK  Name = 
REMARK  11 active torsions:
REMARK  status: ('A' for Active; 'I' for Inactive)
REMARK    1  A    between atoms: N_1  and  C_2
REMARK    2  A    between atoms: C_2  and  C_3
REMARK    3  A    between atoms: C_3  and  C_4
REMARK    4  A    between atoms: C_4  and  C_5
REMARK    5  A    between atoms: C_5  and  N_6
REMARK    6  A    between atoms: C_5  and  C_7
REMARK    7  A    between atoms: C_7  and  N_8
REMARK    8  A    between atoms: C_9  and  C_11
REMARK    9  A    between atoms: C_11  and  C_12
REMARK   10  A    between atoms: C_12  and  C_13
REMARK   11  A    between atoms: C_12  and  C_19
REMARK                            x       y       z     vdW  Elec       q    Type
REMARK                         _______ _______ _______ _____ _____    ______ ____
ROOT
ATOM      1  N   UNL     1       5.617   6.310  16.911  0.00  0.00    +0.000 N 
ATOM      2  C   UNL     1       4.884   5.892  17.993  0.00  0.00    +0.000 C 
ATOM      3  O   UNL     1       5.336   5.160  18.870  0.00  0.00    +0.000 OA
ATOM      4  H   UNL     1       5.266   7.057  16.326  0.00  0.00    +0.000 HD
ENDROOT
BRANCH   1   5
ATOM      5  C   UNL     1       6.976   5.850  16.690  0.00  0.00    +0.000 C 
BRANCH   5   6
ATOM      6  C   UNL     1       7.041   4.616  15.758  0.00  0.00    +0.000 C 
BRANCH   6   7
ATOM      7  N   UNL     1       6.226   3.498  16.266  0.00  0.00    +0.000 NA
ATOM      8  H   UNL     1       5.324   3.505  15.780  0.00  0.00    +0.000 HD
ATOM      9  H   UNL     1       5.957   3.704  17.229  0.00  0.00    +0.000 HD
ENDBRANCH   6   7
BRANCH   6  10
ATOM     10  C   UNL     1       6.560   4.934  14.334  0.00  0.00    +0.000 C 
BRANCH  10  11
ATOM     11  C   UNL     1       5.813   3.779  13.659  0.00  0.00    +0.000 C 
BRANCH  11  12
ATOM     12  C   UNL     1       6.433   3.477  12.296  0.00  0.00    +0.000 C 
BRANCH  12  13
ATOM     13  N   UNL     1       5.977   2.184  11.799  0.00  0.00    +0.000 NA
ATOM     14  H   UNL     1       6.618   1.460  12.123  0.00  0.00    +0.000 HD
ATOM     15  H   UNL     1       6.030   2.171  10.781  0.00  0.00    +0.000 HD
ENDBRANCH  12  13
ENDBRANCH  11  12
ENDBRANCH  10  11
ENDBRANCH   6  10
ENDBRANCH   5   6
ENDBRANCH   1   5
BRANCH   2  16
ATOM     16  C   UNL     1       3.495   6.471  18.079  0.00  0.00    +0.000 C 
BRANCH  16  17
ATOM     17  C   UNL     1       2.904   6.484  19.505  0.00  0.00    +0.000 C 
BRANCH  17  18
ATOM     18  C   UNL     1       1.968   7.667  19.729  0.00  0.00    +0.000 A 
ATOM     19  C   UNL     1       1.779   8.643  18.738  0.00  0.00    +0.000 A 
ATOM     20  C   UNL     1       0.971   9.757  18.977  0.00  0.00    +0.000 A 
ATOM     21  C   UNL     1       0.336   9.912  20.206  0.00  0.00    +0.000 A 
ATOM     22  C   UNL     1       0.501   8.947  21.196  0.00  0.00    +0.000 A 
ATOM     23  C   UNL     1       1.310   7.831  20.959  0.00  0.00    +0.000 A 
ENDBRANCH  17  18
BRANCH  17  24
ATOM     24  C   UNL     1       2.265   5.137  19.855  0.00  0.00    +0.000 A 
ATOM     25  C   UNL     1       2.426   4.602  21.144  0.00  0.00    +0.000 A 
ATOM     26  C   UNL     1       1.900   3.351  21.470  0.00  0.00    +0.000 A 
ATOM     27  C   UNL     1       1.195   2.614  20.518  0.00  0.00    +0.000 A 
ATOM     28  C   UNL     1       1.004   3.137  19.245  0.00  0.00    +0.000 A 
ATOM     29  C   UNL     1       1.525   4.390  18.921  0.00  0.00    +0.000 A 
ENDBRANCH  17  24
ENDBRANCH  16  17
ENDBRANCH   2  16
TORSDOF 11
ENDMDL
MODEL 8
REMARK VINA RESULT:      -7.6      1.186      4.061
REMARK  Name = 
REMARK  11 active torsions:
REMARK  status: ('A' for Active; 'I' for Inactive)
REMARK    1  A    between atoms: N_1  and  C_2
REMARK    2  A    between atoms: C_2  and  C_3
REMARK    3  A    between atoms: C_3  and  C_4
REMARK    4  A    between atoms: C_4  and  C_5
REMARK    5  A    between atoms: C_5  and  N_6
REMARK    6  A    between atoms: C_5  and  C_7
REMARK    7  A    between atoms: C_7  and  N_8
REMARK    8  A    between atoms: C_9  and  C_11
REMARK    9  A    between atoms: C_11  and  C_12
REMARK   10  A    between atoms: C_12  and  C_13
REMARK   11  A    between atoms: C_12  and  C_19
REMARK                            x       y       z     vdW  Elec       q    Type
REMARK                         _______ _______ _______ _____ _____    ______ ____
ROOT
ATOM      1  N   UNL     1       5.700   6.327  16.597  0.00  0.00    +0.000 N 
ATOM      2  C   UNL     1       4.992   6.158  17.761  0.00  0.00    +0.000 C 
ATOM      3  O   UNL     1       5.455   5.609  18.756  0.00  0.00    +0.000 OA
ATOM      4  H   UNL     1       5.346   6.949  15.881  0.00  0.00    +0.000 HD
ENDROOT
BRANCH   1   5
ATOM      5  C   UNL     1       7.042   5.796  16.439  0.00  0.00    +0.000 C 
BRANCH   5   6
ATOM      6  C   UNL     1       7.056   4.425  15.721  0.00  0.00    +0.000 C 
BRANCH   6   7
ATOM      7  N   UNL     1       6.067   3.494  16.291  0.00  0.00    +0.000 NA
ATOM      8  H   UNL     1       5.264   4.035  16.624  0.00  0.00    +0.000 HD
ATOM      9  H   UNL     1       6.445   3.108  17.158  0.00  0.00    +0.000 HD
ENDBRANCH   6   7
BRANCH   6  10
ATOM     10  C   UNL     1       6.767   4.551  14.218  0.00  0.00    +0.000 C 
BRANCH  10  11
ATOM     11  C   UNL     1       5.429   3.938  13.792  0.00  0.00    +0.000 C 
BRANCH  11  12
ATOM     12  C   UNL     1       5.475   3.548  12.315  0.00  0.00    +0.000 C 
BRANCH  12  13
ATOM     13  N   UNL     1       6.501   2.539  12.081  0.00  0.00    +0.000 NA
ATOM     14  H   UNL     1       6.095   1.772  11.546  0.00  0.00    +0.000 HD
ATOM     15  H   UNL     1       6.794   2.136  12.971  0.00  0.00    +0.000 HD
ENDBRANCH  12  13
ENDBRANCH  11  12
ENDBRANCH  10  11
ENDBRANCH   6  10
ENDBRANCH   5   6
ENDBRANCH   1   5
BRANCH   2  16
ATOM     16  C   UNL     1       3.619   6.779  17.762  0.00  0.00    +0.000 C 
BRANCH  16  17
ATOM     17  C   UNL     1       2.897   6.710  19.125  0.00  0.00    +0.000 C 
BRANCH  17  18
ATOM     18  C   UNL     1       1.968   7.899  19.344  0.00  0.00    +0.000 A 
ATOM     19  C   UNL     1       1.642   8.772  18.294  0.00  0.00    +0.000 A 
ATOM     20  C   UNL     1       0.843   9.895  18.520  0.00  0.00    +0.000 A 
ATOM     21  C   UNL     1       0.353  10.162  19.795  0.00  0.00    +0.000 A 
ATOM     22  C   UNL     1       0.655   9.301  20.846  0.00  0.00    +0.000 A 
ATOM     23  C   UNL     1       1.456   8.176  20.623  0.00  0.00    +0.000 A 
ENDBRANCH  17  18
BRANCH  17  24
ATOM     24  C   UNL     1       2.201   5.360  19.318  0.00  0.00    +0.000 A 
ATOM     25  C   UNL     1       1.814   4.607  18.196  0.00  0.00    +0.000 A 
ATOM     26  C   UNL     1       1.129   3.401  18.347  0.00  0.00    +0.000 A 
ATOM     27  C   UNL     1       0.823   2.918  19.619  0.00  0.00    +0.000 A 
ATOM     28  C   UNL     1       1.218   3.636  20.741  0.00  0.00    +0.000 A 
ATOM     29  C   UNL     1       1.908   4.840  20.592  0.00  0.00    +0.000 A 
ENDBRANCH  17  24
ENDBRANCH  16  17
ENDBRANCH   2  16
TORSDOF 11
ENDMDL
MODEL 9
REMARK VINA RESULT:      -7.5      1.363      3.995
REMARK  Name = 
REMARK  11 active torsions:
REMARK  status: ('A' for Active; 'I' for Inactive)
REMARK    1  A    between atoms: N_1  and  C_2
REMARK    2  A    between atoms: C_2  and  C_3
REMARK    3  A    between atoms: C_3  and  C_4
REMARK    4  A    between atoms: C_4  and  C_5
REMARK    5  A    between atoms: C_5  and  N_6
REMARK    6  A    between atoms: C_5  and  C_7
REMARK    7  A    between atoms: C_7  and  N_8
REMARK    8  A    between atoms: C_9  and  C_11
REMARK    9  A    between atoms: C_11  and  C_12
REMARK   10  A    between atoms: C_12  and  C_13
REMARK   11  A    between atoms: C_12  and  C_19
REMARK                            x       y       z     vdW  Elec       q    Type
REMARK                         _______ _______ _______ _____ _____    ______ ____
ROOT
ATOM      1  N   UNL     1       5.486   6.047  15.575  0.00  0.00    +0.000 N 
ATOM      2  C   UNL     1       5.219   6.392  16.876  0.00  0.00    +0.000 C 
ATOM      3  O   UNL     1       6.033   6.261  17.787  0.00  0.00    +0.000 OA
ATOM      4  H   UNL     1       4.862   6.349  14.838  0.00  0.00    +0.000 HD
ENDROOT
BRANCH   1   5
ATOM      5  C   UNL     1       6.744   5.429  15.195  0.00  0.00    +0.000 C 
BRANCH   5   6
ATOM      6  C   UNL     1       6.564   3.972  14.705  0.00  0.00    +0.000 C 
BRANCH   6   7
ATOM      7  N   UNL     1       6.007   3.102  15.757  0.00  0.00    +0.000 NA
ATOM      8  H   UNL     1       5.856   2.169  15.362  0.00  0.00    +0.000 HD
ATOM      9  H   UNL     1       5.056   3.410  15.963  0.00  0.00    +0.000 HD
ENDBRANCH   6   7
BRANCH   6  10
ATOM     10  C   UNL     1       5.639   3.876  13.483  0.00  0.00    +0.000 C 
BRANCH  10  11
ATOM     11  C   UNL     1       6.340   3.384  12.212  0.00  0.00    +0.000 C 
BRANCH  11  12
ATOM     12  C   UNL     1       5.556   2.228  11.593  0.00  0.00    +0.000 C 
BRANCH  12  13
ATOM     13  N   UNL     1       6.456   1.156  11.187  0.00  0.00    +0.000 NA
ATOM     14  H   UNL     1       6.023   0.259  11.409  0.00  0.00    +0.000 HD
ATOM     15  H   UNL     1       7.311   1.198  11.741  0.00  0.00    +0.000 HD
ENDBRANCH  12  13
ENDBRANCH  11  12
ENDBRANCH  10  11
ENDBRANCH   6  10
ENDBRANCH   5   6
ENDBRANCH   1   5
BRANCH   2  16
ATOM     16  C   UNL     1       3.873   7.032  17.098  0.00  0.00    +0.000 C 
BRANCH  16  17
ATOM     17  C   UNL     1       3.301   6.822  18.516  0.00  0.00    +0.000 C 
BRANCH  17  18
ATOM     18  C   UNL     1       2.255   7.872  18.875  0.00  0.00    +0.000 A 
ATOM     19  C   UNL     1       1.776   8.780  17.918  0.00  0.00    +0.000 A 
ATOM     20  C   UNL     1       0.867   9.779  18.271  0.00  0.00    +0.000 A 
ATOM     21  C   UNL     1       0.418   9.886  19.585  0.00  0.00    +0.000 A 
ATOM     22  C   UNL     1       0.873   8.987  20.546  0.00  0.00    +0.000 A 
ATOM     23  C   UNL     1       1.784   7.985  20.194  0.00  0.00    +0.000 A 
ENDBRANCH  17  18
BRANCH  17  24
ATOM     24  C   UNL     1       2.803   5.387  18.709  0.00  0.00    +0.000 A 
ATOM     25  C   UNL     1       3.343   4.592  19.734  0.00  0.00    +0.000 A 
ATOM     26  C   UNL     1       2.945   3.264  19.893  0.00  0.00    +0.000 A 
ATOM     27  C   UNL     1       1.994   2.706  19.040  0.00  0.00    +0.000 A 
ATOM     28  C   UNL     1       1.430   3.484  18.035  0.00  0.00    +0.000 A 
ATOM     29  C   UNL     1       1.823   4.813  17.879  0.00  0.00    +0.000 A 
ENDBRANCH  17  24
ENDBRANCH  16  17
ENDBRANCH   2  16
TORSDOF 11
ENDMDL
