MODEL 1
REMARK VINA RESULT:      -8.7      0.000      0.000
REMARK  Name = 
REMARK  3 active torsions:
REMARK  status: ('A' for Active; 'I' for Inactive)
REMARK    1  A    between atoms: C_1  and  N_2
REMARK    2  A    between atoms: C_3  and  C_5
REMARK    3  A    between atoms: C_6  and  C_7
REMARK                            x       y       z     vdW  Elec       q    Type
REMARK                         _______ _______ _______ _____ _____    ______ ____
ROOT
ATOM      1  C   UNL     1       3.238   5.735  18.201  0.00  0.00    +0.000 A 
ATOM      2  C   UNL     1       4.174   5.452  17.158  0.00  0.00    +0.000 A 
ATOM      3  C   UNL     1       4.877   6.442  16.428  0.00  0.00    +0.000 A 
ATOM      4  C   UNL     1       5.773   6.113  15.408  0.00  0.00    +0.000 A 
ATOM      5  C   UNL     1       5.995   4.782  15.087  0.00  0.00    +0.000 A 
ATOM      6  C   UNL     1       5.332   3.783  15.797  0.00  0.00    +0.000 A 
ATOM      7  C   UNL     1       4.434   4.102  16.829  0.00  0.00    +0.000 A 
ATOM      8  C   UNL     1       3.798   3.077  17.541  0.00  0.00    +0.000 A 
ATOM      9  C   UNL     1       2.900   3.345  18.582  0.00  0.00    +0.000 A 
ATOM     10  C   UNL     1       2.305   2.282  19.284  0.00  0.00    +0.000 A 
ATOM     11  C   UNL     1       1.413   2.519  20.326  0.00  0.00    +0.000 A 
ATOM     12  C   UNL     1       1.102   3.825  20.679  0.00  0.00    +0.000 A 
ATOM     13  C   UNL     1       1.687   4.889  19.990  0.00  0.00    +0.000 A 
ATOM     14  C   UNL     1       2.602   4.682  18.927  0.00  0.00    +0.000 A 
ENDROOT
BRANCH   1  16
ATOM     15  C   UNL     1       2.035   7.864  17.847  0.00  0.00    +0.000 C 
ATOM     16  C   UNL     1       2.932   7.141  18.536  0.00  0.00    +0.000 C 
BRANCH  15  19
ATOM     17  C   UNL     1       0.754  10.711  19.920  0.00  0.00    +0.000 C 
ATOM     18  N   UNL     1       1.105   9.407  19.415  0.00  0.00    +0.000 N 
ATOM     19  C   UNL     1       1.791   9.277  18.233  0.00  0.00    +0.000 C 
ATOM     20  O   UNL     1       2.162  10.223  17.550  0.00  0.00    +0.000 OA
ATOM     21  H   UNL     1       0.807   8.590  19.929  0.00  0.00    +0.000 HD
ENDBRANCH  15  19
ENDBRANCH   1  16
TORSDOF 2
ENDMDL
MODEL 2
REMARK VINA RESULT:      -8.6      0.060      4.117
REMARK  Name = 
REMARK  3 active torsions:
REMARK  status: ('A' for Active; 'I' for Inactive)
REMARK    1  A    between atoms: C_1  and  N_2
REMARK    2  A    between atoms: C_3  and  C_5
REMARK    3  A    between atoms: C_6  and  C_7
REMARK                            x       y       z     vdW  Elec       q    Type
REMARK                         _______ _______ _______ _____ _____    ______ ____
ROOT
ATOM      1  C   UNL     1       3.276   5.709  18.203  0.00  0.00    +0.000 A 
ATOM      2  C   UNL     1       2.632   4.661  18.931  0.00  0.00    +0.000 A 
ATOM      3  C   UNL     1       1.666   4.873  19.946  0.00  0.00    +0.000 A 
ATOM      4  C   UNL     1       1.074   3.813  20.637  0.00  0.00    +0.000 A 
ATOM      5  C   UNL     1       1.430   2.507  20.334  0.00  0.00    +0.000 A 
ATOM      6  C   UNL     1       2.365   2.264  19.330  0.00  0.00    +0.000 A 
ATOM      7  C   UNL     1       2.961   3.321  18.623  0.00  0.00    +0.000 A 
ATOM      8  C   UNL     1       3.882   3.047  17.604  0.00  0.00    +0.000 A 
ATOM      9  C   UNL     1       4.498   4.067  16.867  0.00  0.00    +0.000 A 
ATOM     10  C   UNL     1       5.397   3.742  15.837  0.00  0.00    +0.000 A 
ATOM     11  C   UNL     1       6.019   4.735  15.086  0.00  0.00    +0.000 A 
ATOM     12  C   UNL     1       5.751   6.069  15.357  0.00  0.00    +0.000 A 
ATOM     13  C   UNL     1       4.859   6.405  16.378  0.00  0.00    +0.000 A 
ATOM     14  C   UNL     1       4.206   5.419  17.158  0.00  0.00    +0.000 A 
ENDROOT
BRANCH   1  16
ATOM     15  C   UNL     1       2.050   7.827  17.855  0.00  0.00    +0.000 C 
ATOM     16  C   UNL     1       2.965   7.116  18.533  0.00  0.00    +0.000 C 
BRANCH  15  19
ATOM     17  C   UNL     1       0.780  10.680  19.926  0.00  0.00    +0.000 C 
ATOM     18  N   UNL     1       1.132   9.375  19.426  0.00  0.00    +0.000 N 
ATOM     19  C   UNL     1       1.802   9.240  18.234  0.00  0.00    +0.000 C 
ATOM     20  O   UNL     1       2.157  10.184  17.539  0.00  0.00    +0.000 OA
ATOM     21  H   UNL     1       0.847   8.560  19.950  0.00  0.00    +0.000 HD
ENDBRANCH  15  19
ENDBRANCH   1  16
TORSDOF 2
ENDMDL
MODEL 3
REMARK VINA RESULT:      -8.4      2.620      5.125
REMARK  Name = 
REMARK  3 active torsions:
REMARK  status: ('A' for Active; 'I' for Inactive)
REMARK    1  A    between atoms: C_1  and  N_2
REMARK    2  A    between atoms: C_3  and  C_5
REMARK    3  A    between atoms: C_6  and  C_7
REMARK                            x       y       z     vdW  Elec       q    Type
REMARK                         _______ _______ _______ _____ _____    ______ ____
ROOT
ATOM      1  C   UNL     1       3.316   5.740  18.442  0.00  0.00    +0.000 A 
ATOM      2  C   UNL     1       2.683   7.011  18.608  0.00  0.00    +0.000 A 
ATOM      3  C   UNL     1       2.774   8.073  17.675  0.00  0.00    +0.000 A 
ATOM      4  C   UNL     1       2.145   9.302  17.890  0.00  0.00    +0.000 A 
ATOM      5  C   UNL     1       1.405   9.506  19.046  0.00  0.00    +0.000 A 
ATOM      6  C   UNL     1       1.282   8.476  19.975  0.00  0.00    +0.000 A 
ATOM      7  C   UNL     1       1.904   7.233  19.767  0.00  0.00    +0.000 A 
ATOM      8  C   UNL     1       1.747   6.208  20.708  0.00  0.00    +0.000 A 
ATOM      9  C   UNL     1       2.341   4.951  20.540  0.00  0.00    +0.000 A 
ATOM     10  C   UNL     1       2.134   3.945  21.500  0.00  0.00    +0.000 A 
ATOM     11  C   UNL     1       2.708   2.685  21.356  0.00  0.00    +0.000 A 
ATOM     12  C   UNL     1       3.501   2.415  20.250  0.00  0.00    +0.000 A 
ATOM     13  C   UNL     1       3.714   3.406  19.289  0.00  0.00    +0.000 A 
ATOM     14  C   UNL     1       3.141   4.697  19.403  0.00  0.00    +0.000 A 
ENDROOT
BRANCH   1  16
ATOM     15  C   UNL     1       5.493   5.640  17.277  0.00  0.00    +0.000 C 
ATOM     16  C   UNL     1       4.158   5.500  17.252  0.00  0.00    +0.000 C 
BRANCH  15  19
ATOM     17  C   UNL     1       6.317   4.122  13.952  0.00  0.00    +0.000 C 
ATOM     18  N   UNL     1       5.677   4.498  15.187  0.00  0.00    +0.000 N 
ATOM     19  C   UNL     1       6.273   5.397  16.038  0.00  0.00    +0.000 C 
ATOM     20  O   UNL     1       7.345   5.944  15.813  0.00  0.00    +0.000 OA
ATOM     21  H   UNL     1       4.799   4.062  15.433  0.00  0.00    +0.000 HD
ENDBRANCH  15  19
ENDBRANCH   1  16
TORSDOF 2
ENDMDL
MODEL 4
REMARK VINA RESULT:      -8.4      2.633      5.747
REMARK  Name = 
REMARK  3 active torsions:
REMARK  status: ('A' for Active; 'I' for Inactive)
REMARK    1  A    between atoms: C_1  and  N_2
REMARK    2  A    between atoms: C_3  and  C_5
REMARK    3  A    between atoms: C_6  and  C_7
REMARK                            x       y       z     vdW  Elec       q    Type
REMARK                         _______ _______ _______ _____ _____    ______ ____
ROOT
ATOM      1  C   UNL     1       3.338   5.688  18.433  0.00  0.00    +0.000 A 
ATOM      2  C   UNL     1       3.171   4.659  19.411  0.00  0.00    +0.000 A 
ATOM      3  C   UNL     1       3.795   3.389  19.344  0.00  0.00    +0.000 A 
ATOM      4  C   UNL     1       3.590   2.411  20.321  0.00  0.00    +0.000 A 
ATOM      5  C   UNL     1       2.754   2.675  21.397  0.00  0.00    +0.000 A 
ATOM      6  C   UNL     1       2.138   3.921  21.500  0.00  0.00    +0.000 A 
ATOM      7  C   UNL     1       2.343   4.913  20.528  0.00  0.00    +0.000 A 
ATOM      8  C   UNL     1       1.728   6.164  20.668  0.00  0.00    +0.000 A 
ATOM      9  C   UNL     1       1.907   7.188  19.729  0.00  0.00    +0.000 A 
ATOM     10  C   UNL     1       1.289   8.434  19.925  0.00  0.00    +0.000 A 
ATOM     11  C   UNL     1       1.454   9.471  19.011  0.00  0.00    +0.000 A 
ATOM     12  C   UNL     1       2.239   9.273  17.884  0.00  0.00    +0.000 A 
ATOM     13  C   UNL     1       2.859   8.038  17.677  0.00  0.00    +0.000 A 
ATOM     14  C   UNL     1       2.715   6.964  18.590  0.00  0.00    +0.000 A 
ENDROOT
BRANCH   1  16
ATOM     15  C   UNL     1       5.496   5.675  17.229  0.00  0.00    +0.000 C 
ATOM     16  C   UNL     1       4.177   5.428  17.244  0.00  0.00    +0.000 C 
BRANCH  15  19
ATOM     17  C   UNL     1       6.292   4.105  13.921  0.00  0.00    +0.000 C 
ATOM     18  N   UNL     1       5.658   4.507  15.151  0.00  0.00    +0.000 N 
ATOM     19  C   UNL     1       6.272   5.402  15.993  0.00  0.00    +0.000 C 
ATOM     20  O   UNL     1       7.355   5.925  15.763  0.00  0.00    +0.000 OA
ATOM     21  H   UNL     1       4.771   4.093  15.400  0.00  0.00    +0.000 HD
ENDBRANCH  15  19
ENDBRANCH   1  16
TORSDOF 2
ENDMDL
MODEL 5
REMARK VINA RESULT:      -8.1      1.170      1.184
REMARK  Name = 
REMARK  3 active torsions:
REMARK  status: ('A' for Active; 'I' for Inactive)
REMARK    1  A    between atoms: C_1  and  N_2
REMARK    2  A    between atoms: C_3  and  C_5
REMARK    3  A    between atoms: C_6  and  C_7
REMARK                            x       y       z     vdW  Elec       q    Type
REMARK                         _______ _______ _______ _____ _____    ______ ____
ROOT
ATOM      1  C   UNL     1       3.303   5.661  18.224  0.00  0.00    +0.000 A 
ATOM      2  C   UNL     1       4.503   5.607  17.448  0.00  0.00    +0.000 A 
ATOM      3  C   UNL     1       5.332   6.726  17.185  0.00  0.00    +0.000 A 
ATOM      4  C   UNL     1       6.490   6.623  16.410  0.00  0.00    +0.000 A 
ATOM      5  C   UNL     1       6.855   5.396  15.874  0.00  0.00    +0.000 A 
ATOM      6  C   UNL     1       6.070   4.273  16.128  0.00  0.00    +0.000 A 
ATOM      7  C   UNL     1       4.907   4.364  16.911  0.00  0.00    +0.000 A 
ATOM      8  C   UNL     1       4.149   3.215  17.168  0.00  0.00    +0.000 A 
ATOM      9  C   UNL     1       2.987   3.253  17.950  0.00  0.00    +0.000 A 
ATOM     10  C   UNL     1       2.272   2.069  18.200  0.00  0.00    +0.000 A 
ATOM     11  C   UNL     1       1.117   2.078  18.977  0.00  0.00    +0.000 A 
ATOM     12  C   UNL     1       0.659   3.273  19.513  0.00  0.00    +0.000 A 
ATOM     13  C   UNL     1       1.361   4.457  19.271  0.00  0.00    +0.000 A 
ATOM     14  C   UNL     1       2.542   4.482  18.488  0.00  0.00    +0.000 A 
ENDROOT
BRANCH   1  16
ATOM     15  C   UNL     1       2.144   7.835  18.035  0.00  0.00    +0.000 C 
ATOM     16  C   UNL     1       2.850   6.959  18.767  0.00  0.00    +0.000 C 
BRANCH  15  19
ATOM     17  C   UNL     1       1.751  11.551  18.326  0.00  0.00    +0.000 C 
ATOM     18  N   UNL     1       2.048  10.216  17.869  0.00  0.00    +0.000 N 
ATOM     19  C   UNL     1       1.736   9.126  18.644  0.00  0.00    +0.000 C 
ATOM     20  O   UNL     1       1.183   9.198  19.734  0.00  0.00    +0.000 OA
ATOM     21  H   UNL     1       2.521  10.099  16.984  0.00  0.00    +0.000 HD
ENDBRANCH  15  19
ENDBRANCH   1  16
TORSDOF 2
ENDMDL
MODEL 6
REMARK VINA RESULT:      -7.9      1.123      4.163
REMARK  Name = 
REMARK  3 active torsions:
REMARK  status: ('A' for Active; 'I' for Inactive)
REMARK    1  A    between atoms: C_1  and  N_2
REMARK    2  A    between atoms: C_3  and  C_5
REMARK    3  A    between atoms: C_6  and  C_7
REMARK                            x       y       z     vdW  Elec       q    Type
REMARK                         _______ _______ _______ _____ _____    ______ ____
ROOT
ATOM      1  C   UNL     1       3.285   5.619  18.246  0.00  0.00    +0.000 A 
ATOM      2  C   UNL     1       2.530   4.443  18.551  0.00  0.00    +0.000 A 
ATOM      3  C   UNL     1       1.343   4.438  19.324  0.00  0.00    +0.000 A 
ATOM      4  C   UNL     1       0.648   3.258  19.603  0.00  0.00    +0.000 A 
ATOM      5  C   UNL     1       1.119   2.048  19.117  0.00  0.00    +0.000 A 
ATOM      6  C   UNL     1       2.275   2.021  18.340  0.00  0.00    +0.000 A 
ATOM      7  C   UNL     1       2.978   3.201  18.046  0.00  0.00    +0.000 A 
ATOM      8  C   UNL     1       4.125   3.148  17.245  0.00  0.00    +0.000 A 
ATOM      9  C   UNL     1       4.856   4.298  16.918  0.00  0.00    +0.000 A 
ATOM     10  C   UNL     1       5.986   4.197  16.090  0.00  0.00    +0.000 A 
ATOM     11  C   UNL     1       6.728   5.324  15.746  0.00  0.00    +0.000 A 
ATOM     12  C   UNL     1       6.349   6.568  16.229  0.00  0.00    +0.000 A 
ATOM     13  C   UNL     1       5.226   6.682  17.053  0.00  0.00    +0.000 A 
ATOM     14  C   UNL     1       4.448   5.555  17.419  0.00  0.00    +0.000 A 
ENDROOT
BRANCH   1  16
ATOM     15  C   UNL     1       2.142   7.802  18.062  0.00  0.00    +0.000 C 
ATOM     16  C   UNL     1       2.847   6.921  18.790  0.00  0.00    +0.000 C 
BRANCH  15  19
ATOM     17  C   UNL     1       1.720  11.517  18.317  0.00  0.00    +0.000 C 
ATOM     18  N   UNL     1       2.009  10.179  17.865  0.00  0.00    +0.000 N 
ATOM     19  C   UNL     1       1.750   9.098  18.671  0.00  0.00    +0.000 C 
ATOM     20  O   UNL     1       1.252   9.180  19.787  0.00  0.00    +0.000 OA
ATOM     21  H   UNL     1       2.438  10.053  16.960  0.00  0.00    +0.000 HD
ENDBRANCH  15  19
ENDBRANCH   1  16
TORSDOF 2
ENDMDL
MODEL 7
REMARK VINA RESULT:      -7.9      1.392      4.268
REMARK  Name = 
REMARK  3 active torsions:
REMARK  status: ('A' for Active; 'I' for Inactive)
REMARK    1  A    between atoms: C_1  and  N_2
REMARK    2  A    between atoms: C_3  and  C_5
REMARK    3  A    between atoms: C_6  and  C_7
REMARK                            x       y       z     vdW  Elec       q    Type
REMARK                         _______ _______ _______ _____ _____    ______ ____
ROOT
ATOM      1  C   UNL     1       3.304   5.845  18.541  0.00  0.00    +0.000 A 
ATOM      2  C   UNL     1       2.745   4.781  19.314  0.00  0.00    +0.000 A 
ATOM      3  C   UNL     1       1.394   4.731  19.741  0.00  0.00    +0.000 A 
ATOM      4  C   UNL     1       0.899   3.672  20.506  0.00  0.00    +0.000 A 
ATOM      5  C   UNL     1       1.739   2.629  20.867  0.00  0.00    +0.000 A 
ATOM      6  C   UNL     1       3.068   2.640  20.449  0.00  0.00    +0.000 A 
ATOM      7  C   UNL     1       3.576   3.696  19.674  0.00  0.00    +0.000 A 
ATOM      8  C   UNL     1       4.910   3.670  19.250  0.00  0.00    +0.000 A 
ATOM      9  C   UNL     1       5.460   4.696  18.469  0.00  0.00    +0.000 A 
ATOM     10  C   UNL     1       6.798   4.614  18.047  0.00  0.00    +0.000 A 
ATOM     11  C   UNL     1       7.368   5.617  17.267  0.00  0.00    +0.000 A 
ATOM     12  C   UNL     1       6.606   6.717  16.901  0.00  0.00    +0.000 A 
ATOM     13  C   UNL     1       5.275   6.810  17.314  0.00  0.00    +0.000 A 
ATOM     14  C   UNL     1       4.664   5.805  18.105  0.00  0.00    +0.000 A 
ENDROOT
BRANCH   1  16
ATOM     15  C   UNL     1       2.342   8.080  18.973  0.00  0.00    +0.000 C 
ATOM     16  C   UNL     1       2.457   7.002  18.182  0.00  0.00    +0.000 C 
BRANCH  15  19
ATOM     17  C   UNL     1      -0.418  10.599  19.251  0.00  0.00    +0.000 C 
ATOM     18  N   UNL     1       0.539   9.553  19.508  0.00  0.00    +0.000 N 
ATOM     19  C   UNL     1       1.460   9.198  18.553  0.00  0.00    +0.000 C 
ATOM     20  O   UNL     1       1.551   9.737  17.457  0.00  0.00    +0.000 OA
ATOM     21  H   UNL     1       0.497   9.061  20.390  0.00  0.00    +0.000 HD
ENDBRANCH  15  19
ENDBRANCH   1  16
TORSDOF 2
ENDMDL
MODEL 8
REMARK VINA RESULT:      -7.8      1.401      1.407
REMARK  Name = 
REMARK  3 active torsions:
REMARK  status: ('A' for Active; 'I' for Inactive)
REMARK    1  A    between atoms: C_1  and  N_2
REMARK    2  A    between atoms: C_3  and  C_5
REMARK    3  A    between atoms: C_6  and  C_7
REMARK                            x       y       z     vdW  Elec       q    Type
REMARK                         _______ _______ _______ _____ _____    ______ ____
ROOT
ATOM      1  C   UNL     1       3.314   5.848  18.541  0.00  0.00    +0.000 A 
ATOM      2  C   UNL     1       4.678   5.821  18.115  0.00  0.00    +0.000 A 
ATOM      3  C   UNL     1       5.305   6.859  17.381  0.00  0.00    +0.000 A 
ATOM      4  C   UNL     1       6.640   6.778  16.978  0.00  0.00    +0.000 A 
ATOM      5  C   UNL     1       7.391   5.656  17.297  0.00  0.00    +0.000 A 
ATOM      6  C   UNL     1       6.809   4.625  18.032  0.00  0.00    +0.000 A 
ATOM      7  C   UNL     1       5.470   4.698  18.449  0.00  0.00    +0.000 A 
ATOM      8  C   UNL     1       4.917   3.657  19.205  0.00  0.00    +0.000 A 
ATOM      9  C   UNL     1       3.589   3.688  19.650  0.00  0.00    +0.000 A 
ATOM     10  C   UNL     1       3.087   2.630  20.427  0.00  0.00    +0.000 A 
ATOM     11  C   UNL     1       1.772   2.637  20.886  0.00  0.00    +0.000 A 
ATOM     12  C   UNL     1       0.941   3.702  20.571  0.00  0.00    +0.000 A 
ATOM     13  C   UNL     1       1.429   4.760  19.799  0.00  0.00    +0.000 A 
ATOM     14  C   UNL     1       2.763   4.786  19.320  0.00  0.00    +0.000 A 
ENDROOT
BRANCH   1  16
ATOM     15  C   UNL     1       2.365   8.094  18.947  0.00  0.00    +0.000 C 
ATOM     16  C   UNL     1       2.464   7.001  18.174  0.00  0.00    +0.000 C 
BRANCH  15  19
ATOM     17  C   UNL     1      -0.423  10.585  19.198  0.00  0.00    +0.000 C 
ATOM     18  N   UNL     1       0.540   9.545  19.463  0.00  0.00    +0.000 N 
ATOM     19  C   UNL     1       1.480   9.207  18.521  0.00  0.00    +0.000 C 
ATOM     20  O   UNL     1       1.584   9.754  17.431  0.00  0.00    +0.000 OA
ATOM     21  H   UNL     1       0.488   9.047  20.340  0.00  0.00    +0.000 HD
ENDBRANCH  15  19
ENDBRANCH   1  16
TORSDOF 2
ENDMDL
MODEL 9
REMARK VINA RESULT:      -7.7      1.523      1.643
REMARK  Name = 
REMARK  3 active torsions:
REMARK  status: ('A' for Active; 'I' for Inactive)
REMARK    1  A    between atoms: C_1  and  N_2
REMARK    2  A    between atoms: C_3  and  C_5
REMARK    3  A    between atoms: C_6  and  C_7
REMARK                            x       y       z     vdW  Elec       q    Type
REMARK                         _______ _______ _______ _____ _____    ______ ____
ROOT
ATOM      1  C   UNL     1       3.213   5.578  18.184  0.00  0.00    +0.000 A 
ATOM      2  C   UNL     1       4.500   5.683  17.571  0.00  0.00    +0.000 A 
ATOM      3  C   UNL     1       5.212   6.898  17.414  0.00  0.00    +0.000 A 
ATOM      4  C   UNL     1       6.464   6.948  16.797  0.00  0.00    +0.000 A 
ATOM      5  C   UNL     1       7.044   5.783  16.317  0.00  0.00    +0.000 A 
ATOM      6  C   UNL     1       6.378   4.569  16.470  0.00  0.00    +0.000 A 
ATOM      7  C   UNL     1       5.122   4.505  17.096  0.00  0.00    +0.000 A 
ATOM      8  C   UNL     1       4.484   3.268  17.256  0.00  0.00    +0.000 A 
ATOM      9  C   UNL     1       3.235   3.153  17.880  0.00  0.00    +0.000 A 
ATOM     10  C   UNL     1       2.646   1.887  18.039  0.00  0.00    +0.000 A 
ATOM     11  C   UNL     1       1.408   1.743  18.659  0.00  0.00    +0.000 A 
ATOM     12  C   UNL     1       0.741   2.866  19.126  0.00  0.00    +0.000 A 
ATOM     13  C   UNL     1       1.315   4.130  18.974  0.00  0.00    +0.000 A 
ATOM     14  C   UNL     1       2.576   4.311  18.351  0.00  0.00    +0.000 A 
ENDROOT
BRANCH   1  16
ATOM     15  C   UNL     1       2.306   7.037  19.961  0.00  0.00    +0.000 C 
ATOM     16  C   UNL     1       2.536   6.803  18.659  0.00  0.00    +0.000 C 
BRANCH  15  19
ATOM     17  C   UNL     1       0.795   9.560  22.284  0.00  0.00    +0.000 C 
ATOM     18  N   UNL     1       1.479   8.422  21.723  0.00  0.00    +0.000 N 
ATOM     19  C   UNL     1       1.608   8.284  20.362  0.00  0.00    +0.000 C 
ATOM     20  O   UNL     1       1.185   9.096  19.550  0.00  0.00    +0.000 OA
ATOM     21  H   UNL     1       1.832   7.710  22.347  0.00  0.00    +0.000 HD
ENDBRANCH  15  19
ENDBRANCH   1  16
TORSDOF 2
ENDMDL
