MODEL 1
REMARK VINA RESULT:      -7.7      0.000      0.000
REMARK  Name = 
REMARK  7 active torsions:
REMARK  status: ('A' for Active; 'I' for Inactive)
REMARK    1  A    between atoms: C_7  and  C_8
REMARK    2  A    between atoms: C_12  and  N_13
REMARK    3  A    between atoms: N_13  and  C_14
REMARK    4  A    between atoms: C_18  and  C_19
REMARK    5  A    between atoms: C_23  and  O_24
REMARK    6  A    between atoms: O_24  and  C_25
REMARK    7  A    between atoms: C_25  and  C_26
REMARK                            x       y       z     vdW  Elec       q    Type
REMARK                         _______ _______ _______ _____ _____    ______ ____
ROOT
ATOM      1  C   UNL     1      -2.690  12.871  20.148  0.00  0.00    +0.000 A 
ATOM      2  C   UNL     1      -2.652  14.147  20.737  0.00  0.00    +0.000 A 
ATOM      3  N   UNL     1      -1.430  14.498  21.147  0.00  0.00    +0.000 NA
ATOM      4  N   UNL     1      -0.636  13.450  20.771  0.00  0.00    +0.000 N 
ATOM      5  C   UNL     1       0.768  13.330  20.936  0.00  0.00    +0.000 A 
ATOM      6  C   UNL     1       1.364  12.218  20.470  0.00  0.00    +0.000 A 
ATOM      7  C   UNL     1       0.481  11.154  19.896  0.00  0.00    +0.000 A 
ATOM      8  N   UNL     1      -0.805  11.266  19.749  0.00  0.00    +0.000 NA
ATOM      9  C   UNL     1      -1.383  12.433  20.173  0.00  0.00    +0.000 A 
ENDROOT
BRANCH   1  16
ATOM     10  O   UNL     1      -3.132  11.230  15.088  0.00  0.00    +0.000 OA
ATOM     11  C   UNL     1      -3.647  11.264  16.192  0.00  0.00    +0.000 C 
ATOM     12  N   UNL     1      -4.879  10.764  16.525  0.00  0.00    +0.000 N 
ATOM     13  C   UNL     1      -5.188  11.025  17.832  0.00  0.00    +0.000 C 
ATOM     14  O   UNL     1      -6.218  10.771  18.425  0.00  0.00    +0.000 OA
ATOM     15  C   UNL     1      -3.986  11.732  18.371  0.00  0.00    +0.000 C 
ATOM     16  C   UNL     1      -3.829  12.182  19.622  0.00  0.00    +0.000 C 
ATOM     17  N   UNL     1      -3.107  11.822  17.330  0.00  0.00    +0.000 N 
ATOM     18  H   UNL     1      -5.498  10.329  15.865  0.00  0.00    +0.000 HD
ATOM     19  H   UNL     1      -2.240  12.351  17.355  0.00  0.00    +0.000 HD
ENDBRANCH   1  16
BRANCH   7  20
ATOM     20  C   UNL     1       1.131   9.874  19.494  0.00  0.00    +0.000 A 
ATOM     21  C   UNL     1       1.610   9.726  18.186  0.00  0.00    +0.000 A 
ATOM     22  C   UNL     1       2.199   8.524  17.793  0.00  0.00    +0.000 A 
ATOM     23  C   UNL     1       2.296   7.466  18.699  0.00  0.00    +0.000 A 
ATOM     24  C   UNL     1       1.781   7.591  19.990  0.00  0.00    +0.000 A 
ATOM     25  C   UNL     1       1.203   8.797  20.386  0.00  0.00    +0.000 A 
BRANCH  24  26
ATOM     26  O   UNL     1       1.917   6.485  20.786  0.00  0.00    +0.000 OA
BRANCH  26  27
ATOM     27  C   UNL     1       2.160   5.251  20.111  0.00  0.00    +0.000 C 
BRANCH  27  28
ATOM     28  C   UNL     1       1.198   4.223  20.621  0.00  0.00    +0.000 C 
ATOM     29  C   UNL     1       0.796   3.049  19.764  0.00  0.00    +0.000 C 
ATOM     30  C   UNL     1       1.690   2.835  20.952  0.00  0.00    +0.000 C 
ENDBRANCH  27  28
ENDBRANCH  26  27
ENDBRANCH  24  26
ENDBRANCH   7  20
BRANCH   5  31
ATOM     31  N   UNL     1       1.428  14.398  21.549  0.00  0.00    +0.000 N 
ATOM     32  H   UNL     1       1.866  14.081  22.423  0.00  0.00    +0.000 HD
BRANCH  31  33
ATOM     33  C   UNL     1       2.207  15.337  20.735  0.00  0.00    +0.000 C 
ATOM     34  C   UNL     1       1.684  15.899  19.443  0.00  0.00    +0.000 C 
ATOM     35  C   UNL     1       1.753  16.769  20.663  0.00  0.00    +0.000 C 
ENDBRANCH  31  33
ENDBRANCH   5  31
TORSDOF 7
ENDMDL
MODEL 2
REMARK VINA RESULT:      -7.7      2.717      7.654
REMARK  Name = 
REMARK  7 active torsions:
REMARK  status: ('A' for Active; 'I' for Inactive)
REMARK    1  A    between atoms: C_7  and  C_8
REMARK    2  A    between atoms: C_12  and  N_13
REMARK    3  A    between atoms: N_13  and  C_14
REMARK    4  A    between atoms: C_18  and  C_19
REMARK    5  A    between atoms: C_23  and  O_24
REMARK    6  A    between atoms: O_24  and  C_25
REMARK    7  A    between atoms: C_25  and  C_26
REMARK                            x       y       z     vdW  Elec       q    Type
REMARK                         _______ _______ _______ _____ _____    ______ ____
ROOT
ATOM      1  C   UNL     1       1.499   8.719  20.465  0.00  0.00    +0.000 A 
ATOM      2  C   UNL     1       1.941   9.111  21.741  0.00  0.00    +0.000 A 
ATOM      3  N   UNL     1       1.233  10.123  22.252  0.00  0.00    +0.000 NA
ATOM      4  N   UNL     1       0.269  10.366  21.314  0.00  0.00    +0.000 N 
ATOM      5  C   UNL     1      -0.777  11.323  21.380  0.00  0.00    +0.000 A 
ATOM      6  C   UNL     1      -1.640  11.384  20.351  0.00  0.00    +0.000 A 
ATOM      7  C   UNL     1      -1.373  10.496  19.175  0.00  0.00    +0.000 A 
ATOM      8  N   UNL     1      -0.412   9.624  19.117  0.00  0.00    +0.000 NA
ATOM      9  C   UNL     1       0.417   9.534  20.202  0.00  0.00    +0.000 A 
ENDROOT
BRANCH   1  16
ATOM     10  O   UNL     1       2.201   3.658  22.004  0.00  0.00    +0.000 OA
ATOM     11  C   UNL     1       2.287   4.462  21.092  0.00  0.00    +0.000 C 
ATOM     12  N   UNL     1       2.773   4.210  19.835  0.00  0.00    +0.000 N 
ATOM     13  C   UNL     1       2.796   5.345  19.072  0.00  0.00    +0.000 C 
ATOM     14  O   UNL     1       3.216   5.480  17.940  0.00  0.00    +0.000 OA
ATOM     15  C   UNL     1       2.218   6.406  19.953  0.00  0.00    +0.000 C 
ATOM     16  C   UNL     1       2.038   7.691  19.628  0.00  0.00    +0.000 C 
ATOM     17  N   UNL     1       1.929   5.792  21.138  0.00  0.00    +0.000 N 
ATOM     18  H   UNL     1       3.132   3.318  19.547  0.00  0.00    +0.000 HD
ATOM     19  H   UNL     1       1.626   6.277  21.977  0.00  0.00    +0.000 HD
ENDBRANCH   1  16
BRANCH   7  20
ATOM     20  C   UNL     1      -2.260  10.655  17.987  0.00  0.00    +0.000 A 
ATOM     21  C   UNL     1      -1.870  10.108  16.759  0.00  0.00    +0.000 A 
ATOM     22  C   UNL     1      -2.681  10.272  15.636  0.00  0.00    +0.000 A 
ATOM     23  C   UNL     1      -3.873  10.993  15.736  0.00  0.00    +0.000 A 
ATOM     24  C   UNL     1      -4.246  11.577  16.946  0.00  0.00    +0.000 A 
ATOM     25  C   UNL     1      -3.440  11.403  18.071  0.00  0.00    +0.000 A 
BRANCH  24  26
ATOM     26  O   UNL     1      -5.425  12.274  16.923  0.00  0.00    +0.000 OA
BRANCH  26  27
ATOM     27  C   UNL     1      -5.971  12.626  18.195  0.00  0.00    +0.000 C 
BRANCH  27  28
ATOM     28  C   UNL     1      -7.095  11.690  18.514  0.00  0.00    +0.000 C 
ATOM     29  C   UNL     1      -6.818  10.288  18.998  0.00  0.00    +0.000 C 
ATOM     30  C   UNL     1      -7.371  11.311  19.949  0.00  0.00    +0.000 C 
ENDBRANCH  27  28
ENDBRANCH  26  27
ENDBRANCH  24  26
ENDBRANCH   7  20
BRANCH   5  31
ATOM     31  N   UNL     1      -0.842  12.112  22.531  0.00  0.00    +0.000 N 
ATOM     32  H   UNL     1       0.107  12.380  22.823  0.00  0.00    +0.000 HD
BRANCH  31  33
ATOM     33  C   UNL     1      -1.874  13.146  22.648  0.00  0.00    +0.000 C 
ATOM     34  C   UNL     1      -3.030  13.018  23.600  0.00  0.00    +0.000 C 
ATOM     35  C   UNL     1      -1.917  13.977  23.900  0.00  0.00    +0.000 C 
ENDBRANCH  31  33
ENDBRANCH   5  31
TORSDOF 7
ENDMDL
MODEL 3
REMARK VINA RESULT:      -7.6      2.967      5.938
REMARK  Name = 
REMARK  7 active torsions:
REMARK  status: ('A' for Active; 'I' for Inactive)
REMARK    1  A    between atoms: C_7  and  C_8
REMARK    2  A    between atoms: C_12  and  N_13
REMARK    3  A    between atoms: N_13  and  C_14
REMARK    4  A    between atoms: C_18  and  C_19
REMARK    5  A    between atoms: C_23  and  O_24
REMARK    6  A    between atoms: O_24  and  C_25
REMARK    7  A    between atoms: C_25  and  C_26
REMARK                            x       y       z     vdW  Elec       q    Type
REMARK                         _______ _______ _______ _____ _____    ______ ____
ROOT
ATOM      1  C   UNL     1       1.293  14.083  20.079  0.00  0.00    +0.000 A 
ATOM      2  C   UNL     1       0.228  14.952  19.781  0.00  0.00    +0.000 A 
ATOM      3  N   UNL     1      -0.772  14.350  19.130  0.00  0.00    +0.000 NA
ATOM      4  N   UNL     1      -0.379  13.042  19.046  0.00  0.00    +0.000 N 
ATOM      5  C   UNL     1      -1.099  11.960  18.478  0.00  0.00    +0.000 A 
ATOM      6  C   UNL     1      -0.538  10.739  18.520  0.00  0.00    +0.000 A 
ATOM      7  C   UNL     1       0.846  10.637  19.082  0.00  0.00    +0.000 A 
ATOM      8  N   UNL     1       1.504  11.631  19.599  0.00  0.00    +0.000 NA
ATOM      9  C   UNL     1       0.888  12.853  19.603  0.00  0.00    +0.000 A 
ENDROOT
BRANCH   1  16
ATOM     10  O   UNL     1       5.946  14.862  17.585  0.00  0.00    +0.000 OA
ATOM     11  C   UNL     1       5.355  14.856  18.651  0.00  0.00    +0.000 C 
ATOM     12  N   UNL     1       5.910  15.083  19.884  0.00  0.00    +0.000 N 
ATOM     13  C   UNL     1       4.985  14.936  20.882  0.00  0.00    +0.000 C 
ATOM     14  O   UNL     1       5.158  15.012  22.083  0.00  0.00    +0.000 OA
ATOM     15  C   UNL     1       3.708  14.621  20.172  0.00  0.00    +0.000 C 
ATOM     16  C   UNL     1       2.520  14.398  20.745  0.00  0.00    +0.000 C 
ATOM     17  N   UNL     1       4.014  14.605  18.841  0.00  0.00    +0.000 N 
ATOM     18  H   UNL     1       6.887  15.262  20.029  0.00  0.00    +0.000 HD
ATOM     19  H   UNL     1       3.375  14.310  18.109  0.00  0.00    +0.000 HD
ENDBRANCH   1  16
BRANCH   7  20
ATOM     20  C   UNL     1       1.512   9.305  19.014  0.00  0.00    +0.000 A 
ATOM     21  C   UNL     1       2.237   8.956  17.868  0.00  0.00    +0.000 A 
ATOM     22  C   UNL     1       2.843   7.702  17.784  0.00  0.00    +0.000 A 
ATOM     23  C   UNL     1       2.714   6.793  18.836  0.00  0.00    +0.000 A 
ATOM     24  C   UNL     1       1.957   7.118  19.962  0.00  0.00    +0.000 A 
ATOM     25  C   UNL     1       1.360   8.376  20.050  0.00  0.00    +0.000 A 
BRANCH  24  26
ATOM     26  O   UNL     1       1.885   6.145  20.922  0.00  0.00    +0.000 OA
BRANCH  26  27
ATOM     27  C   UNL     1       2.400   4.863  20.557  0.00  0.00    +0.000 C 
BRANCH  27  28
ATOM     28  C   UNL     1       1.302   3.851  20.674  0.00  0.00    +0.000 C 
ATOM     29  C   UNL     1       1.455   2.475  20.075  0.00  0.00    +0.000 C 
ATOM     30  C   UNL     1       1.485   2.648  21.567  0.00  0.00    +0.000 C 
ENDBRANCH  27  28
ENDBRANCH  26  27
ENDBRANCH  24  26
ENDBRANCH   7  20
BRANCH   5  31
ATOM     31  N   UNL     1      -2.357  12.248  17.942  0.00  0.00    +0.000 N 
ATOM     32  H   UNL     1      -2.413  13.247  17.703  0.00  0.00    +0.000 HD
BRANCH  31  33
ATOM     33  C   UNL     1      -2.975  11.317  16.992  0.00  0.00    +0.000 C 
ATOM     34  C   UNL     1      -3.891  10.212  17.438  0.00  0.00    +0.000 C 
ATOM     35  C   UNL     1      -4.455  11.419  16.749  0.00  0.00    +0.000 C 
ENDBRANCH  31  33
ENDBRANCH   5  31
TORSDOF 7
ENDMDL
MODEL 4
REMARK VINA RESULT:      -7.5      5.824     10.442
REMARK  Name = 
REMARK  7 active torsions:
REMARK  status: ('A' for Active; 'I' for Inactive)
REMARK    1  A    between atoms: C_7  and  C_8
REMARK    2  A    between atoms: C_12  and  N_13
REMARK    3  A    between atoms: N_13  and  C_14
REMARK    4  A    between atoms: C_18  and  C_19
REMARK    5  A    between atoms: C_23  and  O_24
REMARK    6  A    between atoms: O_24  and  C_25
REMARK    7  A    between atoms: C_25  and  C_26
REMARK                            x       y       z     vdW  Elec       q    Type
REMARK                         _______ _______ _______ _____ _____    ______ ____
ROOT
ATOM      1  C   UNL     1       4.835   3.909  16.820  0.00  0.00    +0.000 A 
ATOM      2  C   UNL     1       4.638   2.531  17.023  0.00  0.00    +0.000 A 
ATOM      3  N   UNL     1       3.597   2.263  17.818  0.00  0.00    +0.000 NA
ATOM      4  N   UNL     1       3.066   3.491  18.101  0.00  0.00    +0.000 N 
ATOM      5  C   UNL     1       1.914   3.774  18.880  0.00  0.00    +0.000 A 
ATOM      6  C   UNL     1       1.546   5.060  19.016  0.00  0.00    +0.000 A 
ATOM      7  C   UNL     1       2.436   6.098  18.407  0.00  0.00    +0.000 A 
ATOM      8  N   UNL     1       3.491   5.836  17.696  0.00  0.00    +0.000 NA
ATOM      9  C   UNL     1       3.813   4.518  17.518  0.00  0.00    +0.000 A 
ENDROOT
BRANCH   1  16
ATOM     10  O   UNL     1       5.952   2.691  11.746  0.00  0.00    +0.000 OA
ATOM     11  C   UNL     1       6.208   3.409  12.696  0.00  0.00    +0.000 C 
ATOM     12  N   UNL     1       7.181   4.375  12.742  0.00  0.00    +0.000 N 
ATOM     13  C   UNL     1       7.252   4.954  13.979  0.00  0.00    +0.000 C 
ATOM     14  O   UNL     1       8.036   5.797  14.369  0.00  0.00    +0.000 OA
ATOM     15  C   UNL     1       6.170   4.292  14.770  0.00  0.00    +0.000 C 
ATOM     16  C   UNL     1       5.859   4.543  16.047  0.00  0.00    +0.000 C 
ATOM     17  N   UNL     1       5.586   3.392  13.926  0.00  0.00    +0.000 N 
ATOM     18  H   UNL     1       7.804   4.572  11.979  0.00  0.00    +0.000 HD
ATOM     19  H   UNL     1       4.889   2.709  14.208  0.00  0.00    +0.000 HD
ENDBRANCH   1  16
BRANCH   7  20
ATOM     20  C   UNL     1       2.091   7.525  18.664  0.00  0.00    +0.000 A 
ATOM     21  C   UNL     1       2.226   8.463  17.633  0.00  0.00    +0.000 A 
ATOM     22  C   UNL     1       1.929   9.805  17.870  0.00  0.00    +0.000 A 
ATOM     23  C   UNL     1       1.511  10.213  19.138  0.00  0.00    +0.000 A 
ATOM     24  C   UNL     1       1.416   9.293  20.182  0.00  0.00    +0.000 A 
ATOM     25  C   UNL     1       1.703   7.948  19.941  0.00  0.00    +0.000 A 
BRANCH  24  26
ATOM     26  O   UNL     1       1.013   9.807  21.385  0.00  0.00    +0.000 OA
BRANCH  26  27
ATOM     27  C   UNL     1      -0.386  10.056  21.524  0.00  0.00    +0.000 C 
BRANCH  27  28
ATOM     28  C   UNL     1      -0.581  11.211  22.457  0.00  0.00    +0.000 C 
ATOM     29  C   UNL     1      -0.386  12.629  21.980  0.00  0.00    +0.000 C 
ATOM     30  C   UNL     1      -1.770  12.125  22.280  0.00  0.00    +0.000 C 
ENDBRANCH  27  28
ENDBRANCH  26  27
ENDBRANCH  24  26
ENDBRANCH   7  20
BRANCH   5  31
ATOM     31  N   UNL     1       1.235   2.681  19.425  0.00  0.00    +0.000 N 
ATOM     32  H   UNL     1       0.959   2.034  18.676  0.00  0.00    +0.000 HD
BRANCH  31  33
ATOM     33  C   UNL     1       1.716   2.070  20.668  0.00  0.00    +0.000 C 
ATOM     34  C   UNL     1       2.662   2.781  21.595  0.00  0.00    +0.000 C 
ATOM     35  C   UNL     1       1.220   2.620  21.976  0.00  0.00    +0.000 C 
ENDBRANCH  31  33
ENDBRANCH   5  31
TORSDOF 7
ENDMDL
MODEL 5
REMARK VINA RESULT:      -7.5      5.034      9.957
REMARK  Name = 
REMARK  7 active torsions:
REMARK  status: ('A' for Active; 'I' for Inactive)
REMARK    1  A    between atoms: C_7  and  C_8
REMARK    2  A    between atoms: C_12  and  N_13
REMARK    3  A    between atoms: N_13  and  C_14
REMARK    4  A    between atoms: C_18  and  C_19
REMARK    5  A    between atoms: C_23  and  O_24
REMARK    6  A    between atoms: O_24  and  C_25
REMARK    7  A    between atoms: C_25  and  C_26
REMARK                            x       y       z     vdW  Elec       q    Type
REMARK                         _______ _______ _______ _____ _____    ______ ____
ROOT
ATOM      1  C   UNL     1       4.961   5.053  18.882  0.00  0.00    +0.000 A 
ATOM      2  C   UNL     1       4.968   3.667  19.120  0.00  0.00    +0.000 A 
ATOM      3  N   UNL     1       3.919   3.255  19.838  0.00  0.00    +0.000 NA
ATOM      4  N   UNL     1       3.178   4.388  20.032  0.00  0.00    +0.000 N 
ATOM      5  C   UNL     1       1.934   4.500  20.705  0.00  0.00    +0.000 A 
ATOM      6  C   UNL     1       1.356   5.713  20.761  0.00  0.00    +0.000 A 
ATOM      7  C   UNL     1       2.119   6.866  20.187  0.00  0.00    +0.000 A 
ATOM      8  N   UNL     1       3.259   6.759  19.573  0.00  0.00    +0.000 NA
ATOM      9  C   UNL     1       3.799   5.506  19.471  0.00  0.00    +0.000 A 
ENDROOT
BRANCH   1  16
ATOM     10  O   UNL     1       6.719   3.881  13.981  0.00  0.00    +0.000 OA
ATOM     11  C   UNL     1       6.767   4.661  14.916  0.00  0.00    +0.000 C 
ATOM     12  N   UNL     1       7.560   5.776  14.999  0.00  0.00    +0.000 N 
ATOM     13  C   UNL     1       7.423   6.398  16.210  0.00  0.00    +0.000 C 
ATOM     14  O   UNL     1       8.020   7.372  16.626  0.00  0.00    +0.000 OA
ATOM     15  C   UNL     1       6.396   5.590  16.936  0.00  0.00    +0.000 C 
ATOM     16  C   UNL     1       5.934   5.825  18.170  0.00  0.00    +0.000 C 
ATOM     17  N   UNL     1       6.046   4.579  16.088  0.00  0.00    +0.000 N 
ATOM     18  H   UNL     1       8.209   6.050  14.284  0.00  0.00    +0.000 HD
ATOM     19  H   UNL     1       5.448   3.798  16.341  0.00  0.00    +0.000 HD
ENDBRANCH   1  16
BRANCH   7  20
ATOM     20  C   UNL     1       1.531   8.225  20.361  0.00  0.00    +0.000 A 
ATOM     21  C   UNL     1       1.264   8.699  21.652  0.00  0.00    +0.000 A 
ATOM     22  C   UNL     1       0.691   9.959  21.825  0.00  0.00    +0.000 A 
ATOM     23  C   UNL     1       0.373  10.739  20.711  0.00  0.00    +0.000 A 
ATOM     24  C   UNL     1       0.596  10.256  19.422  0.00  0.00    +0.000 A 
ATOM     25  C   UNL     1       1.179   9.000  19.250  0.00  0.00    +0.000 A 
BRANCH  24  26
ATOM     26  O   UNL     1       0.230  11.098  18.407  0.00  0.00    +0.000 OA
BRANCH  26  27
ATOM     27  C   UNL     1      -1.165  11.389  18.304  0.00  0.00    +0.000 C 
BRANCH  27  28
ATOM     28  C   UNL     1      -1.892  10.136  17.923  0.00  0.00    +0.000 C 
ATOM     29  C   UNL     1      -3.363  10.169  17.589  0.00  0.00    +0.000 C 
ATOM     30  C   UNL     1      -2.354   9.941  16.499  0.00  0.00    +0.000 C 
ENDBRANCH  27  28
ENDBRANCH  26  27
ENDBRANCH  24  26
ENDBRANCH   7  20
BRANCH   5  31
ATOM     31  N   UNL     1       1.392   3.326  21.235  0.00  0.00    +0.000 N 
ATOM     32  H   UNL     1       1.031   3.506  22.180  0.00  0.00    +0.000 HD
BRANCH  31  33
ATOM     33  C   UNL     1       0.581   2.449  20.384  0.00  0.00    +0.000 C 
ATOM     34  C   UNL     1       0.419   2.692  18.910  0.00  0.00    +0.000 C 
ATOM     35  C   UNL     1       1.283   1.564  19.392  0.00  0.00    +0.000 C 
ENDBRANCH  31  33
ENDBRANCH   5  31
TORSDOF 7
ENDMDL
MODEL 6
REMARK VINA RESULT:      -7.4      3.199      6.210
REMARK  Name = 
REMARK  7 active torsions:
REMARK  status: ('A' for Active; 'I' for Inactive)
REMARK    1  A    between atoms: C_7  and  C_8
REMARK    2  A    between atoms: C_12  and  N_13
REMARK    3  A    between atoms: N_13  and  C_14
REMARK    4  A    between atoms: C_18  and  C_19
REMARK    5  A    between atoms: C_23  and  O_24
REMARK    6  A    between atoms: O_24  and  C_25
REMARK    7  A    between atoms: C_25  and  C_26
REMARK                            x       y       z     vdW  Elec       q    Type
REMARK                         _______ _______ _______ _____ _____    ______ ____
ROOT
ATOM      1  C   UNL     1       1.446  13.987  19.672  0.00  0.00    +0.000 A 
ATOM      2  C   UNL     1       0.533  14.875  19.076  0.00  0.00    +0.000 A 
ATOM      3  N   UNL     1      -0.425  14.254  18.382  0.00  0.00    +0.000 NA
ATOM      4  N   UNL     1      -0.166  12.924  18.569  0.00  0.00    +0.000 N 
ATOM      5  C   UNL     1      -0.912  11.822  18.075  0.00  0.00    +0.000 A 
ATOM      6  C   UNL     1      -0.496  10.585  18.398  0.00  0.00    +0.000 A 
ATOM      7  C   UNL     1       0.777  10.469  19.179  0.00  0.00    +0.000 A 
ATOM      8  N   UNL     1       1.458  11.480  19.627  0.00  0.00    +0.000 NA
ATOM      9  C   UNL     1       0.982  12.731  19.340  0.00  0.00    +0.000 A 
ENDROOT
BRANCH   1  16
ATOM     10  O   UNL     1       6.300  14.937  17.667  0.00  0.00    +0.000 OA
ATOM     11  C   UNL     1       5.608  14.888  18.669  0.00  0.00    +0.000 C 
ATOM     12  N   UNL     1       6.033  15.094  19.956  0.00  0.00    +0.000 N 
ATOM     13  C   UNL     1       5.020  14.900  20.854  0.00  0.00    +0.000 C 
ATOM     14  O   UNL     1       5.073  14.947  22.067  0.00  0.00    +0.000 OA
ATOM     15  C   UNL     1       3.827  14.576  20.014  0.00  0.00    +0.000 C 
ATOM     16  C   UNL     1       2.594  14.311  20.462  0.00  0.00    +0.000 C 
ATOM     17  N   UNL     1       4.261  14.603  18.720  0.00  0.00    +0.000 N 
ATOM     18  H   UNL     1       6.987  15.290  20.201  0.00  0.00    +0.000 HD
ATOM     19  H   UNL     1       3.704  14.314  17.922  0.00  0.00    +0.000 HD
ENDBRANCH   1  16
BRANCH   7  20
ATOM     20  C   UNL     1       1.299   9.095  19.429  0.00  0.00    +0.000 A 
ATOM     21  C   UNL     1       1.154   8.524  20.699  0.00  0.00    +0.000 A 
ATOM     22  C   UNL     1       1.660   7.249  20.950  0.00  0.00    +0.000 A 
ATOM     23  C   UNL     1       2.323   6.551  19.939  0.00  0.00    +0.000 A 
ATOM     24  C   UNL     1       2.510   7.130  18.684  0.00  0.00    +0.000 A 
ATOM     25  C   UNL     1       1.993   8.402  18.431  0.00  0.00    +0.000 A 
BRANCH  24  26
ATOM     26  O   UNL     1       3.187   6.362  17.776  0.00  0.00    +0.000 OA
BRANCH  26  27
ATOM     27  C   UNL     1       3.411   5.001  18.148  0.00  0.00    +0.000 C 
BRANCH  27  28
ATOM     28  C   UNL     1       2.379   4.143  17.483  0.00  0.00    +0.000 C 
ATOM     29  C   UNL     1       2.456   2.639  17.570  0.00  0.00    +0.000 C 
ATOM     30  C   UNL     1       1.387   3.377  18.325  0.00  0.00    +0.000 C 
ENDBRANCH  27  28
ENDBRANCH  26  27
ENDBRANCH  24  26
ENDBRANCH   7  20
BRANCH   5  31
ATOM     31  N   UNL     1      -2.043  12.115  17.310  0.00  0.00    +0.000 N 
ATOM     32  H   UNL     1      -1.760  12.553  16.424  0.00  0.00    +0.000 HD
BRANCH  31  33
ATOM     33  C   UNL     1      -3.143  11.148  17.235  0.00  0.00    +0.000 C 
ATOM     34  C   UNL     1      -4.517  11.534  16.766  0.00  0.00    +0.000 C 
ATOM     35  C   UNL     1      -3.626  10.717  15.878  0.00  0.00    +0.000 C 
ENDBRANCH  31  33
ENDBRANCH   5  31
TORSDOF 7
ENDMDL
MODEL 7
REMARK VINA RESULT:      -7.4      3.023      5.825
REMARK  Name = 
REMARK  7 active torsions:
REMARK  status: ('A' for Active; 'I' for Inactive)
REMARK    1  A    between atoms: C_7  and  C_8
REMARK    2  A    between atoms: C_12  and  N_13
REMARK    3  A    between atoms: N_13  and  C_14
REMARK    4  A    between atoms: C_18  and  C_19
REMARK    5  A    between atoms: C_23  and  O_24
REMARK    6  A    between atoms: O_24  and  C_25
REMARK    7  A    between atoms: C_25  and  C_26
REMARK                            x       y       z     vdW  Elec       q    Type
REMARK                         _______ _______ _______ _____ _____    ______ ____
ROOT
ATOM      1  C   UNL     1       0.658  13.233  20.452  0.00  0.00    +0.000 A 
ATOM      2  C   UNL     1      -0.497  13.974  20.143  0.00  0.00    +0.000 A 
ATOM      3  N   UNL     1      -1.323  13.333  19.310  0.00  0.00    +0.000 NA
ATOM      4  N   UNL     1      -0.722  12.121  19.109  0.00  0.00    +0.000 N 
ATOM      5  C   UNL     1      -1.206  11.038  18.330  0.00  0.00    +0.000 A 
ATOM      6  C   UNL     1      -0.465   9.916  18.283  0.00  0.00    +0.000 A 
ATOM      7  C   UNL     1       0.857   9.935  18.986  0.00  0.00    +0.000 A 
ATOM      8  N   UNL     1       1.297  10.930  19.695  0.00  0.00    +0.000 NA
ATOM      9  C   UNL     1       0.499  12.038  19.781  0.00  0.00    +0.000 A 
ENDROOT
BRANCH   1  16
ATOM     10  O   UNL     1       5.272  15.212  18.640  0.00  0.00    +0.000 OA
ATOM     11  C   UNL     1       4.610  14.916  19.620  0.00  0.00    +0.000 C 
ATOM     12  N   UNL     1       5.015  15.007  20.926  0.00  0.00    +0.000 N 
ATOM     13  C   UNL     1       4.058  14.530  21.780  0.00  0.00    +0.000 C 
ATOM     14  O   UNL     1       4.119  14.417  22.989  0.00  0.00    +0.000 OA
ATOM     15  C   UNL     1       2.919  14.141  20.893  0.00  0.00    +0.000 C 
ATOM     16  C   UNL     1       1.751  13.623  21.289  0.00  0.00    +0.000 C 
ATOM     17  N   UNL     1       3.326  14.415  19.619  0.00  0.00    +0.000 N 
ATOM     18  H   UNL     1       5.929  15.316  21.204  0.00  0.00    +0.000 HD
ATOM     19  H   UNL     1       2.812  14.154  18.783  0.00  0.00    +0.000 HD
ENDBRANCH   1  16
BRANCH   7  20
ATOM     20  C   UNL     1       1.727   8.735  18.828  0.00  0.00    +0.000 A 
ATOM     21  C   UNL     1       2.572   8.638  17.715  0.00  0.00    +0.000 A 
ATOM     22  C   UNL     1       3.372   7.508  17.546  0.00  0.00    +0.000 A 
ATOM     23  C   UNL     1       3.320   6.471  18.479  0.00  0.00    +0.000 A 
ATOM     24  C   UNL     1       2.450   6.541  19.567  0.00  0.00    +0.000 A 
ATOM     25  C   UNL     1       1.658   7.677  19.741  0.00  0.00    +0.000 A 
BRANCH  24  26
ATOM     26  O   UNL     1       2.471   5.460  20.407  0.00  0.00    +0.000 OA
BRANCH  26  27
ATOM     27  C   UNL     1       1.218   4.809  20.623  0.00  0.00    +0.000 C 
BRANCH  27  28
ATOM     28  C   UNL     1       1.431   3.327  20.583  0.00  0.00    +0.000 C 
ATOM     29  C   UNL     1       2.806   2.751  20.355  0.00  0.00    +0.000 C 
ATOM     30  C   UNL     1       2.167   2.645  21.711  0.00  0.00    +0.000 C 
ENDBRANCH  27  28
ENDBRANCH  26  27
ENDBRANCH  24  26
ENDBRANCH   7  20
BRANCH   5  31
ATOM     31  N   UNL     1      -2.436  11.216  17.692  0.00  0.00    +0.000 N 
ATOM     32  H   UNL     1      -2.917  12.034  18.087  0.00  0.00    +0.000 HD
BRANCH  31  33
ATOM     33  C   UNL     1      -2.535  11.041  16.240  0.00  0.00    +0.000 C 
ATOM     34  C   UNL     1      -2.911   9.727  15.616  0.00  0.00    +0.000 C 
ATOM     35  C   UNL     1      -3.898  10.856  15.632  0.00  0.00    +0.000 C 
ENDBRANCH  31  33
ENDBRANCH   5  31
TORSDOF 7
ENDMDL
MODEL 8
REMARK VINA RESULT:      -7.4      5.143     10.047
REMARK  Name = 
REMARK  7 active torsions:
REMARK  status: ('A' for Active; 'I' for Inactive)
REMARK    1  A    between atoms: C_7  and  C_8
REMARK    2  A    between atoms: C_12  and  N_13
REMARK    3  A    between atoms: N_13  and  C_14
REMARK    4  A    between atoms: C_18  and  C_19
REMARK    5  A    between atoms: C_23  and  O_24
REMARK    6  A    between atoms: O_24  and  C_25
REMARK    7  A    between atoms: C_25  and  C_26
REMARK                            x       y       z     vdW  Elec       q    Type
REMARK                         _______ _______ _______ _____ _____    ______ ____
ROOT
ATOM      1  C   UNL     1       5.070   4.936  18.790  0.00  0.00    +0.000 A 
ATOM      2  C   UNL     1       5.066   3.570  19.126  0.00  0.00    +0.000 A 
ATOM      3  N   UNL     1       4.013   3.217  19.869  0.00  0.00    +0.000 NA
ATOM      4  N   UNL     1       3.279   4.367  19.979  0.00  0.00    +0.000 N 
ATOM      5  C   UNL     1       2.035   4.535  20.639  0.00  0.00    +0.000 A 
ATOM      6  C   UNL     1       1.466   5.754  20.608  0.00  0.00    +0.000 A 
ATOM      7  C   UNL     1       2.239   6.857  19.955  0.00  0.00    +0.000 A 
ATOM      8  N   UNL     1       3.379   6.699  19.354  0.00  0.00    +0.000 NA
ATOM      9  C   UNL     1       3.911   5.438  19.342  0.00  0.00    +0.000 A 
ENDROOT
BRANCH   1  16
ATOM     10  O   UNL     1       6.428   3.727  13.772  0.00  0.00    +0.000 OA
ATOM     11  C   UNL     1       6.591   4.485  14.713  0.00  0.00    +0.000 C 
ATOM     12  N   UNL     1       7.468   5.538  14.760  0.00  0.00    +0.000 N 
ATOM     13  C   UNL     1       7.453   6.146  15.985  0.00  0.00    +0.000 C 
ATOM     14  O   UNL     1       8.143   7.067  16.375  0.00  0.00    +0.000 OA
ATOM     15  C   UNL     1       6.416   5.401  16.764  0.00  0.00    +0.000 C 
ATOM     16  C   UNL     1       6.050   5.647  18.028  0.00  0.00    +0.000 C 
ATOM     17  N   UNL     1       5.941   4.434  15.927  0.00  0.00    +0.000 N 
ATOM     18  H   UNL     1       8.089   5.777  14.008  0.00  0.00    +0.000 HD
ATOM     19  H   UNL     1       5.305   3.694  16.207  0.00  0.00    +0.000 HD
ENDBRANCH   1  16
BRANCH   7  20
ATOM     20  C   UNL     1       1.661   8.229  20.031  0.00  0.00    +0.000 A 
ATOM     21  C   UNL     1       1.552   8.996  18.864  0.00  0.00    +0.000 A 
ATOM     22  C   UNL     1       1.036  10.290  18.928  0.00  0.00    +0.000 A 
ATOM     23  C   UNL     1       0.641  10.823  20.157  0.00  0.00    +0.000 A 
ATOM     24  C   UNL     1       0.787  10.082  21.329  0.00  0.00    +0.000 A 
ATOM     25  C   UNL     1       1.293   8.783  21.262  0.00  0.00    +0.000 A 
BRANCH  24  26
ATOM     26  O   UNL     1       0.383  10.710  22.476  0.00  0.00    +0.000 OA
BRANCH  26  27
ATOM     27  C   UNL     1      -0.895  10.328  22.985  0.00  0.00    +0.000 C 
BRANCH  27  28
ATOM     28  C   UNL     1      -1.701  11.564  23.245  0.00  0.00    +0.000 C 
ATOM     29  C   UNL     1      -1.178  12.922  22.852  0.00  0.00    +0.000 C 
ATOM     30  C   UNL     1      -2.318  12.312  22.088  0.00  0.00    +0.000 C 
ENDBRANCH  27  28
ENDBRANCH  26  27
ENDBRANCH  24  26
ENDBRANCH   7  20
BRANCH   5  31
ATOM     31  N   UNL     1       1.483   3.406  21.249  0.00  0.00    +0.000 N 
ATOM     32  H   UNL     1       1.094   3.661  22.166  0.00  0.00    +0.000 HD
BRANCH  31  33
ATOM     33  C   UNL     1       0.699   2.457  20.452  0.00  0.00    +0.000 C 
ATOM     34  C   UNL     1       0.445   2.664  18.986  0.00  0.00    +0.000 C 
ATOM     35  C   UNL     1       1.416   1.613  19.435  0.00  0.00    +0.000 C 
ENDBRANCH  31  33
ENDBRANCH   5  31
TORSDOF 7
ENDMDL
MODEL 9
REMARK VINA RESULT:      -7.4      2.496      7.224
REMARK  Name = 
REMARK  7 active torsions:
REMARK  status: ('A' for Active; 'I' for Inactive)
REMARK    1  A    between atoms: C_7  and  C_8
REMARK    2  A    between atoms: C_12  and  N_13
REMARK    3  A    between atoms: N_13  and  C_14
REMARK    4  A    between atoms: C_18  and  C_19
REMARK    5  A    between atoms: C_23  and  O_24
REMARK    6  A    between atoms: O_24  and  C_25
REMARK    7  A    between atoms: C_25  and  C_26
REMARK                            x       y       z     vdW  Elec       q    Type
REMARK                         _______ _______ _______ _____ _____    ______ ____
ROOT
ATOM      1  C   UNL     1       0.824   8.448  21.201  0.00  0.00    +0.000 A 
ATOM      2  C   UNL     1       1.599   9.098  22.177  0.00  0.00    +0.000 A 
ATOM      3  N   UNL     1       1.469  10.428  22.148  0.00  0.00    +0.000 NA
ATOM      4  N   UNL     1       0.546  10.654  21.165  0.00  0.00    +0.000 N 
ATOM      5  C   UNL     1       0.014  11.902  20.752  0.00  0.00    +0.000 A 
ATOM      6  C   UNL     1      -0.910  11.901  19.775  0.00  0.00    +0.000 A 
ATOM      7  C   UNL     1      -1.236  10.585  19.139  0.00  0.00    +0.000 A 
ATOM      8  N   UNL     1      -0.746   9.444  19.519  0.00  0.00    +0.000 NA
ATOM      9  C   UNL     1       0.145   9.461  20.557  0.00  0.00    +0.000 A 
ENDROOT
BRANCH   1  16
ATOM     10  O   UNL     1       4.811   5.525  19.190  0.00  0.00    +0.000 OA
ATOM     11  C   UNL     1       3.672   5.525  19.625  0.00  0.00    +0.000 C 
ATOM     12  N   UNL     1       2.837   4.440  19.705  0.00  0.00    +0.000 N 
ATOM     13  C   UNL     1       1.603   4.793  20.178  0.00  0.00    +0.000 C 
ATOM     14  O   UNL     1       0.623   4.089  20.317  0.00  0.00    +0.000 OA
ATOM     15  C   UNL     1       1.710   6.258  20.457  0.00  0.00    +0.000 C 
ATOM     16  C   UNL     1       0.740   7.043  20.941  0.00  0.00    +0.000 C 
ATOM     17  N   UNL     1       2.982   6.614  20.111  0.00  0.00    +0.000 N 
ATOM     18  H   UNL     1       3.088   3.522  19.385  0.00  0.00    +0.000 HD
ATOM     19  H   UNL     1       3.323   7.570  20.083  0.00  0.00    +0.000 HD
ENDBRANCH   1  16
BRANCH   7  20
ATOM     20  C   UNL     1      -2.168  10.605  17.976  0.00  0.00    +0.000 A 
ATOM     21  C   UNL     1      -1.821   9.922  16.803  0.00  0.00    +0.000 A 
ATOM     22  C   UNL     1      -2.675   9.955  15.701  0.00  0.00    +0.000 A 
ATOM     23  C   UNL     1      -3.866  10.680  15.763  0.00  0.00    +0.000 A 
ATOM     24  C   UNL     1      -4.198  11.398  16.911  0.00  0.00    +0.000 A 
ATOM     25  C   UNL     1      -3.349  11.356  18.018  0.00  0.00    +0.000 A 
BRANCH  24  26
ATOM     26  O   UNL     1      -5.381  12.085  16.854  0.00  0.00    +0.000 OA
BRANCH  26  27
ATOM     27  C   UNL     1      -5.907  12.536  18.103  0.00  0.00    +0.000 C 
BRANCH  27  28
ATOM     28  C   UNL     1      -7.085  11.685  18.467  0.00  0.00    +0.000 C 
ATOM     29  C   UNL     1      -6.892  10.279  18.978  0.00  0.00    +0.000 C 
ATOM     30  C   UNL     1      -7.354  11.359  19.916  0.00  0.00    +0.000 C 
ENDBRANCH  27  28
ENDBRANCH  26  27
ENDBRANCH  24  26
ENDBRANCH   7  20
BRANCH   5  31
ATOM     31  N   UNL     1       0.478  13.040  21.418  0.00  0.00    +0.000 N 
ATOM     32  H   UNL     1       0.507  12.863  22.430  0.00  0.00    +0.000 HD
BRANCH  31  33
ATOM     33  C   UNL     1       1.597  13.806  20.859  0.00  0.00    +0.000 C 
ATOM     34  C   UNL     1       1.420  14.754  19.707  0.00  0.00    +0.000 C 
ATOM     35  C   UNL     1       1.635  15.291  21.090  0.00  0.00    +0.000 C 
ENDBRANCH  31  33
ENDBRANCH   5  31
TORSDOF 7
ENDMDL
