MODEL 1
REMARK VINA RESULT:      -8.5      0.000      0.000
REMARK  Name = 
REMARK  4 active torsions:
REMARK  status: ('A' for Active; 'I' for Inactive)
REMARK    1  A    between atoms: C_4  and  S_5
REMARK    2  A    between atoms: S_5  and  C_6
REMARK    3  A    between atoms: C_10  and  C_11
REMARK    4  A    between atoms: N_23  and  O_24
REMARK                            x       y       z     vdW  Elec       q    Type
REMARK                         _______ _______ _______ _____ _____    ______ ____
ROOT
ATOM      1  C   UNL     1       2.820   3.322  19.084  0.00  0.00    +0.000 A 
ATOM      2  C   UNL     1       2.143   2.524  20.007  0.00  0.00    +0.000 A 
ATOM      3  C   UNL     1       1.381   3.118  21.008  0.00  0.00    +0.000 A 
ATOM      4  C   UNL     1       1.271   4.510  21.073  0.00  0.00    +0.000 A 
ATOM      5  C   UNL     1       1.891   5.345  20.125  0.00  0.00    +0.000 A 
ATOM      6  C   UNL     1       2.681   4.718  19.141  0.00  0.00    +0.000 A 
ENDROOT
BRANCH   5   7
ATOM      7  C   UNL     1       1.671   6.815  20.123  0.00  0.00    +0.000 A 
ATOM      8  C   UNL     1       2.005   7.617  19.013  0.00  0.00    +0.000 A 
ATOM      9  C   UNL     1       1.730   8.989  18.992  0.00  0.00    +0.000 A 
ATOM     10  C   UNL     1       1.135   9.590  20.093  0.00  0.00    +0.000 A 
ATOM     11  F   UNL     1       0.875  10.905  20.052  0.00  0.00    +0.000 F 
ATOM     12  C   UNL     1       0.814   8.835  21.214  0.00  0.00    +0.000 A 
ATOM     13 CL   UNL     1       0.092   9.569  22.594  0.00  0.00    +0.000 Cl
ATOM     14  C   UNL     1       1.072   7.460  21.225  0.00  0.00    +0.000 A 
ENDBRANCH   5   7
BRANCH   1  15
ATOM     15  S   UNL     1       3.777   2.575  17.786  0.00  0.00    +0.000 S 
BRANCH  15  19
ATOM     16  O   UNL     1       5.581   6.223  14.904  0.00  0.00    +0.000 OA
ATOM     17  C   UNL     1       5.779   5.543  15.908  0.00  0.00    +0.000 A 
ATOM     18  C   UNL     1       4.783   4.519  16.286  0.00  0.00    +0.000 A 
ATOM     19  C   UNL     1       4.971   3.762  17.377  0.00  0.00    +0.000 A 
ATOM     20  N   UNL     1       6.087   3.935  18.146  0.00  0.00    +0.000 N 
ATOM     21  C   UNL     1       7.066   4.856  17.878  0.00  0.00    +0.000 A 
ATOM     22  O   UNL     1       8.056   4.977  18.599  0.00  0.00    +0.000 OA
ATOM     23  N   UNL     1       6.858   5.627  16.755  0.00  0.00    +0.000 N 
ATOM     24  H   UNL     1       6.238   3.365  18.971  0.00  0.00    +0.000 HD
BRANCH  23  25
ATOM     25  O   UNL     1       7.846   6.588  16.453  0.00  0.00    +0.000 OA
ATOM     26  H   UNL     1       7.307   7.383  16.266  0.00  0.00    +0.000 HD
ENDBRANCH  23  25
ENDBRANCH  15  19
ENDBRANCH   1  15
TORSDOF 4
ENDMDL
MODEL 2
REMARK VINA RESULT:      -8.5      2.481      3.072
REMARK  Name = 
REMARK  4 active torsions:
REMARK  status: ('A' for Active; 'I' for Inactive)
REMARK    1  A    between atoms: C_4  and  S_5
REMARK    2  A    between atoms: S_5  and  C_6
REMARK    3  A    between atoms: C_10  and  C_11
REMARK    4  A    between atoms: N_23  and  O_24
REMARK                            x       y       z     vdW  Elec       q    Type
REMARK                         _______ _______ _______ _____ _____    ______ ____
ROOT
ATOM      1  C   UNL     1       4.834   4.675  17.559  0.00  0.00    +0.000 A 
ATOM      2  C   UNL     1       3.990   3.618  17.217  0.00  0.00    +0.000 A 
ATOM      3  C   UNL     1       2.618   3.736  17.412  0.00  0.00    +0.000 A 
ATOM      4  C   UNL     1       2.082   4.923  17.922  0.00  0.00    +0.000 A 
ATOM      5  C   UNL     1       2.896   6.031  18.223  0.00  0.00    +0.000 A 
ATOM      6  C   UNL     1       4.284   5.871  18.045  0.00  0.00    +0.000 A 
ENDROOT
BRANCH   5   7
ATOM      7  C   UNL     1       2.312   7.330  18.646  0.00  0.00    +0.000 A 
ATOM      8  C   UNL     1       2.088   8.380  17.733  0.00  0.00    +0.000 A 
ATOM      9  C   UNL     1       1.474   9.574  18.126  0.00  0.00    +0.000 A 
ATOM     10  C   UNL     1       1.093   9.751  19.449  0.00  0.00    +0.000 A 
ATOM     11  F   UNL     1       0.501  10.901  19.806  0.00  0.00    +0.000 F 
ATOM     12  C   UNL     1       1.320   8.747  20.382  0.00  0.00    +0.000 A 
ATOM     13 CL   UNL     1       0.867   8.957  22.031  0.00  0.00    +0.000 Cl
ATOM     14  C   UNL     1       1.915   7.547  19.983  0.00  0.00    +0.000 A 
ENDBRANCH   5   7
BRANCH   1  15
ATOM     15  S   UNL     1       6.587   4.544  17.293  0.00  0.00    +0.000 S 
BRANCH  15  19
ATOM     16  O   UNL     1       5.325   3.082  12.696  0.00  0.00    +0.000 OA
ATOM     17  C   UNL     1       6.088   3.785  13.354  0.00  0.00    +0.000 A 
ATOM     18  C   UNL     1       5.958   3.798  14.826  0.00  0.00    +0.000 A 
ATOM     19  C   UNL     1       6.775   4.556  15.571  0.00  0.00    +0.000 A 
ATOM     20  N   UNL     1       7.734   5.322  14.971  0.00  0.00    +0.000 N 
ATOM     21  C   UNL     1       7.933   5.377  13.616  0.00  0.00    +0.000 A 
ATOM     22  O   UNL     1       8.810   6.081  13.118  0.00  0.00    +0.000 OA
ATOM     23  N   UNL     1       7.085   4.593  12.864  0.00  0.00    +0.000 N 
ATOM     24  H   UNL     1       8.358   5.896  15.527  0.00  0.00    +0.000 HD
BRANCH  23  25
ATOM     25  O   UNL     1       7.261   4.630  11.464  0.00  0.00    +0.000 OA
ATOM     26  H   UNL     1       7.867   3.877  11.314  0.00  0.00    +0.000 HD
ENDBRANCH  23  25
ENDBRANCH  15  19
ENDBRANCH   1  15
TORSDOF 4
ENDMDL
MODEL 3
REMARK VINA RESULT:      -8.5      1.314      1.518
REMARK  Name = 
REMARK  4 active torsions:
REMARK  status: ('A' for Active; 'I' for Inactive)
REMARK    1  A    between atoms: C_4  and  S_5
REMARK    2  A    between atoms: S_5  and  C_6
REMARK    3  A    between atoms: C_10  and  C_11
REMARK    4  A    between atoms: N_23  and  O_24
REMARK                            x       y       z     vdW  Elec       q    Type
REMARK                         _______ _______ _______ _____ _____    ______ ____
ROOT
ATOM      1  C   UNL     1       3.148   4.143  18.881  0.00  0.00    +0.000 A 
ATOM      2  C   UNL     1       2.303   3.160  19.395  0.00  0.00    +0.000 A 
ATOM      3  C   UNL     1       1.262   3.518  20.246  0.00  0.00    +0.000 A 
ATOM      4  C   UNL     1       1.045   4.862  20.562  0.00  0.00    +0.000 A 
ATOM      5  C   UNL     1       1.840   5.887  20.015  0.00  0.00    +0.000 A 
ATOM      6  C   UNL     1       2.905   5.493  19.182  0.00  0.00    +0.000 A 
ENDROOT
BRANCH   5   7
ATOM      7  C   UNL     1       1.530   7.320  20.254  0.00  0.00    +0.000 A 
ATOM      8  C   UNL     1       1.677   8.292  19.244  0.00  0.00    +0.000 A 
ATOM      9  C   UNL     1       1.317   9.628  19.456  0.00  0.00    +0.000 A 
ATOM     10  C   UNL     1       0.824  10.022  20.692  0.00  0.00    +0.000 A 
ATOM     11  F   UNL     1       0.479  11.305  20.874  0.00  0.00    +0.000 F 
ATOM     12  C   UNL     1       0.688   9.096  21.719  0.00  0.00    +0.000 A 
ATOM     13 CL   UNL     1       0.094   9.572  23.263  0.00  0.00    +0.000 Cl
ATOM     14  C   UNL     1       1.030   7.758  21.498  0.00  0.00    +0.000 A 
ENDBRANCH   5   7
BRANCH   1  15
ATOM     15  S   UNL     1       4.467   3.702  17.774  0.00  0.00    +0.000 S 
BRANCH  15  19
ATOM     16  O   UNL     1       7.308   7.673  16.766  0.00  0.00    +0.000 OA
ATOM     17  C   UNL     1       7.090   6.771  17.570  0.00  0.00    +0.000 A 
ATOM     18  C   UNL     1       6.008   5.805  17.285  0.00  0.00    +0.000 A 
ATOM     19  C   UNL     1       5.746   4.810  18.145  0.00  0.00    +0.000 A 
ATOM     20  N   UNL     1       6.479   4.684  19.291  0.00  0.00    +0.000 N 
ATOM     21  C   UNL     1       7.501   5.527  19.642  0.00  0.00    +0.000 A 
ATOM     22  O   UNL     1       8.136   5.376  20.685  0.00  0.00    +0.000 OA
ATOM     23  N   UNL     1       7.758   6.545  18.750  0.00  0.00    +0.000 N 
ATOM     24  H   UNL     1       6.288   3.933  19.945  0.00  0.00    +0.000 HD
BRANCH  23  25
ATOM     25  O   UNL     1       8.802   7.434  19.084  0.00  0.00    +0.000 OA
ATOM     26  H   UNL     1       8.314   8.264  19.262  0.00  0.00    +0.000 HD
ENDBRANCH  23  25
ENDBRANCH  15  19
ENDBRANCH   1  15
TORSDOF 4
ENDMDL
MODEL 4
REMARK VINA RESULT:      -8.5      1.093      1.469
REMARK  Name = 
REMARK  4 active torsions:
REMARK  status: ('A' for Active; 'I' for Inactive)
REMARK    1  A    between atoms: C_4  and  S_5
REMARK    2  A    between atoms: S_5  and  C_6
REMARK    3  A    between atoms: C_10  and  C_11
REMARK    4  A    between atoms: N_23  and  O_24
REMARK                            x       y       z     vdW  Elec       q    Type
REMARK                         _______ _______ _______ _____ _____    ______ ____
ROOT
ATOM      1  C   UNL     1       2.841   3.232  18.947  0.00  0.00    +0.000 A 
ATOM      2  C   UNL     1       2.110   2.364  19.759  0.00  0.00    +0.000 A 
ATOM      3  C   UNL     1       1.272   2.877  20.743  0.00  0.00    +0.000 A 
ATOM      4  C   UNL     1       1.141   4.260  20.901  0.00  0.00    +0.000 A 
ATOM      5  C   UNL     1       1.817   5.166  20.063  0.00  0.00    +0.000 A 
ATOM      6  C   UNL     1       2.681   4.618  19.095  0.00  0.00    +0.000 A 
ENDROOT
BRANCH   5   7
ATOM      7  C   UNL     1       1.579   6.631  20.151  0.00  0.00    +0.000 A 
ATOM      8  C   UNL     1       1.085   7.236  21.324  0.00  0.00    +0.000 A 
ATOM      9  C   UNL     1       0.930   8.624  21.422  0.00  0.00    +0.000 A 
ATOM     10  C   UNL     1       1.245   9.432  20.338  0.00  0.00    +0.000 A 
ATOM     11  F   UNL     1       1.095  10.759  20.453  0.00  0.00    +0.000 F 
ATOM     12  C   UNL     1       1.712   8.867  19.158  0.00  0.00    +0.000 A 
ATOM     13 CL   UNL     1       2.091   9.854  17.798  0.00  0.00    +0.000 Cl
ATOM     14  C   UNL     1       1.884   7.482  19.069  0.00  0.00    +0.000 A 
ENDBRANCH   5   7
BRANCH   1  15
ATOM     15  S   UNL     1       3.897   2.589  17.670  0.00  0.00    +0.000 S 
BRANCH  15  19
ATOM     16  O   UNL     1       5.548   6.540  15.117  0.00  0.00    +0.000 OA
ATOM     17  C   UNL     1       5.776   5.783  16.057  0.00  0.00    +0.000 A 
ATOM     18  C   UNL     1       4.821   4.692  16.345  0.00  0.00    +0.000 A 
ATOM     19  C   UNL     1       5.043   3.851  17.365  0.00  0.00    +0.000 A 
ATOM     20  N   UNL     1       6.155   3.998  18.145  0.00  0.00    +0.000 N 
ATOM     21  C   UNL     1       7.097   4.976  17.957  0.00  0.00    +0.000 A 
ATOM     22  O   UNL     1       8.085   5.072  18.685  0.00  0.00    +0.000 OA
ATOM     23  N   UNL     1       6.856   5.834  16.907  0.00  0.00    +0.000 N 
ATOM     24  H   UNL     1       6.331   3.365  18.917  0.00  0.00    +0.000 HD
BRANCH  23  25
ATOM     25  O   UNL     1       7.805   6.855  16.688  0.00  0.00    +0.000 OA
ATOM     26  H   UNL     1       7.913   6.829  15.716  0.00  0.00    +0.000 HD
ENDBRANCH  23  25
ENDBRANCH  15  19
ENDBRANCH   1  15
TORSDOF 4
ENDMDL
MODEL 5
REMARK VINA RESULT:      -8.4      2.284      3.781
REMARK  Name = 
REMARK  4 active torsions:
REMARK  status: ('A' for Active; 'I' for Inactive)
REMARK    1  A    between atoms: C_4  and  S_5
REMARK    2  A    between atoms: S_5  and  C_6
REMARK    3  A    between atoms: C_10  and  C_11
REMARK    4  A    between atoms: N_23  and  O_24
REMARK                            x       y       z     vdW  Elec       q    Type
REMARK                         _______ _______ _______ _____ _____    ______ ____
ROOT
ATOM      1  C   UNL     1       2.526   6.753  19.321  0.00  0.00    +0.000 A 
ATOM      2  C   UNL     1       2.914   7.344  18.119  0.00  0.00    +0.000 A 
ATOM      3  C   UNL     1       2.424   8.599  17.775  0.00  0.00    +0.000 A 
ATOM      4  C   UNL     1       1.567   9.280  18.644  0.00  0.00    +0.000 A 
ATOM      5  C   UNL     1       1.200   8.741  19.891  0.00  0.00    +0.000 A 
ATOM      6  C   UNL     1       1.686   7.455  20.200  0.00  0.00    +0.000 A 
ENDROOT
BRANCH   5   7
ATOM      7  C   UNL     1       0.390   9.519  20.865  0.00  0.00    +0.000 A 
ATOM      8  C   UNL     1       0.287   9.140  22.219  0.00  0.00    +0.000 A 
ATOM      9  C   UNL     1      -0.420   9.917  23.144  0.00  0.00    +0.000 A 
ATOM     10  C   UNL     1      -1.059  11.076  22.726  0.00  0.00    +0.000 A 
ATOM     11  F   UNL     1      -1.727  11.809  23.629  0.00  0.00    +0.000 F 
ATOM     12  C   UNL     1      -0.999  11.467  21.395  0.00  0.00    +0.000 A 
ATOM     13 CL   UNL     1      -1.799  12.894  20.858  0.00  0.00    +0.000 Cl
ATOM     14  C   UNL     1      -0.275  10.700  20.476  0.00  0.00    +0.000 A 
ENDBRANCH   5   7
BRANCH   1  15
ATOM     15  S   UNL     1       3.164   5.159  19.783  0.00  0.00    +0.000 S 
BRANCH  15  19
ATOM     16  O   UNL     1       8.095   5.338  19.067  0.00  0.00    +0.000 OA
ATOM     17  C   UNL     1       7.013   5.070  18.551  0.00  0.00    +0.000 A 
ATOM     18  C   UNL     1       5.779   5.237  19.349  0.00  0.00    +0.000 A 
ATOM     19  C   UNL     1       4.584   4.952  18.813  0.00  0.00    +0.000 A 
ATOM     20  N   UNL     1       4.500   4.505  17.525  0.00  0.00    +0.000 N 
ATOM     21  C   UNL     1       5.584   4.319  16.707  0.00  0.00    +0.000 A 
ATOM     22  O   UNL     1       5.461   3.914  15.552  0.00  0.00    +0.000 OA
ATOM     23  N   UNL     1       6.805   4.615  17.271  0.00  0.00    +0.000 N 
ATOM     24  H   UNL     1       3.599   4.289  17.112  0.00  0.00    +0.000 HD
BRANCH  23  25
ATOM     25  O   UNL     1       7.943   4.430  16.457  0.00  0.00    +0.000 OA
ATOM     26  H   UNL     1       7.619   3.784  15.796  0.00  0.00    +0.000 HD
ENDBRANCH  23  25
ENDBRANCH  15  19
ENDBRANCH   1  15
TORSDOF 4
ENDMDL
MODEL 6
REMARK VINA RESULT:      -8.4      2.315      3.512
REMARK  Name = 
REMARK  4 active torsions:
REMARK  status: ('A' for Active; 'I' for Inactive)
REMARK    1  A    between atoms: C_4  and  S_5
REMARK    2  A    between atoms: S_5  and  C_6
REMARK    3  A    between atoms: C_10  and  C_11
REMARK    4  A    between atoms: N_23  and  O_24
REMARK                            x       y       z     vdW  Elec       q    Type
REMARK                         _______ _______ _______ _____ _____    ______ ____
ROOT
ATOM      1  C   UNL     1       2.497   6.769  19.366  0.00  0.00    +0.000 A 
ATOM      2  C   UNL     1       2.869   7.331  18.145  0.00  0.00    +0.000 A 
ATOM      3  C   UNL     1       2.373   8.578  17.777  0.00  0.00    +0.000 A 
ATOM      4  C   UNL     1       1.526   9.278  18.640  0.00  0.00    +0.000 A 
ATOM      5  C   UNL     1       1.175   8.769  19.904  0.00  0.00    +0.000 A 
ATOM      6  C   UNL     1       1.668   7.492  20.238  0.00  0.00    +0.000 A 
ENDROOT
BRANCH   5   7
ATOM      7  C   UNL     1       0.377   9.569  20.869  0.00  0.00    +0.000 A 
ATOM      8  C   UNL     1       0.193   9.159  22.205  0.00  0.00    +0.000 A 
ATOM      9  C   UNL     1      -0.502   9.953  23.125  0.00  0.00    +0.000 A 
ATOM     10  C   UNL     1      -1.047  11.164  22.719  0.00  0.00    +0.000 A 
ATOM     11  F   UNL     1      -1.704  11.912  23.617  0.00  0.00    +0.000 F 
ATOM     12  C   UNL     1      -0.906  11.588  21.404  0.00  0.00    +0.000 A 
ATOM     13 CL   UNL     1      -1.591  13.079  20.881  0.00  0.00    +0.000 Cl
ATOM     14  C   UNL     1      -0.195  10.803  20.492  0.00  0.00    +0.000 A 
ENDBRANCH   5   7
BRANCH   1  15
ATOM     15  S   UNL     1       3.143   5.188  19.859  0.00  0.00    +0.000 S 
BRANCH  15  19
ATOM     16  O   UNL     1       5.575   3.585  15.812  0.00  0.00    +0.000 OA
ATOM     17  C   UNL     1       5.689   4.162  16.891  0.00  0.00    +0.000 A 
ATOM     18  C   UNL     1       4.486   4.354  17.728  0.00  0.00    +0.000 A 
ATOM     19  C   UNL     1       4.578   4.981  18.910  0.00  0.00    +0.000 A 
ATOM     20  N   UNL     1       5.786   5.445  19.347  0.00  0.00    +0.000 N 
ATOM     21  C   UNL     1       6.955   5.315  18.644  0.00  0.00    +0.000 A 
ATOM     22  O   UNL     1       8.022   5.749  19.076  0.00  0.00    +0.000 OA
ATOM     23  N   UNL     1       6.845   4.670  17.431  0.00  0.00    +0.000 N 
ATOM     24  H   UNL     1       5.864   5.918  20.240  0.00  0.00    +0.000 HD
BRANCH  23  25
ATOM     25  O   UNL     1       8.031   4.523  16.680  0.00  0.00    +0.000 OA
ATOM     26  H   UNL     1       8.576   3.960  17.267  0.00  0.00    +0.000 HD
ENDBRANCH  23  25
ENDBRANCH  15  19
ENDBRANCH   1  15
TORSDOF 4
ENDMDL
MODEL 7
REMARK VINA RESULT:      -8.3      1.061      1.118
REMARK  Name = 
REMARK  4 active torsions:
REMARK  status: ('A' for Active; 'I' for Inactive)
REMARK    1  A    between atoms: C_4  and  S_5
REMARK    2  A    between atoms: S_5  and  C_6
REMARK    3  A    between atoms: C_10  and  C_11
REMARK    4  A    between atoms: N_23  and  O_24
REMARK                            x       y       z     vdW  Elec       q    Type
REMARK                         _______ _______ _______ _____ _____    ______ ____
ROOT
ATOM      1  C   UNL     1       3.034   3.554  19.206  0.00  0.00    +0.000 A 
ATOM      2  C   UNL     1       2.617   3.066  20.444  0.00  0.00    +0.000 A 
ATOM      3  C   UNL     1       2.084   3.937  21.388  0.00  0.00    +0.000 A 
ATOM      4  C   UNL     1       1.940   5.295  21.087  0.00  0.00    +0.000 A 
ATOM      5  C   UNL     1       2.295   5.813  19.828  0.00  0.00    +0.000 A 
ATOM      6  C   UNL     1       2.860   4.913  18.902  0.00  0.00    +0.000 A 
ENDROOT
BRANCH   5   7
ATOM      7  C   UNL     1       2.025   7.230  19.467  0.00  0.00    +0.000 A 
ATOM      8  C   UNL     1       2.312   7.740  18.185  0.00  0.00    +0.000 A 
ATOM      9  C   UNL     1       1.991   9.056  17.833  0.00  0.00    +0.000 A 
ATOM     10  C   UNL     1       1.397   9.895  18.766  0.00  0.00    +0.000 A 
ATOM     11  F   UNL     1       1.093  11.151  18.408  0.00  0.00    +0.000 F 
ATOM     12  C   UNL     1       1.122   9.433  20.047  0.00  0.00    +0.000 A 
ATOM     13 CL   UNL     1       0.401  10.466  21.221  0.00  0.00    +0.000 Cl
ATOM     14  C   UNL     1       1.426   8.112  20.391  0.00  0.00    +0.000 A 
ENDBRANCH   5   7
BRANCH   1  15
ATOM     15  S   UNL     1       3.694   2.447  17.982  0.00  0.00    +0.000 S 
BRANCH  15  19
ATOM     16  O   UNL     1       5.533   4.571  13.863  0.00  0.00    +0.000 OA
ATOM     17  C   UNL     1       5.709   4.390  15.065  0.00  0.00    +0.000 A 
ATOM     18  C   UNL     1       4.717   3.595  15.821  0.00  0.00    +0.000 A 
ATOM     19  C   UNL     1       4.881   3.381  17.134  0.00  0.00    +0.000 A 
ATOM     20  N   UNL     1       5.968   3.897  17.782  0.00  0.00    +0.000 N 
ATOM     21  C   UNL     1       6.939   4.645  17.169  0.00  0.00    +0.000 A 
ATOM     22  O   UNL     1       7.902   5.090  17.792  0.00  0.00    +0.000 OA
ATOM     23  N   UNL     1       6.757   4.857  15.820  0.00  0.00    +0.000 N 
ATOM     24  H   UNL     1       6.100   3.738  18.774  0.00  0.00    +0.000 HD
BRANCH  23  25
ATOM     25  O   UNL     1       7.739   5.627  15.160  0.00  0.00    +0.000 OA
ATOM     26  H   UNL     1       8.016   5.028  14.437  0.00  0.00    +0.000 HD
ENDBRANCH  23  25
ENDBRANCH  15  19
ENDBRANCH   1  15
TORSDOF 4
ENDMDL
MODEL 8
REMARK VINA RESULT:      -8.3      1.609      2.019
REMARK  Name = 
REMARK  4 active torsions:
REMARK  status: ('A' for Active; 'I' for Inactive)
REMARK    1  A    between atoms: C_4  and  S_5
REMARK    2  A    between atoms: S_5  and  C_6
REMARK    3  A    between atoms: C_10  and  C_11
REMARK    4  A    between atoms: N_23  and  O_24
REMARK                            x       y       z     vdW  Elec       q    Type
REMARK                         _______ _______ _______ _____ _____    ______ ____
ROOT
ATOM      1  C   UNL     1       3.145   4.070  18.807  0.00  0.00    +0.000 A 
ATOM      2  C   UNL     1       2.318   3.063  19.305  0.00  0.00    +0.000 A 
ATOM      3  C   UNL     1       1.274   3.387  20.165  0.00  0.00    +0.000 A 
ATOM      4  C   UNL     1       1.036   4.721  20.509  0.00  0.00    +0.000 A 
ATOM      5  C   UNL     1       1.813   5.769  19.980  0.00  0.00    +0.000 A 
ATOM      6  C   UNL     1       2.882   5.409  19.136  0.00  0.00    +0.000 A 
ENDROOT
BRANCH   5   7
ATOM      7  C   UNL     1       1.481   7.192  20.248  0.00  0.00    +0.000 A 
ATOM      8  C   UNL     1       0.986   7.620  21.497  0.00  0.00    +0.000 A 
ATOM      9  C   UNL     1       0.742   8.973  21.762  0.00  0.00    +0.000 A 
ATOM     10  C   UNL     1       0.966   9.922  20.774  0.00  0.00    +0.000 A 
ATOM     11  F   UNL     1       0.731  11.213  21.050  0.00  0.00    +0.000 F 
ATOM     12  C   UNL     1       1.430   9.533  19.524  0.00  0.00    +0.000 A 
ATOM     13 CL   UNL     1       1.696  10.696  18.282  0.00  0.00    +0.000 Cl
ATOM     14  C   UNL     1       1.692   8.184  19.267  0.00  0.00    +0.000 A 
ENDBRANCH   5   7
BRANCH   1  15
ATOM     15  S   UNL     1       4.468   3.672  17.688  0.00  0.00    +0.000 S 
BRANCH  15  19
ATOM     16  O   UNL     1       7.261   7.698  16.768  0.00  0.00    +0.000 OA
ATOM     17  C   UNL     1       7.054   6.776  17.552  0.00  0.00    +0.000 A 
ATOM     18  C   UNL     1       5.983   5.803  17.246  0.00  0.00    +0.000 A 
ATOM     19  C   UNL     1       5.733   4.787  18.084  0.00  0.00    +0.000 A 
ATOM     20  N   UNL     1       6.468   4.644  19.227  0.00  0.00    +0.000 N 
ATOM     21  C   UNL     1       7.479   5.492  19.596  0.00  0.00    +0.000 A 
ATOM     22  O   UNL     1       8.116   5.326  20.636  0.00  0.00    +0.000 OA
ATOM     23  N   UNL     1       7.724   6.532  18.727  0.00  0.00    +0.000 N 
ATOM     24  H   UNL     1       6.286   3.877  19.864  0.00  0.00    +0.000 HD
BRANCH  23  25
ATOM     25  O   UNL     1       8.757   7.426  19.081  0.00  0.00    +0.000 OA
ATOM     26  H   UNL     1       8.268   8.265  19.205  0.00  0.00    +0.000 HD
ENDBRANCH  23  25
ENDBRANCH  15  19
ENDBRANCH   1  15
TORSDOF 4
ENDMDL
MODEL 9
REMARK VINA RESULT:      -8.2      5.252      7.658
REMARK  Name = 
REMARK  4 active torsions:
REMARK  status: ('A' for Active; 'I' for Inactive)
REMARK    1  A    between atoms: C_4  and  S_5
REMARK    2  A    between atoms: S_5  and  C_6
REMARK    3  A    between atoms: C_10  and  C_11
REMARK    4  A    between atoms: N_23  and  O_24
REMARK                            x       y       z     vdW  Elec       q    Type
REMARK                         _______ _______ _______ _____ _____    ______ ____
ROOT
ATOM      1  C   UNL     1       4.738   4.850  18.348  0.00  0.00    +0.000 A 
ATOM      2  C   UNL     1       5.755   5.257  19.212  0.00  0.00    +0.000 A 
ATOM      3  C   UNL     1       7.050   5.417  18.729  0.00  0.00    +0.000 A 
ATOM      4  C   UNL     1       7.326   5.198  17.377  0.00  0.00    +0.000 A 
ATOM      5  C   UNL     1       6.315   4.844  16.464  0.00  0.00    +0.000 A 
ATOM      6  C   UNL     1       5.019   4.659  16.987  0.00  0.00    +0.000 A 
ENDROOT
BRANCH   5   7
ATOM      7  C   UNL     1       6.587   4.734  15.007  0.00  0.00    +0.000 A 
ATOM      8  C   UNL     1       7.666   5.406  14.398  0.00  0.00    +0.000 A 
ATOM      9  C   UNL     1       7.957   5.242  13.039  0.00  0.00    +0.000 A 
ATOM     10  C   UNL     1       7.158   4.419  12.257  0.00  0.00    +0.000 A 
ATOM     11  F   UNL     1       7.456   4.271  10.958  0.00  0.00    +0.000 F 
ATOM     12  C   UNL     1       6.071   3.761  12.818  0.00  0.00    +0.000 A 
ATOM     13 CL   UNL     1       5.060   2.750  11.858  0.00  0.00    +0.000 Cl
ATOM     14  C   UNL     1       5.794   3.911  14.181  0.00  0.00    +0.000 A 
ENDBRANCH   5   7
BRANCH   1  15
ATOM     15  S   UNL     1       3.074   4.664  18.947  0.00  0.00    +0.000 S 
BRANCH  15  19
ATOM     16  O   UNL     1       2.025   9.256  17.311  0.00  0.00    +0.000 OA
ATOM     17  C   UNL     1       2.017   8.510  18.287  0.00  0.00    +0.000 A 
ATOM     18  C   UNL     1       2.500   7.121  18.130  0.00  0.00    +0.000 A 
ATOM     19  C   UNL     1       2.503   6.284  19.176  0.00  0.00    +0.000 A 
ATOM     20  N   UNL     1       2.058   6.709  20.396  0.00  0.00    +0.000 N 
ATOM     21  C   UNL     1       1.592   7.975  20.641  0.00  0.00    +0.000 A 
ATOM     22  O   UNL     1       1.201   8.316  21.757  0.00  0.00    +0.000 OA
ATOM     23  N   UNL     1       1.595   8.824  19.556  0.00  0.00    +0.000 N 
ATOM     24  H   UNL     1       2.058   6.082  21.192  0.00  0.00    +0.000 HD
BRANCH  23  25
ATOM     25  O   UNL     1       1.117  10.135  19.774  0.00  0.00    +0.000 OA
ATOM     26  H   UNL     1       0.883  10.420  18.868  0.00  0.00    +0.000 HD
ENDBRANCH  23  25
ENDBRANCH  15  19
ENDBRANCH   1  15
TORSDOF 4
ENDMDL
