MODEL 1
REMARK VINA RESULT:      -7.9      0.000      0.000
REMARK  Name = 
REMARK  2 active torsions:
REMARK  status: ('A' for Active; 'I' for Inactive)
REMARK    1  A    between atoms: C_3  and  N_4
REMARK    2  A    between atoms: N_16  and  C_17
REMARK                            x       y       z     vdW  Elec       q    Type
REMARK                         _______ _______ _______ _____ _____    ______ ____
ROOT
ATOM      1  O   UNL     1       3.978   5.216  16.517  0.00  0.00    +0.000 OA
ATOM      2  C   UNL     1       5.107   5.270  16.985  0.00  0.00    +0.000 C 
ATOM      3  C   UNL     1       5.394   5.678  18.429  0.00  0.00    +0.000 C 
ATOM      4  C   UNL     1       6.832   5.249  18.658  0.00  0.00    +0.000 C 
ATOM      5  C   UNL     1       7.439   5.321  17.268  0.00  0.00    +0.000 C 
ATOM      6  N   UNL     1       6.348   5.046  16.358  0.00  0.00    +0.000 N 
ENDROOT
BRANCH   3   7
ATOM      7  N   UNL     1       4.418   5.133  19.351  0.00  0.00    +0.000 N 
ATOM      8  C   UNL     1       3.240   5.749  19.683  0.00  0.00    +0.000 C 
ATOM      9  O   UNL     1       2.850   6.838  19.293  0.00  0.00    +0.000 OA
ATOM     10  C   UNL     1       2.460   4.826  20.597  0.00  0.00    +0.000 C 
ATOM     11  C   UNL     1       1.084   4.439  20.100  0.00  0.00    +0.000 C 
ATOM     12  C   UNL     1       1.007   2.916  20.259  0.00  0.00    +0.000 C 
ATOM     13  C   UNL     1       2.429   2.433  20.556  0.00  0.00    +0.000 C 
ATOM     14  N   UNL     1       3.238   3.622  20.484  0.00  0.00    +0.000 N 
ATOM     15  C   UNL     1       4.314   3.798  19.625  0.00  0.00    +0.000 C 
ATOM     16  O   UNL     1       4.967   2.905  19.109  0.00  0.00    +0.000 OA
ENDBRANCH   3   7
BRANCH   6  17
ATOM     17  C   UNL     1       6.551   4.727  14.983  0.00  0.00    +0.000 A 
ATOM     18  C   UNL     1       5.781   3.754  14.333  0.00  0.00    +0.000 A 
ATOM     19  C   UNL     1       5.963   3.460  12.975  0.00  0.00    +0.000 A 
ATOM     20  C   UNL     1       6.937   4.125  12.242  0.00  0.00    +0.000 A 
ATOM     21  C   UNL     1       7.727   5.083  12.867  0.00  0.00    +0.000 A 
ATOM     22  C   UNL     1       7.532   5.384  14.222  0.00  0.00    +0.000 A 
ENDBRANCH   6  17
TORSDOF 2
ENDMDL
MODEL 2
REMARK VINA RESULT:      -7.8      0.047      1.023
REMARK  Name = 
REMARK  2 active torsions:
REMARK  status: ('A' for Active; 'I' for Inactive)
REMARK    1  A    between atoms: C_3  and  N_4
REMARK    2  A    between atoms: N_16  and  C_17
REMARK                            x       y       z     vdW  Elec       q    Type
REMARK                         _______ _______ _______ _____ _____    ______ ____
ROOT
ATOM      1  O   UNL     1       3.995   5.257  16.530  0.00  0.00    +0.000 OA
ATOM      2  C   UNL     1       5.126   5.263  16.996  0.00  0.00    +0.000 C 
ATOM      3  C   UNL     1       5.431   5.625  18.448  0.00  0.00    +0.000 C 
ATOM      4  C   UNL     1       6.854   5.143  18.662  0.00  0.00    +0.000 C 
ATOM      5  C   UNL     1       7.459   5.229  17.272  0.00  0.00    +0.000 C 
ATOM      6  N   UNL     1       6.358   5.013  16.360  0.00  0.00    +0.000 N 
ENDROOT
BRANCH   3   7
ATOM      7  N   UNL     1       4.439   5.090  19.360  0.00  0.00    +0.000 N 
ATOM      8  C   UNL     1       3.271   5.725  19.691  0.00  0.00    +0.000 C 
ATOM      9  O   UNL     1       2.903   6.824  19.308  0.00  0.00    +0.000 OA
ATOM     10  C   UNL     1       2.468   4.808  20.592  0.00  0.00    +0.000 C 
ATOM     11  C   UNL     1       1.088   4.452  20.083  0.00  0.00    +0.000 C 
ATOM     12  C   UNL     1       0.982   2.929  20.229  0.00  0.00    +0.000 C 
ATOM     13  C   UNL     1       2.393   2.417  20.530  0.00  0.00    +0.000 C 
ATOM     14  N   UNL     1       3.225   3.592  20.472  0.00  0.00    +0.000 N 
ATOM     15  C   UNL     1       4.309   3.755  19.622  0.00  0.00    +0.000 C 
ATOM     16  O   UNL     1       4.948   2.854  19.101  0.00  0.00    +0.000 OA
ENDBRANCH   3   7
BRANCH   6  17
ATOM     17  C   UNL     1       6.547   4.721  14.977  0.00  0.00    +0.000 A 
ATOM     18  C   UNL     1       7.522   5.378  14.214  0.00  0.00    +0.000 A 
ATOM     19  C   UNL     1       7.725   5.071  12.862  0.00  0.00    +0.000 A 
ATOM     20  C   UNL     1       6.941   4.109  12.239  0.00  0.00    +0.000 A 
ATOM     21  C   UNL     1       5.955   3.455  12.969  0.00  0.00    +0.000 A 
ATOM     22  C   UNL     1       5.764   3.754  14.324  0.00  0.00    +0.000 A 
ENDBRANCH   6  17
TORSDOF 2
ENDMDL
MODEL 3
REMARK VINA RESULT:      -7.2      1.150      1.987
REMARK  Name = 
REMARK  2 active torsions:
REMARK  status: ('A' for Active; 'I' for Inactive)
REMARK    1  A    between atoms: C_3  and  N_4
REMARK    2  A    between atoms: N_16  and  C_17
REMARK                            x       y       z     vdW  Elec       q    Type
REMARK                         _______ _______ _______ _____ _____    ______ ____
ROOT
ATOM      1  O   UNL     1       3.779   4.284  15.701  0.00  0.00    +0.000 OA
ATOM      2  C   UNL     1       4.809   4.468  16.335  0.00  0.00    +0.000 C 
ATOM      3  C   UNL     1       4.830   4.707  17.844  0.00  0.00    +0.000 C 
ATOM      4  C   UNL     1       6.283   4.509  18.233  0.00  0.00    +0.000 C 
ATOM      5  C   UNL     1       7.033   4.886  16.967  0.00  0.00    +0.000 C 
ATOM      6  N   UNL     1       6.138   4.558  15.878  0.00  0.00    +0.000 N 
ENDROOT
BRANCH   3   7
ATOM      7  N   UNL     1       3.871   3.871  18.538  0.00  0.00    +0.000 N 
ATOM      8  C   UNL     1       4.203   2.936  19.484  0.00  0.00    +0.000 C 
ATOM      9  O   UNL     1       5.326   2.643  19.859  0.00  0.00    +0.000 OA
ATOM     10  C   UNL     1       2.922   2.340  20.035  0.00  0.00    +0.000 C 
ATOM     11  C   UNL     1       2.737   2.484  21.530  0.00  0.00    +0.000 C 
ATOM     12  C   UNL     1       1.309   3.013  21.713  0.00  0.00    +0.000 C 
ATOM     13  C   UNL     1       0.819   3.443  20.329  0.00  0.00    +0.000 C 
ATOM     14  N   UNL     1       1.949   3.229  19.461  0.00  0.00    +0.000 N 
ATOM     15  C   UNL     1       2.556   4.211  18.692  0.00  0.00    +0.000 C 
ATOM     16  O   UNL     1       2.036   5.255  18.328  0.00  0.00    +0.000 OA
ENDBRANCH   3   7
BRANCH   6  17
ATOM     17  C   UNL     1       6.569   4.481  14.522  0.00  0.00    +0.000 A 
ATOM     18  C   UNL     1       6.019   3.554  13.627  0.00  0.00    +0.000 A 
ATOM     19  C   UNL     1       6.424   3.498  12.287  0.00  0.00    +0.000 A 
ATOM     20  C   UNL     1       7.405   4.361  11.817  0.00  0.00    +0.000 A 
ATOM     21  C   UNL     1       7.979   5.280  12.688  0.00  0.00    +0.000 A 
ATOM     22  C   UNL     1       7.562   5.342  14.024  0.00  0.00    +0.000 A 
ENDBRANCH   6  17
TORSDOF 2
ENDMDL
MODEL 4
REMARK VINA RESULT:      -7.1      3.926      6.770
REMARK  Name = 
REMARK  2 active torsions:
REMARK  status: ('A' for Active; 'I' for Inactive)
REMARK    1  A    between atoms: C_3  and  N_4
REMARK    2  A    between atoms: N_16  and  C_17
REMARK                            x       y       z     vdW  Elec       q    Type
REMARK                         _______ _______ _______ _____ _____    ______ ____
ROOT
ATOM      1  O   UNL     1       1.478   7.353  20.829  0.00  0.00    +0.000 OA
ATOM      2  C   UNL     1       1.916   7.666  19.731  0.00  0.00    +0.000 C 
ATOM      3  C   UNL     1       3.011   6.881  19.012  0.00  0.00    +0.000 C 
ATOM      4  C   UNL     1       2.961   7.393  17.584  0.00  0.00    +0.000 C 
ATOM      5  C   UNL     1       2.434   8.808  17.744  0.00  0.00    +0.000 C 
ATOM      6  N   UNL     1       1.596   8.775  18.923  0.00  0.00    +0.000 N 
ENDROOT
BRANCH   3   7
ATOM      7  N   UNL     1       2.848   5.450  19.176  0.00  0.00    +0.000 N 
ATOM      8  C   UNL     1       1.955   4.688  18.469  0.00  0.00    +0.000 C 
ATOM      9  O   UNL     1       1.156   5.084  17.636  0.00  0.00    +0.000 OA
ATOM     10  C   UNL     1       2.151   3.237  18.861  0.00  0.00    +0.000 C 
ATOM     11  C   UNL     1       2.490   2.302  17.720  0.00  0.00    +0.000 C 
ATOM     12  C   UNL     1       3.692   1.484  18.208  0.00  0.00    +0.000 C 
ATOM     13  C   UNL     1       4.201   2.167  19.480  0.00  0.00    +0.000 C 
ATOM     14  N   UNL     1       3.365   3.331  19.625  0.00  0.00    +0.000 N 
ATOM     15  C   UNL     1       3.828   4.639  19.674  0.00  0.00    +0.000 C 
ATOM     16  O   UNL     1       4.958   4.984  19.986  0.00  0.00    +0.000 OA
ENDBRANCH   3   7
BRANCH   6  17
ATOM     17  C   UNL     1       0.682   9.819  19.250  0.00  0.00    +0.000 A 
ATOM     18  C   UNL     1       0.805  10.560  20.433  0.00  0.00    +0.000 A 
ATOM     19  C   UNL     1      -0.078  11.604  20.739  0.00  0.00    +0.000 A 
ATOM     20  C   UNL     1      -1.117  11.917  19.873  0.00  0.00    +0.000 A 
ATOM     21  C   UNL     1      -1.271  11.187  18.700  0.00  0.00    +0.000 A 
ATOM     22  C   UNL     1      -0.378  10.153  18.390  0.00  0.00    +0.000 A 
ENDBRANCH   6  17
TORSDOF 2
ENDMDL
MODEL 5
REMARK VINA RESULT:      -7.1      1.170      2.229
REMARK  Name = 
REMARK  2 active torsions:
REMARK  status: ('A' for Active; 'I' for Inactive)
REMARK    1  A    between atoms: C_3  and  N_4
REMARK    2  A    between atoms: N_16  and  C_17
REMARK                            x       y       z     vdW  Elec       q    Type
REMARK                         _______ _______ _______ _____ _____    ______ ____
ROOT
ATOM      1  O   UNL     1       3.744   4.229  15.696  0.00  0.00    +0.000 OA
ATOM      2  C   UNL     1       4.764   4.459  16.330  0.00  0.00    +0.000 C 
ATOM      3  C   UNL     1       4.771   4.721  17.835  0.00  0.00    +0.000 C 
ATOM      4  C   UNL     1       6.229   4.580  18.231  0.00  0.00    +0.000 C 
ATOM      5  C   UNL     1       6.969   4.965  16.962  0.00  0.00    +0.000 C 
ATOM      6  N   UNL     1       6.091   4.589  15.876  0.00  0.00    +0.000 N 
ENDROOT
BRANCH   3   7
ATOM      7  N   UNL     1       3.840   3.861  18.539  0.00  0.00    +0.000 N 
ATOM      8  C   UNL     1       4.202   2.950  19.497  0.00  0.00    +0.000 C 
ATOM      9  O   UNL     1       5.335   2.701  19.878  0.00  0.00    +0.000 OA
ATOM     10  C   UNL     1       2.942   2.317  20.054  0.00  0.00    +0.000 C 
ATOM     11  C   UNL     1       2.749   2.474  21.547  0.00  0.00    +0.000 C 
ATOM     12  C   UNL     1       1.303   2.957  21.721  0.00  0.00    +0.000 C 
ATOM     13  C   UNL     1       0.801   3.351  20.330  0.00  0.00    +0.000 C 
ATOM     14  N   UNL     1       1.940   3.165  19.467  0.00  0.00    +0.000 N 
ATOM     15  C   UNL     1       2.514   4.157  18.686  0.00  0.00    +0.000 C 
ATOM     16  O   UNL     1       1.959   5.177  18.308  0.00  0.00    +0.000 OA
ENDBRANCH   3   7
BRANCH   6  17
ATOM     17  C   UNL     1       6.529   4.509  14.522  0.00  0.00    +0.000 A 
ATOM     18  C   UNL     1       7.528   5.353  14.021  0.00  0.00    +0.000 A 
ATOM     19  C   UNL     1       7.977   5.255  12.697  0.00  0.00    +0.000 A 
ATOM     20  C   UNL     1       7.419   4.317  11.839  0.00  0.00    +0.000 A 
ATOM     21  C   UNL     1       6.413   3.478  12.305  0.00  0.00    +0.000 A 
ATOM     22  C   UNL     1       5.977   3.570  13.633  0.00  0.00    +0.000 A 
ENDBRANCH   6  17
TORSDOF 2
ENDMDL
MODEL 6
REMARK VINA RESULT:      -7.1      3.928      6.761
REMARK  Name = 
REMARK  2 active torsions:
REMARK  status: ('A' for Active; 'I' for Inactive)
REMARK    1  A    between atoms: C_3  and  N_4
REMARK    2  A    between atoms: N_16  and  C_17
REMARK                            x       y       z     vdW  Elec       q    Type
REMARK                         _______ _______ _______ _____ _____    ______ ____
ROOT
ATOM      1  O   UNL     1       1.495   7.369  20.855  0.00  0.00    +0.000 OA
ATOM      2  C   UNL     1       1.920   7.687  19.753  0.00  0.00    +0.000 C 
ATOM      3  C   UNL     1       3.015   6.910  19.023  0.00  0.00    +0.000 C 
ATOM      4  C   UNL     1       2.947   7.421  17.596  0.00  0.00    +0.000 C 
ATOM      5  C   UNL     1       2.410   8.833  17.761  0.00  0.00    +0.000 C 
ATOM      6  N   UNL     1       1.585   8.793  18.949  0.00  0.00    +0.000 N 
ENDROOT
BRANCH   3   7
ATOM      7  N   UNL     1       2.864   5.478  19.188  0.00  0.00    +0.000 N 
ATOM      8  C   UNL     1       1.958   4.712  18.502  0.00  0.00    +0.000 C 
ATOM      9  O   UNL     1       1.137   5.104  17.689  0.00  0.00    +0.000 OA
ATOM     10  C   UNL     1       2.173   3.261  18.886  0.00  0.00    +0.000 C 
ATOM     11  C   UNL     1       2.488   2.330  17.735  0.00  0.00    +0.000 C 
ATOM     12  C   UNL     1       3.708   1.519  18.191  0.00  0.00    +0.000 C 
ATOM     13  C   UNL     1       4.243   2.202  19.451  0.00  0.00    +0.000 C 
ATOM     14  N   UNL     1       3.405   3.361  19.620  0.00  0.00    +0.000 N 
ATOM     15  C   UNL     1       3.861   4.671  19.660  0.00  0.00    +0.000 C 
ATOM     16  O   UNL     1       4.996   5.022  19.945  0.00  0.00    +0.000 OA
ENDBRANCH   3   7
BRANCH   6  17
ATOM     17  C   UNL     1       0.666   9.830  19.284  0.00  0.00    +0.000 A 
ATOM     18  C   UNL     1      -0.445  10.117  18.479  0.00  0.00    +0.000 A 
ATOM     19  C   UNL     1      -1.362  11.118  18.825  0.00  0.00    +0.000 A 
ATOM     20  C   UNL     1      -1.176  11.868  19.978  0.00  0.00    +0.000 A 
ATOM     21  C   UNL     1      -0.073  11.615  20.786  0.00  0.00    +0.000 A 
ATOM     22  C   UNL     1       0.835  10.604  20.445  0.00  0.00    +0.000 A 
ENDBRANCH   6  17
TORSDOF 2
ENDMDL
MODEL 7
REMARK VINA RESULT:      -6.8      2.202      4.080
REMARK  Name = 
REMARK  2 active torsions:
REMARK  status: ('A' for Active; 'I' for Inactive)
REMARK    1  A    between atoms: C_3  and  N_4
REMARK    2  A    between atoms: N_16  and  C_17
REMARK                            x       y       z     vdW  Elec       q    Type
REMARK                         _______ _______ _______ _____ _____    ______ ____
ROOT
ATOM      1  O   UNL     1       5.969   5.104  19.785  0.00  0.00    +0.000 OA
ATOM      2  C   UNL     1       5.999   4.992  18.567  0.00  0.00    +0.000 C 
ATOM      3  C   UNL     1       5.461   3.768  17.827  0.00  0.00    +0.000 C 
ATOM      4  C   UNL     1       5.364   4.221  16.381  0.00  0.00    +0.000 C 
ATOM      5  C   UNL     1       6.446   5.281  16.279  0.00  0.00    +0.000 C 
ATOM      6  N   UNL     1       6.542   5.861  17.601  0.00  0.00    +0.000 N 
ENDROOT
BRANCH   3   7
ATOM      7  N   UNL     1       4.233   3.274  18.417  0.00  0.00    +0.000 N 
ATOM      8  C   UNL     1       4.180   2.425  19.492  0.00  0.00    +0.000 C 
ATOM      9  O   UNL     1       5.128   1.939  20.086  0.00  0.00    +0.000 OA
ATOM     10  C   UNL     1       2.725   2.216  19.862  0.00  0.00    +0.000 C 
ATOM     11  C   UNL     1       2.360   2.600  21.280  0.00  0.00    +0.000 C 
ATOM     12  C   UNL     1       1.096   3.460  21.156  0.00  0.00    +0.000 C 
ATOM     13  C   UNL     1       0.939   3.798  19.672  0.00  0.00    +0.000 C 
ATOM     14  N   UNL     1       2.097   3.217  19.043  0.00  0.00    +0.000 N 
ATOM     15  C   UNL     1       3.035   3.921  18.302  0.00  0.00    +0.000 C 
ATOM     16  O   UNL     1       2.849   4.997  17.754  0.00  0.00    +0.000 OA
ENDBRANCH   3   7
BRANCH   6  17
ATOM     17  C   UNL     1       7.225   7.085  17.859  0.00  0.00    +0.000 A 
ATOM     18  C   UNL     1       8.269   7.162  18.791  0.00  0.00    +0.000 A 
ATOM     19  C   UNL     1       8.957   8.360  19.025  0.00  0.00    +0.000 A 
ATOM     20  C   UNL     1       8.603   9.514  18.339  0.00  0.00    +0.000 A 
ATOM     21  C   UNL     1       7.560   9.469  17.421  0.00  0.00    +0.000 A 
ATOM     22  C   UNL     1       6.882   8.267  17.180  0.00  0.00    +0.000 A 
ENDBRANCH   6  17
TORSDOF 2
ENDMDL
MODEL 8
REMARK VINA RESULT:      -6.8      2.164      4.063
REMARK  Name = 
REMARK  2 active torsions:
REMARK  status: ('A' for Active; 'I' for Inactive)
REMARK    1  A    between atoms: C_3  and  N_4
REMARK    2  A    between atoms: N_16  and  C_17
REMARK                            x       y       z     vdW  Elec       q    Type
REMARK                         _______ _______ _______ _____ _____    ______ ____
ROOT
ATOM      1  O   UNL     1       5.977   4.990  19.730  0.00  0.00    +0.000 OA
ATOM      2  C   UNL     1       5.930   4.929  18.510  0.00  0.00    +0.000 C 
ATOM      3  C   UNL     1       5.316   3.752  17.754  0.00  0.00    +0.000 C 
ATOM      4  C   UNL     1       5.144   4.267  16.337  0.00  0.00    +0.000 C 
ATOM      5  C   UNL     1       6.246   5.304  16.212  0.00  0.00    +0.000 C 
ATOM      6  N   UNL     1       6.437   5.825  17.548  0.00  0.00    +0.000 N 
ENDROOT
BRANCH   3   7
ATOM      7  N   UNL     1       4.113   3.263  18.399  0.00  0.00    +0.000 N 
ATOM      8  C   UNL     1       4.101   2.357  19.427  0.00  0.00    +0.000 C 
ATOM      9  O   UNL     1       5.069   1.809  19.929  0.00  0.00    +0.000 OA
ATOM     10  C   UNL     1       2.667   2.173  19.883  0.00  0.00    +0.000 C 
ATOM     11  C   UNL     1       2.410   2.487  21.341  0.00  0.00    +0.000 C 
ATOM     12  C   UNL     1       1.170   3.391  21.349  0.00  0.00    +0.000 C 
ATOM     13  C   UNL     1       0.928   3.817  19.899  0.00  0.00    +0.000 C 
ATOM     14  N   UNL     1       2.022   3.236  19.163  0.00  0.00    +0.000 N 
ATOM     15  C   UNL     1       2.933   3.952  18.400  0.00  0.00    +0.000 C 
ATOM     16  O   UNL     1       2.748   5.062  17.924  0.00  0.00    +0.000 OA
ENDBRANCH   3   7
BRANCH   6  17
ATOM     17  C   UNL     1       7.168   7.020  17.813  0.00  0.00    +0.000 A 
ATOM     18  C   UNL     1       6.890   8.216  17.139  0.00  0.00    +0.000 A 
ATOM     19  C   UNL     1       7.591   9.396  17.419  0.00  0.00    +0.000 A 
ATOM     20  C   UNL     1       8.599   9.399  18.373  0.00  0.00    +0.000 A 
ATOM     21  C   UNL     1       8.907   8.222  19.046  0.00  0.00    +0.000 A 
ATOM     22  C   UNL     1       8.195   7.047  18.772  0.00  0.00    +0.000 A 
ENDBRANCH   6  17
TORSDOF 2
ENDMDL
MODEL 9
REMARK VINA RESULT:      -6.8      2.794      6.825
REMARK  Name = 
REMARK  2 active torsions:
REMARK  status: ('A' for Active; 'I' for Inactive)
REMARK    1  A    between atoms: C_3  and  N_4
REMARK    2  A    between atoms: N_16  and  C_17
REMARK                            x       y       z     vdW  Elec       q    Type
REMARK                         _______ _______ _______ _____ _____    ______ ____
ROOT
ATOM      1  O   UNL     1       2.646   6.849  17.847  0.00  0.00    +0.000 OA
ATOM      2  C   UNL     1       2.431   6.273  18.905  0.00  0.00    +0.000 C 
ATOM      3  C   UNL     1       2.649   4.773  19.099  0.00  0.00    +0.000 C 
ATOM      4  C   UNL     1       2.623   4.585  20.605  0.00  0.00    +0.000 C 
ATOM      5  C   UNL     1       1.732   5.720  21.079  0.00  0.00    +0.000 C 
ATOM      6  N   UNL     1       1.917   6.782  20.113  0.00  0.00    +0.000 N 
ENDROOT
BRANCH   3   7
ATOM      7  N   UNL     1       3.844   4.307  18.425  0.00  0.00    +0.000 N 
ATOM      8  C   UNL     1       3.863   3.782  17.159  0.00  0.00    +0.000 C 
ATOM      9  O   UNL     1       2.901   3.600  16.430  0.00  0.00    +0.000 OA
ATOM     10  C   UNL     1       5.303   3.500  16.781  0.00  0.00    +0.000 C 
ATOM     11  C   UNL     1       5.792   4.206  15.535  0.00  0.00    +0.000 C 
ATOM     12  C   UNL     1       7.137   4.832  15.924  0.00  0.00    +0.000 C 
ATOM     13  C   UNL     1       7.245   4.731  17.447  0.00  0.00    +0.000 C 
ATOM     14  N   UNL     1       5.993   4.152  17.861  0.00  0.00    +0.000 N 
ATOM     15  C   UNL     1       5.100   4.741  18.745  0.00  0.00    +0.000 C 
ATOM     16  O   UNL     1       5.376   5.595  19.574  0.00  0.00    +0.000 OA
ENDBRANCH   3   7
BRANCH   6  17
ATOM     17  C   UNL     1       1.492   8.122  20.349  0.00  0.00    +0.000 A 
ATOM     18  C   UNL     1       1.365   9.047  19.305  0.00  0.00    +0.000 A 
ATOM     19  C   UNL     1       0.922  10.356  19.534  0.00  0.00    +0.000 A 
ATOM     20  C   UNL     1       0.612  10.773  20.822  0.00  0.00    +0.000 A 
ATOM     21  C   UNL     1       0.745   9.880  21.879  0.00  0.00    +0.000 A 
ATOM     22  C   UNL     1       1.176   8.567  21.644  0.00  0.00    +0.000 A 
ENDBRANCH   6  17
TORSDOF 2
ENDMDL
