MODEL 1
REMARK VINA RESULT:      -6.8      0.000      0.000
REMARK  Name = 
REMARK  7 active torsions:
REMARK  status: ('A' for Active; 'I' for Inactive)
REMARK    1  A    between atoms: C_1  and  O_2
REMARK    2  A    between atoms: O_2  and  C_3
REMARK    3  A    between atoms: C_7  and  C_8
REMARK    4  A    between atoms: C_9  and  C_10
REMARK    5  A    between atoms: C_14  and  O_15
REMARK    6  A    between atoms: O_15  and  C_16
REMARK    7  A    between atoms: C_20  and  C_21
REMARK                            x       y       z     vdW  Elec       q    Type
REMARK                         _______ _______ _______ _____ _____    ______ ____
ROOT
ATOM      1  C   UNL     1       1.604  14.941  20.425  0.00  0.00    +0.000 C 
ATOM      2  C   UNL     1       0.501  14.834  19.661  0.00  0.00    +0.000 C 
ATOM      3  C   UNL     1       0.228  13.432  19.421  0.00  0.00    +0.000 A 
ATOM      4  C   UNL     1      -0.775  12.913  18.621  0.00  0.00    +0.000 A 
ATOM      5  C   UNL     1      -1.014  11.536  18.589  0.00  0.00    +0.000 A 
ATOM      6  C   UNL     1      -0.206  10.723  19.422  0.00  0.00    +0.000 A 
ATOM      7  C   UNL     1       0.852  11.262  20.199  0.00  0.00    +0.000 A 
ATOM      8  C   UNL     1       1.063  12.630  20.157  0.00  0.00    +0.000 A 
ATOM      9  C   UNL     1       2.026  13.545  20.798  0.00  0.00    +0.000 C 
ATOM     10  O   UNL     1       2.959  13.216  21.502  0.00  0.00    +0.000 OA
ENDROOT
BRANCH   1  15
ATOM     11  C   UNL     1       3.949  17.862  20.655  0.00  0.00    +0.000 A 
ATOM     12  C   UNL     1       3.656  18.326  21.938  0.00  0.00    +0.000 A 
ATOM     13  C   UNL     1       2.627  17.746  22.679  0.00  0.00    +0.000 A 
ATOM     14  C   UNL     1       1.892  16.691  22.139  0.00  0.00    +0.000 A 
ATOM     15  C   UNL     1       2.171  16.219  20.848  0.00  0.00    +0.000 A 
ATOM     16  C   UNL     1       3.185  16.834  20.096  0.00  0.00    +0.000 A 
BRANCH  11  18
ATOM     17  C   UNL     1       6.156  17.651  19.825  0.00  0.00    +0.000 C 
ATOM     18  O   UNL     1       5.015  18.473  20.053  0.00  0.00    +0.000 OA
ENDBRANCH  11  18
ENDBRANCH   1  15
BRANCH   2  19
ATOM     19  C   UNL     1      -0.435  15.902  19.294  0.00  0.00    +0.000 A 
ATOM     20  C   UNL     1      -1.439  16.341  20.155  0.00  0.00    +0.000 A 
ATOM     21  C   UNL     1      -2.143  17.501  19.839  0.00  0.00    +0.000 A 
ATOM     22  C   UNL     1      -1.829  18.224  18.682  0.00  0.00    +0.000 A 
ATOM     23  C   UNL     1      -0.807  17.802  17.834  0.00  0.00    +0.000 A 
ATOM     24  C   UNL     1      -0.137  16.620  18.123  0.00  0.00    +0.000 A 
BRANCH  23  25
ATOM     25  O   UNL     1      -0.528  18.607  16.764  0.00  0.00    +0.000 OA
ATOM     26  C   UNL     1       0.842  18.630  16.363  0.00  0.00    +0.000 C 
ENDBRANCH  23  25
ENDBRANCH   2  19
BRANCH   5  27
ATOM     27  C   UNL     1      -2.127  11.057  17.737  0.00  0.00    +0.000 A 
ATOM     28  C   UNL     1      -1.903  10.034  16.786  0.00  0.00    +0.000 A 
ATOM     29  C   UNL     1      -2.861   9.690  15.831  0.00  0.00    +0.000 A 
ATOM     30  C   UNL     1      -4.088  10.338  15.825  0.00  0.00    +0.000 A 
ATOM     31  C   UNL     1      -4.357  11.311  16.786  0.00  0.00    +0.000 A 
ATOM     32  C   UNL     1      -3.386  11.669  17.733  0.00  0.00    +0.000 A 
ENDBRANCH   5  27
TORSDOF 5
ENDMDL
MODEL 2
REMARK VINA RESULT:      -6.7      4.571      6.715
REMARK  Name = 
REMARK  7 active torsions:
REMARK  status: ('A' for Active; 'I' for Inactive)
REMARK    1  A    between atoms: C_1  and  O_2
REMARK    2  A    between atoms: O_2  and  C_3
REMARK    3  A    between atoms: C_7  and  C_8
REMARK    4  A    between atoms: C_9  and  C_10
REMARK    5  A    between atoms: C_14  and  O_15
REMARK    6  A    between atoms: O_15  and  C_16
REMARK    7  A    between atoms: C_20  and  C_21
REMARK                            x       y       z     vdW  Elec       q    Type
REMARK                         _______ _______ _______ _____ _____    ______ ____
ROOT
ATOM      1  C   UNL     1      -2.126  12.442  21.345  0.00  0.00    +0.000 C 
ATOM      2  C   UNL     1      -1.694  11.725  20.292  0.00  0.00    +0.000 C 
ATOM      3  C   UNL     1      -0.661  10.811  20.733  0.00  0.00    +0.000 A 
ATOM      4  C   UNL     1       0.082   9.959  19.936  0.00  0.00    +0.000 A 
ATOM      5  C   UNL     1       0.951   9.028  20.513  0.00  0.00    +0.000 A 
ATOM      6  C   UNL     1       1.010   8.991  21.928  0.00  0.00    +0.000 A 
ATOM      7  C   UNL     1       0.280   9.906  22.733  0.00  0.00    +0.000 A 
ATOM      8  C   UNL     1      -0.533  10.830  22.100  0.00  0.00    +0.000 A 
ATOM      9  C   UNL     1      -1.422  11.911  22.565  0.00  0.00    +0.000 C 
ATOM     10  O   UNL     1      -1.558  12.273  23.717  0.00  0.00    +0.000 OA
ENDROOT
BRANCH   1  15
ATOM     11  C   UNL     1      -3.732  15.821  21.048  0.00  0.00    +0.000 A 
ATOM     12  C   UNL     1      -4.975  15.566  21.630  0.00  0.00    +0.000 A 
ATOM     13  C   UNL     1      -5.317  14.273  22.024  0.00  0.00    +0.000 A 
ATOM     14  C   UNL     1      -4.409  13.229  21.843  0.00  0.00    +0.000 A 
ATOM     15  C   UNL     1      -3.160  13.469  21.252  0.00  0.00    +0.000 A 
ATOM     16  C   UNL     1      -2.840  14.769  20.826  0.00  0.00    +0.000 A 
BRANCH  11  18
ATOM     17  C   UNL     1      -4.343  18.080  21.400  0.00  0.00    +0.000 C 
ATOM     18  O   UNL     1      -3.493  17.136  20.757  0.00  0.00    +0.000 OA
ENDBRANCH  11  18
ENDBRANCH   1  15
BRANCH   2  19
ATOM     19  C   UNL     1      -2.285  11.669  18.950  0.00  0.00    +0.000 A 
ATOM     20  C   UNL     1      -1.512  11.509  17.802  0.00  0.00    +0.000 A 
ATOM     21  C   UNL     1      -2.145  11.238  16.591  0.00  0.00    +0.000 A 
ATOM     22  C   UNL     1      -3.539  11.110  16.536  0.00  0.00    +0.000 A 
ATOM     23  C   UNL     1      -4.311  11.245  17.688  0.00  0.00    +0.000 A 
ATOM     24  C   UNL     1      -3.685  11.561  18.886  0.00  0.00    +0.000 A 
BRANCH  23  25
ATOM     25  O   UNL     1      -5.656  11.038  17.549  0.00  0.00    +0.000 OA
ATOM     26  C   UNL     1      -6.353  10.746  18.761  0.00  0.00    +0.000 C 
ENDBRANCH  23  25
ENDBRANCH   2  19
BRANCH   5  27
ATOM     27  C   UNL     1       1.687   8.124  19.597  0.00  0.00    +0.000 A 
ATOM     28  C   UNL     1       2.119   6.855  20.050  0.00  0.00    +0.000 A 
ATOM     29  C   UNL     1       2.980   6.056  19.295  0.00  0.00    +0.000 A 
ATOM     30  C   UNL     1       3.403   6.491  18.048  0.00  0.00    +0.000 A 
ATOM     31  C   UNL     1       2.949   7.712  17.553  0.00  0.00    +0.000 A 
ATOM     32  C   UNL     1       2.098   8.523  18.320  0.00  0.00    +0.000 A 
ENDBRANCH   5  27
TORSDOF 5
ENDMDL
MODEL 3
REMARK VINA RESULT:      -6.7      6.866     11.157
REMARK  Name = 
REMARK  7 active torsions:
REMARK  status: ('A' for Active; 'I' for Inactive)
REMARK    1  A    between atoms: C_1  and  O_2
REMARK    2  A    between atoms: O_2  and  C_3
REMARK    3  A    between atoms: C_7  and  C_8
REMARK    4  A    between atoms: C_9  and  C_10
REMARK    5  A    between atoms: C_14  and  O_15
REMARK    6  A    between atoms: O_15  and  C_16
REMARK    7  A    between atoms: C_20  and  C_21
REMARK                            x       y       z     vdW  Elec       q    Type
REMARK                         _______ _______ _______ _____ _____    ______ ____
ROOT
ATOM      1  C   UNL     1       3.543   6.382  17.860  0.00  0.00    +0.000 C 
ATOM      2  C   UNL     1       2.751   6.437  18.947  0.00  0.00    +0.000 C 
ATOM      3  C   UNL     1       2.204   7.773  19.066  0.00  0.00    +0.000 A 
ATOM      4  C   UNL     1       1.404   8.248  20.090  0.00  0.00    +0.000 A 
ATOM      5  C   UNL     1       0.829   9.520  20.007  0.00  0.00    +0.000 A 
ATOM      6  C   UNL     1       1.086  10.268  18.832  0.00  0.00    +0.000 A 
ATOM      7  C   UNL     1       1.949   9.789  17.811  0.00  0.00    +0.000 A 
ATOM      8  C   UNL     1       2.519   8.538  17.971  0.00  0.00    +0.000 A 
ATOM      9  C   UNL     1       3.438   7.713  17.164  0.00  0.00    +0.000 C 
ATOM     10  O   UNL     1       3.978   8.054  16.131  0.00  0.00    +0.000 OA
ENDROOT
BRANCH   1  15
ATOM     11  C   UNL     1       6.153   4.200  16.276  0.00  0.00    +0.000 A 
ATOM     12  C   UNL     1       5.436   3.011  16.127  0.00  0.00    +0.000 A 
ATOM     13  C   UNL     1       4.143   2.900  16.633  0.00  0.00    +0.000 A 
ATOM     14  C   UNL     1       3.557   3.984  17.286  0.00  0.00    +0.000 A 
ATOM     15  C   UNL     1       4.267   5.182  17.450  0.00  0.00    +0.000 A 
ATOM     16  C   UNL     1       5.583   5.272  16.968  0.00  0.00    +0.000 A 
BRANCH  11  18
ATOM     17  C   UNL     1       7.449   4.753  14.374  0.00  0.00    +0.000 C 
ATOM     18  O   UNL     1       7.388   4.205  15.687  0.00  0.00    +0.000 OA
ENDBRANCH  11  18
ENDBRANCH   1  15
BRANCH   2  19
ATOM     19  C   UNL     1       2.299   5.315  19.777  0.00  0.00    +0.000 A 
ATOM     20  C   UNL     1       0.961   4.931  19.844  0.00  0.00    +0.000 A 
ATOM     21  C   UNL     1       0.632   3.728  20.466  0.00  0.00    +0.000 A 
ATOM     22  C   UNL     1       1.637   2.910  20.996  0.00  0.00    +0.000 A 
ATOM     23  C   UNL     1       2.977   3.280  20.907  0.00  0.00    +0.000 A 
ATOM     24  C   UNL     1       3.302   4.501  20.329  0.00  0.00    +0.000 A 
BRANCH  23  25
ATOM     25  O   UNL     1       3.892   2.388  21.394  0.00  0.00    +0.000 OA
ATOM     26  C   UNL     1       4.743   1.794  20.412  0.00  0.00    +0.000 C 
ENDBRANCH  23  25
ENDBRANCH   2  19
BRANCH   5  27
ATOM     27  C   UNL     1      -0.045   9.947  21.125  0.00  0.00    +0.000 A 
ATOM     28  C   UNL     1      -0.818  11.126  21.010  0.00  0.00    +0.000 A 
ATOM     29  C   UNL     1      -1.497  11.673  22.101  0.00  0.00    +0.000 A 
ATOM     30  C   UNL     1      -1.450  11.032  23.330  0.00  0.00    +0.000 A 
ATOM     31  C   UNL     1      -0.742   9.838  23.458  0.00  0.00    +0.000 A 
ATOM     32  C   UNL     1      -0.044   9.300  22.366  0.00  0.00    +0.000 A 
ENDBRANCH   5  27
TORSDOF 5
ENDMDL
MODEL 4
REMARK VINA RESULT:      -6.6      5.063      7.255
REMARK  Name = 
REMARK  7 active torsions:
REMARK  status: ('A' for Active; 'I' for Inactive)
REMARK    1  A    between atoms: C_1  and  O_2
REMARK    2  A    between atoms: O_2  and  C_3
REMARK    3  A    between atoms: C_7  and  C_8
REMARK    4  A    between atoms: C_9  and  C_10
REMARK    5  A    between atoms: C_14  and  O_15
REMARK    6  A    between atoms: O_15  and  C_16
REMARK    7  A    between atoms: C_20  and  C_21
REMARK                            x       y       z     vdW  Elec       q    Type
REMARK                         _______ _______ _______ _____ _____    ______ ____
ROOT
ATOM      1  C   UNL     1      -2.641  12.692  21.569  0.00  0.00    +0.000 C 
ATOM      2  C   UNL     1      -2.108  12.005  20.542  0.00  0.00    +0.000 C 
ATOM      3  C   UNL     1      -1.088  11.111  21.051  0.00  0.00    +0.000 A 
ATOM      4  C   UNL     1      -0.261  10.292  20.302  0.00  0.00    +0.000 A 
ATOM      5  C   UNL     1       0.584   9.374  20.932  0.00  0.00    +0.000 A 
ATOM      6  C   UNL     1       0.530   9.313  22.346  0.00  0.00    +0.000 A 
ATOM      7  C   UNL     1      -0.285  10.193  23.104  0.00  0.00    +0.000 A 
ATOM      8  C   UNL     1      -1.070  11.107  22.423  0.00  0.00    +0.000 A 
ATOM      9  C   UNL     1      -2.022  12.157  22.833  0.00  0.00    +0.000 C 
ATOM     10  O   UNL     1      -2.260  12.494  23.976  0.00  0.00    +0.000 OA
ENDROOT
BRANCH   1  15
ATOM     11  C   UNL     1      -6.027  14.195  20.970  0.00  0.00    +0.000 A 
ATOM     12  C   UNL     1      -5.667  15.470  20.531  0.00  0.00    +0.000 A 
ATOM     13  C   UNL     1      -4.330  15.863  20.528  0.00  0.00    +0.000 A 
ATOM     14  C   UNL     1      -3.344  14.975  20.960  0.00  0.00    +0.000 A 
ATOM     15  C   UNL     1      -3.692  13.694  21.410  0.00  0.00    +0.000 A 
ATOM     16  C   UNL     1      -5.046  13.321  21.443  0.00  0.00    +0.000 A 
BRANCH  11  18
ATOM     17  C   UNL     1      -7.909  13.942  19.556  0.00  0.00    +0.000 C 
ATOM     18  O   UNL     1      -7.361  13.908  20.871  0.00  0.00    +0.000 OA
ENDBRANCH  11  18
ENDBRANCH   1  15
BRANCH   2  19
ATOM     19  C   UNL     1      -2.588  11.959  19.157  0.00  0.00    +0.000 A 
ATOM     20  C   UNL     1      -1.720  11.855  18.071  0.00  0.00    +0.000 A 
ATOM     21  C   UNL     1      -2.245  11.589  16.808  0.00  0.00    +0.000 A 
ATOM     22  C   UNL     1      -3.623  11.410  16.640  0.00  0.00    +0.000 A 
ATOM     23  C   UNL     1      -4.490  11.488  17.729  0.00  0.00    +0.000 A 
ATOM     24  C   UNL     1      -3.973  11.800  18.979  0.00  0.00    +0.000 A 
BRANCH  23  25
ATOM     25  O   UNL     1      -5.810  11.234  17.479  0.00  0.00    +0.000 OA
ATOM     26  C   UNL     1      -6.521  10.611  18.549  0.00  0.00    +0.000 C 
ENDBRANCH  23  25
ENDBRANCH   2  19
BRANCH   5  27
ATOM     27  C   UNL     1       1.414   8.506  20.064  0.00  0.00    +0.000 A 
ATOM     28  C   UNL     1       1.710   8.903  18.739  0.00  0.00    +0.000 A 
ATOM     29  C   UNL     1       2.315   8.038  17.825  0.00  0.00    +0.000 A 
ATOM     30  C   UNL     1       2.675   6.759  18.227  0.00  0.00    +0.000 A 
ATOM     31  C   UNL     1       2.446   6.360  19.542  0.00  0.00    +0.000 A 
ATOM     32  C   UNL     1       1.821   7.224  20.454  0.00  0.00    +0.000 A 
ENDBRANCH   5  27
TORSDOF 5
ENDMDL
MODEL 5
REMARK VINA RESULT:      -6.6      4.880      7.139
REMARK  Name = 
REMARK  7 active torsions:
REMARK  status: ('A' for Active; 'I' for Inactive)
REMARK    1  A    between atoms: C_1  and  O_2
REMARK    2  A    between atoms: O_2  and  C_3
REMARK    3  A    between atoms: C_7  and  C_8
REMARK    4  A    between atoms: C_9  and  C_10
REMARK    5  A    between atoms: C_14  and  O_15
REMARK    6  A    between atoms: O_15  and  C_16
REMARK    7  A    between atoms: C_20  and  C_21
REMARK                            x       y       z     vdW  Elec       q    Type
REMARK                         _______ _______ _______ _____ _____    ______ ____
ROOT
ATOM      1  C   UNL     1      -2.230  12.549  21.506  0.00  0.00    +0.000 C 
ATOM      2  C   UNL     1      -1.807  11.852  20.435  0.00  0.00    +0.000 C 
ATOM      3  C   UNL     1      -0.763  10.936  20.849  0.00  0.00    +0.000 A 
ATOM      4  C   UNL     1      -0.026  10.102  20.028  0.00  0.00    +0.000 A 
ATOM      5  C   UNL     1       0.855   9.165  20.579  0.00  0.00    +0.000 A 
ATOM      6  C   UNL     1       0.930   9.105  21.991  0.00  0.00    +0.000 A 
ATOM      7  C   UNL     1       0.206  10.001  22.821  0.00  0.00    +0.000 A 
ATOM      8  C   UNL     1      -0.620  10.931  22.214  0.00  0.00    +0.000 A 
ATOM      9  C   UNL     1      -1.508  12.000  22.709  0.00  0.00    +0.000 C 
ATOM     10  O   UNL     1      -1.632  12.341  23.868  0.00  0.00    +0.000 OA
ENDROOT
BRANCH   1  15
ATOM     11  C   UNL     1      -5.628  14.120  21.248  0.00  0.00    +0.000 A 
ATOM     12  C   UNL     1      -5.290  15.380  20.750  0.00  0.00    +0.000 A 
ATOM     13  C   UNL     1      -3.953  15.742  20.597  0.00  0.00    +0.000 A 
ATOM     14  C   UNL     1      -2.946  14.838  20.936  0.00  0.00    +0.000 A 
ATOM     15  C   UNL     1      -3.270  13.572  21.444  0.00  0.00    +0.000 A 
ATOM     16  C   UNL     1      -4.620  13.231  21.628  0.00  0.00    +0.000 A 
BRANCH  11  18
ATOM     17  C   UNL     1      -7.698  14.547  22.313  0.00  0.00    +0.000 C 
ATOM     18  O   UNL     1      -6.970  13.863  21.298  0.00  0.00    +0.000 OA
ENDBRANCH  11  18
ENDBRANCH   1  15
BRANCH   2  19
ATOM     19  C   UNL     1      -2.414  11.817  19.100  0.00  0.00    +0.000 A 
ATOM     20  C   UNL     1      -1.648  11.801  17.935  0.00  0.00    +0.000 A 
ATOM     21  C   UNL     1      -2.274  11.540  16.718  0.00  0.00    +0.000 A 
ATOM     22  C   UNL     1      -3.649  11.278  16.673  0.00  0.00    +0.000 A 
ATOM     23  C   UNL     1      -4.410  11.269  17.840  0.00  0.00    +0.000 A 
ATOM     24  C   UNL     1      -3.797  11.575  19.047  0.00  0.00    +0.000 A 
BRANCH  23  25
ATOM     25  O   UNL     1      -5.731  10.939  17.705  0.00  0.00    +0.000 OA
ATOM     26  C   UNL     1      -6.647  12.019  17.884  0.00  0.00    +0.000 C 
ENDBRANCH  23  25
ENDBRANCH   2  19
BRANCH   5  27
ATOM     27  C   UNL     1       1.584   8.281  19.639  0.00  0.00    +0.000 A 
ATOM     28  C   UNL     1       2.058   7.022  20.074  0.00  0.00    +0.000 A 
ATOM     29  C   UNL     1       2.915   6.245  19.292  0.00  0.00    +0.000 A 
ATOM     30  C   UNL     1       3.292   6.694  18.034  0.00  0.00    +0.000 A 
ATOM     31  C   UNL     1       2.795   7.905  17.557  0.00  0.00    +0.000 A 
ATOM     32  C   UNL     1       1.949   8.694  18.352  0.00  0.00    +0.000 A 
ENDBRANCH   5  27
TORSDOF 5
ENDMDL
MODEL 6
REMARK VINA RESULT:      -6.6      3.701      6.602
REMARK  Name = 
REMARK  7 active torsions:
REMARK  status: ('A' for Active; 'I' for Inactive)
REMARK    1  A    between atoms: C_1  and  O_2
REMARK    2  A    between atoms: O_2  and  C_3
REMARK    3  A    between atoms: C_7  and  C_8
REMARK    4  A    between atoms: C_9  and  C_10
REMARK    5  A    between atoms: C_14  and  O_15
REMARK    6  A    between atoms: O_15  and  C_16
REMARK    7  A    between atoms: C_20  and  C_21
REMARK                            x       y       z     vdW  Elec       q    Type
REMARK                         _______ _______ _______ _____ _____    ______ ____
ROOT
ATOM      1  C   UNL     1      -1.615  11.930  21.112  0.00  0.00    +0.000 C 
ATOM      2  C   UNL     1      -1.220  11.184  20.064  0.00  0.00    +0.000 C 
ATOM      3  C   UNL     1      -0.173  10.281  20.495  0.00  0.00    +0.000 A 
ATOM      4  C   UNL     1       0.541   9.406  19.696  0.00  0.00    +0.000 A 
ATOM      5  C   UNL     1       1.428   8.489  20.268  0.00  0.00    +0.000 A 
ATOM      6  C   UNL     1       1.535   8.490  21.680  0.00  0.00    +0.000 A 
ATOM      7  C   UNL     1       0.835   9.427  22.485  0.00  0.00    +0.000 A 
ATOM      8  C   UNL     1       0.001  10.335  21.855  0.00  0.00    +0.000 A 
ATOM      9  C   UNL     1      -0.870  11.431  22.321  0.00  0.00    +0.000 C 
ATOM     10  O   UNL     1      -0.966  11.824  23.466  0.00  0.00    +0.000 OA
ENDROOT
BRANCH   1  15
ATOM     11  C   UNL     1      -3.226  15.308  20.821  0.00  0.00    +0.000 A 
ATOM     12  C   UNL     1      -4.462  15.054  21.417  0.00  0.00    +0.000 A 
ATOM     13  C   UNL     1      -4.799  13.762  21.818  0.00  0.00    +0.000 A 
ATOM     14  C   UNL     1      -3.893  12.718  21.631  0.00  0.00    +0.000 A 
ATOM     15  C   UNL     1      -2.650  12.957  21.027  0.00  0.00    +0.000 A 
ATOM     16  C   UNL     1      -2.335  14.255  20.594  0.00  0.00    +0.000 A 
BRANCH  11  18
ATOM     17  C   UNL     1      -1.636  17.050  20.629  0.00  0.00    +0.000 C 
ATOM     18  O   UNL     1      -2.990  16.622  20.525  0.00  0.00    +0.000 OA
ENDBRANCH  11  18
ENDBRANCH   1  15
BRANCH   2  19
ATOM     19  C   UNL     1      -1.857  11.094  18.745  0.00  0.00    +0.000 A 
ATOM     20  C   UNL     1      -1.354  10.282  17.730  0.00  0.00    +0.000 A 
ATOM     21  C   UNL     1      -2.125  10.068  16.590  0.00  0.00    +0.000 A 
ATOM     22  C   UNL     1      -3.395  10.646  16.478  0.00  0.00    +0.000 A 
ATOM     23  C   UNL     1      -3.910  11.437  17.503  0.00  0.00    +0.000 A 
ATOM     24  C   UNL     1      -3.123  11.689  18.619  0.00  0.00    +0.000 A 
BRANCH  23  25
ATOM     25  O   UNL     1      -5.184  11.904  17.333  0.00  0.00    +0.000 OA
ATOM     26  C   UNL     1      -5.721  12.621  18.446  0.00  0.00    +0.000 C 
ENDBRANCH  23  25
ENDBRANCH   2  19
BRANCH   5  27
ATOM     27  C   UNL     1       2.131   7.559  19.352  0.00  0.00    +0.000 A 
ATOM     28  C   UNL     1       2.335   6.211  19.730  0.00  0.00    +0.000 A 
ATOM     29  C   UNL     1       3.157   5.354  18.996  0.00  0.00    +0.000 A 
ATOM     30  C   UNL     1       3.771   5.816  17.841  0.00  0.00    +0.000 A 
ATOM     31  C   UNL     1       3.544   7.123  17.414  0.00  0.00    +0.000 A 
ATOM     32  C   UNL     1       2.732   7.988  18.163  0.00  0.00    +0.000 A 
ENDBRANCH   5  27
TORSDOF 5
ENDMDL
MODEL 7
REMARK VINA RESULT:      -6.5      4.326      6.722
REMARK  Name = 
REMARK  7 active torsions:
REMARK  status: ('A' for Active; 'I' for Inactive)
REMARK    1  A    between atoms: C_1  and  O_2
REMARK    2  A    between atoms: O_2  and  C_3
REMARK    3  A    between atoms: C_7  and  C_8
REMARK    4  A    between atoms: C_9  and  C_10
REMARK    5  A    between atoms: C_14  and  O_15
REMARK    6  A    between atoms: O_15  and  C_16
REMARK    7  A    between atoms: C_20  and  C_21
REMARK                            x       y       z     vdW  Elec       q    Type
REMARK                         _______ _______ _______ _____ _____    ______ ____
ROOT
ATOM      1  C   UNL     1      -1.725  12.113  21.121  0.00  0.00    +0.000 C 
ATOM      2  C   UNL     1      -1.302  11.288  20.145  0.00  0.00    +0.000 C 
ATOM      3  C   UNL     1      -0.305  10.388  20.686  0.00  0.00    +0.000 A 
ATOM      4  C   UNL     1       0.420   9.442  19.983  0.00  0.00    +0.000 A 
ATOM      5  C   UNL     1       1.250   8.541  20.658  0.00  0.00    +0.000 A 
ATOM      6  C   UNL     1       1.288   8.634  22.071  0.00  0.00    +0.000 A 
ATOM      7  C   UNL     1       0.578   9.642  22.776  0.00  0.00    +0.000 A 
ATOM      8  C   UNL     1      -0.196  10.528  22.047  0.00  0.00    +0.000 A 
ATOM      9  C   UNL     1      -1.055  11.676  22.396  0.00  0.00    +0.000 C 
ATOM     10  O   UNL     1      -1.194  12.147  23.507  0.00  0.00    +0.000 OA
ENDROOT
BRANCH   1  15
ATOM     11  C   UNL     1      -3.239  15.527  20.749  0.00  0.00    +0.000 A 
ATOM     12  C   UNL     1      -4.562  15.261  21.107  0.00  0.00    +0.000 A 
ATOM     13  C   UNL     1      -4.971  13.954  21.370  0.00  0.00    +0.000 A 
ATOM     14  C   UNL     1      -4.053  12.908  21.282  0.00  0.00    +0.000 A 
ATOM     15  C   UNL     1      -2.723  13.160  20.917  0.00  0.00    +0.000 A 
ATOM     16  C   UNL     1      -2.330  14.474  20.619  0.00  0.00    +0.000 A 
BRANCH  11  18
ATOM     17  C   UNL     1      -3.901  17.773  21.092  0.00  0.00    +0.000 C 
ATOM     18  O   UNL     1      -2.947  16.851  20.573  0.00  0.00    +0.000 OA
ENDBRANCH  11  18
ENDBRANCH   1  15
BRANCH   2  19
ATOM     19  C   UNL     1      -1.877  11.127  18.805  0.00  0.00    +0.000 A 
ATOM     20  C   UNL     1      -1.300  10.300  17.843  0.00  0.00    +0.000 A 
ATOM     21  C   UNL     1      -2.012  10.017  16.679  0.00  0.00    +0.000 A 
ATOM     22  C   UNL     1      -3.297  10.541  16.492  0.00  0.00    +0.000 A 
ATOM     23  C   UNL     1      -3.885  11.347  17.465  0.00  0.00    +0.000 A 
ATOM     24  C   UNL     1      -3.158  11.668  18.603  0.00  0.00    +0.000 A 
BRANCH  23  25
ATOM     25  O   UNL     1      -5.167  11.758  17.224  0.00  0.00    +0.000 OA
ATOM     26  C   UNL     1      -6.109  11.440  18.250  0.00  0.00    +0.000 C 
ENDBRANCH  23  25
ENDBRANCH   2  19
BRANCH   5  27
ATOM     27  C   UNL     1       1.968   7.534  19.842  0.00  0.00    +0.000 A 
ATOM     28  C   UNL     1       2.514   7.896  18.588  0.00  0.00    +0.000 A 
ATOM     29  C   UNL     1       3.020   6.944  17.701  0.00  0.00    +0.000 A 
ATOM     30  C   UNL     1       3.027   5.604  18.062  0.00  0.00    +0.000 A 
ATOM     31  C   UNL     1       2.547   5.225  19.314  0.00  0.00    +0.000 A 
ATOM     32  C   UNL     1       2.020   6.181  20.197  0.00  0.00    +0.000 A 
ENDBRANCH   5  27
TORSDOF 5
ENDMDL
MODEL 8
REMARK VINA RESULT:      -6.5      4.269      6.856
REMARK  Name = 
REMARK  7 active torsions:
REMARK  status: ('A' for Active; 'I' for Inactive)
REMARK    1  A    between atoms: C_1  and  O_2
REMARK    2  A    between atoms: O_2  and  C_3
REMARK    3  A    between atoms: C_7  and  C_8
REMARK    4  A    between atoms: C_9  and  C_10
REMARK    5  A    between atoms: C_14  and  O_15
REMARK    6  A    between atoms: O_15  and  C_16
REMARK    7  A    between atoms: C_20  and  C_21
REMARK                            x       y       z     vdW  Elec       q    Type
REMARK                         _______ _______ _______ _____ _____    ______ ____
ROOT
ATOM      1  C   UNL     1       1.397  11.020  19.050  0.00  0.00    +0.000 C 
ATOM      2  C   UNL     1       1.037   9.923  19.742  0.00  0.00    +0.000 C 
ATOM      3  C   UNL     1       1.621   8.756  19.114  0.00  0.00    +0.000 A 
ATOM      4  C   UNL     1       1.425   7.437  19.483  0.00  0.00    +0.000 A 
ATOM      5  C   UNL     1       2.163   6.415  18.877  0.00  0.00    +0.000 A 
ATOM      6  C   UNL     1       3.117   6.800  17.904  0.00  0.00    +0.000 A 
ATOM      7  C   UNL     1       3.273   8.152  17.498  0.00  0.00    +0.000 A 
ATOM      8  C   UNL     1       2.484   9.112  18.109  0.00  0.00    +0.000 A 
ATOM      9  C   UNL     1       2.350  10.575  17.972  0.00  0.00    +0.000 C 
ATOM     10  O   UNL     1       2.921  11.268  17.155  0.00  0.00    +0.000 OA
ENDROOT
BRANCH   1  15
ATOM     11  C   UNL     1       0.935  14.175  21.028  0.00  0.00    +0.000 A 
ATOM     12  C   UNL     1      -0.225  14.680  20.438  0.00  0.00    +0.000 A 
ATOM     13  C   UNL     1      -0.790  14.041  19.336  0.00  0.00    +0.000 A 
ATOM     14  C   UNL     1      -0.199  12.886  18.824  0.00  0.00    +0.000 A 
ATOM     15  C   UNL     1       0.971  12.372  19.402  0.00  0.00    +0.000 A 
ATOM     16  C   UNL     1       1.552  13.044  20.490  0.00  0.00    +0.000 A 
BRANCH  11  18
ATOM     17  C   UNL     1       2.718  15.285  22.120  0.00  0.00    +0.000 C 
ATOM     18  O   UNL     1       1.359  14.857  22.136  0.00  0.00    +0.000 OA
ENDBRANCH  11  18
ENDBRANCH   1  15
BRANCH   2  19
ATOM     19  C   UNL     1       0.361   9.873  21.043  0.00  0.00    +0.000 A 
ATOM     20  C   UNL     1       0.912   9.217  22.143  0.00  0.00    +0.000 A 
ATOM     21  C   UNL     1       0.334   9.398  23.398  0.00  0.00    +0.000 A 
ATOM     22  C   UNL     1      -0.771  10.244  23.551  0.00  0.00    +0.000 A 
ATOM     23  C   UNL     1      -1.306  10.921  22.457  0.00  0.00    +0.000 A 
ATOM     24  C   UNL     1      -0.761  10.704  21.199  0.00  0.00    +0.000 A 
BRANCH  23  25
ATOM     25  O   UNL     1      -2.343  11.775  22.714  0.00  0.00    +0.000 OA
ATOM     26  C   UNL     1      -1.966  13.037  23.268  0.00  0.00    +0.000 C 
ENDBRANCH  23  25
ENDBRANCH   2  19
BRANCH   5  27
ATOM     27  C   UNL     1       1.925   5.031  19.349  0.00  0.00    +0.000 A 
ATOM     28  C   UNL     1       1.531   4.028  18.433  0.00  0.00    +0.000 A 
ATOM     29  C   UNL     1       1.106   2.767  18.855  0.00  0.00    +0.000 A 
ATOM     30  C   UNL     1       1.098   2.464  20.209  0.00  0.00    +0.000 A 
ATOM     31  C   UNL     1       1.534   3.414  21.131  0.00  0.00    +0.000 A 
ATOM     32  C   UNL     1       1.943   4.687  20.706  0.00  0.00    +0.000 A 
ENDBRANCH   5  27
TORSDOF 5
ENDMDL
MODEL 9
REMARK VINA RESULT:      -6.5      4.023      8.736
REMARK  Name = 
REMARK  7 active torsions:
REMARK  status: ('A' for Active; 'I' for Inactive)
REMARK    1  A    between atoms: C_1  and  O_2
REMARK    2  A    between atoms: O_2  and  C_3
REMARK    3  A    between atoms: C_7  and  C_8
REMARK    4  A    between atoms: C_9  and  C_10
REMARK    5  A    between atoms: C_14  and  O_15
REMARK    6  A    between atoms: O_15  and  C_16
REMARK    7  A    between atoms: C_20  and  C_21
REMARK                            x       y       z     vdW  Elec       q    Type
REMARK                         _______ _______ _______ _____ _____    ______ ____
ROOT
ATOM      1  C   UNL     1      -3.718  11.825  18.689  0.00  0.00    +0.000 C 
ATOM      2  C   UNL     1      -2.923  12.447  19.578  0.00  0.00    +0.000 C 
ATOM      3  C   UNL     1      -3.739  12.985  20.648  0.00  0.00    +0.000 A 
ATOM      4  C   UNL     1      -3.301  13.754  21.712  0.00  0.00    +0.000 A 
ATOM      5  C   UNL     1      -4.176  14.088  22.750  0.00  0.00    +0.000 A 
ATOM      6  C   UNL     1      -5.498  13.587  22.665  0.00  0.00    +0.000 A 
ATOM      7  C   UNL     1      -5.948  12.841  21.544  0.00  0.00    +0.000 A 
ATOM      8  C   UNL     1      -5.044  12.577  20.530  0.00  0.00    +0.000 A 
ATOM      9  C   UNL     1      -5.118  11.859  19.243  0.00  0.00    +0.000 C 
ATOM     10  O   UNL     1      -6.121  11.379  18.753  0.00  0.00    +0.000 OA
ENDROOT
BRANCH   1  15
ATOM     11  C   UNL     1      -3.558  10.639  15.133  0.00  0.00    +0.000 A 
ATOM     12  C   UNL     1      -2.699   9.546  15.266  0.00  0.00    +0.000 A 
ATOM     13  C   UNL     1      -2.102   9.265  16.493  0.00  0.00    +0.000 A 
ATOM     14  C   UNL     1      -2.369  10.074  17.597  0.00  0.00    +0.000 A 
ATOM     15  C   UNL     1      -3.223  11.180  17.476  0.00  0.00    +0.000 A 
ATOM     16  C   UNL     1      -3.791  11.476  16.227  0.00  0.00    +0.000 A 
BRANCH  11  18
ATOM     17  C   UNL     1      -3.857   9.730  12.968  0.00  0.00    +0.000 C 
ATOM     18  O   UNL     1      -4.125  10.777  13.895  0.00  0.00    +0.000 OA
ENDBRANCH  11  18
ENDBRANCH   1  15
BRANCH   2  19
ATOM     19  C   UNL     1      -1.457  12.424  19.631  0.00  0.00    +0.000 A 
ATOM     20  C   UNL     1      -0.675  13.423  19.054  0.00  0.00    +0.000 A 
ATOM     21  C   UNL     1       0.690  13.460  19.333  0.00  0.00    +0.000 A 
ATOM     22  C   UNL     1       1.260  12.517  20.196  0.00  0.00    +0.000 A 
ATOM     23  C   UNL     1       0.475  11.533  20.793  0.00  0.00    +0.000 A 
ATOM     24  C   UNL     1      -0.876  11.466  20.480  0.00  0.00    +0.000 A 
BRANCH  23  25
ATOM     25  O   UNL     1       1.107  10.697  21.672  0.00  0.00    +0.000 OA
ATOM     26  C   UNL     1       0.259   9.754  22.329  0.00  0.00    +0.000 C 
ENDBRANCH  23  25
ENDBRANCH   2  19
BRANCH   5  27
ATOM     27  C   UNL     1      -3.628  14.884  23.873  0.00  0.00    +0.000 A 
ATOM     28  C   UNL     1      -4.217  16.123  24.218  0.00  0.00    +0.000 A 
ATOM     29  C   UNL     1      -3.621  16.996  25.130  0.00  0.00    +0.000 A 
ATOM     30  C   UNL     1      -2.434  16.634  25.751  0.00  0.00    +0.000 A 
ATOM     31  C   UNL     1      -1.860  15.395  25.472  0.00  0.00    +0.000 A 
ATOM     32  C   UNL     1      -2.451  14.527  24.541  0.00  0.00    +0.000 A 
ENDBRANCH   5  27
TORSDOF 5
ENDMDL
