MODEL 1
REMARK VINA RESULT:      -7.3      0.000      0.000
REMARK  Name = 
REMARK  4 active torsions:
REMARK  status: ('A' for Active; 'I' for Inactive)
REMARK    1  A    between atoms: C_1  and  C_2
REMARK    2  A    between atoms: C_11  and  C_12
REMARK    3  A    between atoms: N_16  and  C_17
REMARK    4  A    between atoms: C_17  and  C_18
REMARK                            x       y       z     vdW  Elec       q    Type
REMARK                         _______ _______ _______ _____ _____    ______ ____
ROOT
ATOM      1  C   UNL     1       5.687   3.186  12.128  0.00  0.00    +0.000 C 
ATOM      2  C   UNL     1       6.728   4.032  12.816  0.00  0.00    +0.000 C 
ATOM      3  O   UNL     1       7.587   4.611  12.156  0.00  0.00    +0.000 OA
ATOM      4  N   UNL     1       6.638   4.167  14.194  0.00  0.00    +0.000 N 
ATOM      5  C   UNL     1       5.673   3.490  15.064  0.00  0.00    +0.000 C 
ATOM      6  C   UNL     1       4.718   4.520  15.665  0.00  0.00    +0.000 C 
ATOM      7  N   UNL     1       5.481   5.601  16.248  0.00  0.00    +0.000 N 
ATOM      8  C   UNL     1       6.797   5.852  15.941  0.00  0.00    +0.000 A 
ATOM      9  N   UNL     1       7.228   6.808  16.735  0.00  0.00    +0.000 NA
ATOM     10  N   UNL     1       6.156   7.253  17.478  0.00  0.00    +0.000 NA
ATOM     11  C   UNL     1       5.077   6.584  17.109  0.00  0.00    +0.000 A 
ATOM     12  C   UNL     1       7.540   5.117  14.872  0.00  0.00    +0.000 C 
ENDROOT
BRANCH  11  13
ATOM     13  C   UNL     1       3.653   6.969  17.354  0.00  0.00    +0.000 C 
ATOM     14  C   UNL     1       3.497   8.484  17.474  0.00  0.00    +0.000 C 
ATOM     15  C   UNL     1       2.150   8.649  18.136  0.00  0.00    +0.000 C 
ATOM     16  C   UNL     1       2.087   7.467  19.082  0.00  0.00    +0.000 C 
ATOM     17  N   UNL     1       2.891   6.384  18.475  0.00  0.00    +0.000 NA
BRANCH  17  18
ATOM     18  C   UNL     1       3.615   5.625  19.501  0.00  0.00    +0.000 C 
BRANCH  18  19
ATOM     19  C   UNL     1       2.802   4.418  19.963  0.00  0.00    +0.000 A 
ATOM     20  C   UNL     1       2.147   3.607  19.024  0.00  0.00    +0.000 A 
ATOM     21  C   UNL     1       1.318   2.561  19.439  0.00  0.00    +0.000 A 
ATOM     22  C   UNL     1       1.136   2.308  20.796  0.00  0.00    +0.000 A 
ATOM     23  C   UNL     1       1.798   3.091  21.740  0.00  0.00    +0.000 A 
ATOM     24  C   UNL     1       2.631   4.136  21.327  0.00  0.00    +0.000 A 
ENDBRANCH  18  19
ENDBRANCH  17  18
ENDBRANCH  11  13
TORSDOF 3
ENDMDL
MODEL 2
REMARK VINA RESULT:      -7.3      3.604      6.345
REMARK  Name = 
REMARK  4 active torsions:
REMARK  status: ('A' for Active; 'I' for Inactive)
REMARK    1  A    between atoms: C_1  and  C_2
REMARK    2  A    between atoms: C_11  and  C_12
REMARK    3  A    between atoms: N_16  and  C_17
REMARK    4  A    between atoms: C_17  and  C_18
REMARK                            x       y       z     vdW  Elec       q    Type
REMARK                         _______ _______ _______ _____ _____    ______ ____
ROOT
ATOM      1  C   UNL     1       1.045   9.339  23.053  0.00  0.00    +0.000 C 
ATOM      2  C   UNL     1       0.862   9.843  21.644  0.00  0.00    +0.000 C 
ATOM      3  O   UNL     1       0.723  11.046  21.432  0.00  0.00    +0.000 OA
ATOM      4  N   UNL     1       0.912   8.912  20.616  0.00  0.00    +0.000 N 
ATOM      5  C   UNL     1       1.039   7.461  20.776  0.00  0.00    +0.000 C 
ATOM      6  C   UNL     1       2.390   7.004  20.231  0.00  0.00    +0.000 C 
ATOM      7  N   UNL     1       2.578   7.537  18.900  0.00  0.00    +0.000 N 
ATOM      8  C   UNL     1       1.860   8.596  18.398  0.00  0.00    +0.000 A 
ATOM      9  N   UNL     1       2.173   8.741  17.130  0.00  0.00    +0.000 NA
ATOM     10  N   UNL     1       3.182   7.846  16.841  0.00  0.00    +0.000 NA
ATOM     11  C   UNL     1       3.491   7.186  17.943  0.00  0.00    +0.000 A 
ATOM     12  C   UNL     1       0.901   9.395  19.223  0.00  0.00    +0.000 C 
ENDROOT
BRANCH  11  13
ATOM     13  C   UNL     1       4.742   6.409  18.205  0.00  0.00    +0.000 C 
ATOM     14  C   UNL     1       5.854   6.799  17.233  0.00  0.00    +0.000 C 
ATOM     15  C   UNL     1       6.836   5.658  17.344  0.00  0.00    +0.000 C 
ATOM     16  C   UNL     1       5.939   4.453  17.549  0.00  0.00    +0.000 C 
ATOM     17  N   UNL     1       4.724   4.933  18.244  0.00  0.00    +0.000 NA
BRANCH  17  18
ATOM     18  C   UNL     1       3.529   4.228  17.766  0.00  0.00    +0.000 C 
BRANCH  18  19
ATOM     19  C   UNL     1       2.727   3.660  18.934  0.00  0.00    +0.000 A 
ATOM     20  C   UNL     1       1.326   3.614  18.873  0.00  0.00    +0.000 A 
ATOM     21  C   UNL     1       0.576   3.192  19.974  0.00  0.00    +0.000 A 
ATOM     22  C   UNL     1       1.215   2.803  21.149  0.00  0.00    +0.000 A 
ATOM     23  C   UNL     1       2.607   2.821  21.216  0.00  0.00    +0.000 A 
ATOM     24  C   UNL     1       3.360   3.241  20.115  0.00  0.00    +0.000 A 
ENDBRANCH  18  19
ENDBRANCH  17  18
ENDBRANCH  11  13
TORSDOF 3
ENDMDL
MODEL 3
REMARK VINA RESULT:      -7.2      3.565      6.425
REMARK  Name = 
REMARK  4 active torsions:
REMARK  status: ('A' for Active; 'I' for Inactive)
REMARK    1  A    between atoms: C_1  and  C_2
REMARK    2  A    between atoms: C_11  and  C_12
REMARK    3  A    between atoms: N_16  and  C_17
REMARK    4  A    between atoms: C_17  and  C_18
REMARK                            x       y       z     vdW  Elec       q    Type
REMARK                         _______ _______ _______ _____ _____    ______ ____
ROOT
ATOM      1  C   UNL     1       1.152   9.279  23.168  0.00  0.00    +0.000 C 
ATOM      2  C   UNL     1       0.938   9.854  21.790  0.00  0.00    +0.000 C 
ATOM      3  O   UNL     1       0.810  11.067  21.640  0.00  0.00    +0.000 OA
ATOM      4  N   UNL     1       0.950   8.973  20.717  0.00  0.00    +0.000 N 
ATOM      5  C   UNL     1       1.061   7.515  20.803  0.00  0.00    +0.000 C 
ATOM      6  C   UNL     1       2.392   7.069  20.200  0.00  0.00    +0.000 C 
ATOM      7  N   UNL     1       2.551   7.664  18.892  0.00  0.00    +0.000 N 
ATOM      8  C   UNL     1       1.834   8.754  18.462  0.00  0.00    +0.000 A 
ATOM      9  N   UNL     1       2.117   8.958  17.194  0.00  0.00    +0.000 NA
ATOM     10  N   UNL     1       3.105   8.067  16.835  0.00  0.00    +0.000 NA
ATOM     11  C   UNL     1       3.435   7.350  17.895  0.00  0.00    +0.000 A 
ATOM     12  C   UNL     1       0.908   9.523  19.350  0.00  0.00    +0.000 C 
ENDROOT
BRANCH  11  13
ATOM     13  C   UNL     1       4.681   6.546  18.085  0.00  0.00    +0.000 C 
ATOM     14  C   UNL     1       5.752   6.928  17.065  0.00  0.00    +0.000 C 
ATOM     15  C   UNL     1       6.717   5.768  17.113  0.00  0.00    +0.000 C 
ATOM     16  C   UNL     1       5.807   4.578  17.347  0.00  0.00    +0.000 C 
ATOM     17  N   UNL     1       4.637   5.070  18.106  0.00  0.00    +0.000 NA
BRANCH  17  18
ATOM     18  C   UNL     1       3.407   4.395  17.679  0.00  0.00    +0.000 C 
BRANCH  18  19
ATOM     19  C   UNL     1       2.637   3.851  18.880  0.00  0.00    +0.000 A 
ATOM     20  C   UNL     1       3.319   3.501  20.056  0.00  0.00    +0.000 A 
ATOM     21  C   UNL     1       2.641   2.908  21.125  0.00  0.00    +0.000 A 
ATOM     22  C   UNL     1       1.273   2.661  21.036  0.00  0.00    +0.000 A 
ATOM     23  C   UNL     1       0.578   3.025  19.884  0.00  0.00    +0.000 A 
ATOM     24  C   UNL     1       1.254   3.621  18.814  0.00  0.00    +0.000 A 
ENDBRANCH  18  19
ENDBRANCH  17  18
ENDBRANCH  11  13
TORSDOF 3
ENDMDL
MODEL 4
REMARK VINA RESULT:      -7.2      0.792      1.149
REMARK  Name = 
REMARK  4 active torsions:
REMARK  status: ('A' for Active; 'I' for Inactive)
REMARK    1  A    between atoms: C_1  and  C_2
REMARK    2  A    between atoms: C_11  and  C_12
REMARK    3  A    between atoms: N_16  and  C_17
REMARK    4  A    between atoms: C_17  and  C_18
REMARK                            x       y       z     vdW  Elec       q    Type
REMARK                         _______ _______ _______ _____ _____    ______ ____
ROOT
ATOM      1  C   UNL     1       5.493   3.102  12.212  0.00  0.00    +0.000 C 
ATOM      2  C   UNL     1       6.563   3.928  12.880  0.00  0.00    +0.000 C 
ATOM      3  O   UNL     1       7.432   4.474  12.205  0.00  0.00    +0.000 OA
ATOM      4  N   UNL     1       6.487   4.087  14.256  0.00  0.00    +0.000 N 
ATOM      5  C   UNL     1       5.510   3.449  15.144  0.00  0.00    +0.000 C 
ATOM      6  C   UNL     1       4.589   4.514  15.736  0.00  0.00    +0.000 C 
ATOM      7  N   UNL     1       5.386   5.582  16.297  0.00  0.00    +0.000 N 
ATOM      8  C   UNL     1       6.705   5.793  15.977  0.00  0.00    +0.000 A 
ATOM      9  N   UNL     1       7.169   6.748  16.752  0.00  0.00    +0.000 NA
ATOM     10  N   UNL     1       6.115   7.234  17.497  0.00  0.00    +0.000 NA
ATOM     11  C   UNL     1       5.016   6.590  17.145  0.00  0.00    +0.000 A 
ATOM     12  C   UNL     1       7.420   5.021  14.914  0.00  0.00    +0.000 C 
ENDROOT
BRANCH  11  13
ATOM     13  C   UNL     1       3.604   7.017  17.395  0.00  0.00    +0.000 C 
ATOM     14  C   UNL     1       3.500   8.533  17.552  0.00  0.00    +0.000 C 
ATOM     15  C   UNL     1       2.157   8.729  18.212  0.00  0.00    +0.000 C 
ATOM     16  C   UNL     1       2.049   7.527  19.130  0.00  0.00    +0.000 C 
ATOM     17  N   UNL     1       2.818   6.432  18.499  0.00  0.00    +0.000 NA
BRANCH  17  18
ATOM     18  C   UNL     1       3.512   5.623  19.509  0.00  0.00    +0.000 C 
BRANCH  18  19
ATOM     19  C   UNL     1       3.163   4.145  19.358  0.00  0.00    +0.000 A 
ATOM     20  C   UNL     1       4.180   3.191  19.205  0.00  0.00    +0.000 A 
ATOM     21  C   UNL     1       3.872   1.849  18.965  0.00  0.00    +0.000 A 
ATOM     22  C   UNL     1       2.543   1.441  18.878  0.00  0.00    +0.000 A 
ATOM     23  C   UNL     1       1.521   2.373  19.051  0.00  0.00    +0.000 A 
ATOM     24  C   UNL     1       1.828   3.715  19.295  0.00  0.00    +0.000 A 
ENDBRANCH  18  19
ENDBRANCH  17  18
ENDBRANCH  11  13
TORSDOF 3
ENDMDL
MODEL 5
REMARK VINA RESULT:      -6.9      3.875      7.068
REMARK  Name = 
REMARK  4 active torsions:
REMARK  status: ('A' for Active; 'I' for Inactive)
REMARK    1  A    between atoms: C_1  and  C_2
REMARK    2  A    between atoms: C_11  and  C_12
REMARK    3  A    between atoms: N_16  and  C_17
REMARK    4  A    between atoms: C_17  and  C_18
REMARK                            x       y       z     vdW  Elec       q    Type
REMARK                         _______ _______ _______ _____ _____    ______ ____
ROOT
ATOM      1  C   UNL     1      -0.192  10.624  17.797  0.00  0.00    +0.000 C 
ATOM      2  C   UNL     1      -0.082  10.039  19.182  0.00  0.00    +0.000 C 
ATOM      3  O   UNL     1      -1.001  10.177  19.986  0.00  0.00    +0.000 OA
ATOM      4  N   UNL     1       1.057   9.305  19.481  0.00  0.00    +0.000 N 
ATOM      5  C   UNL     1       2.215   9.117  18.602  0.00  0.00    +0.000 C 
ATOM      6  C   UNL     1       2.304   7.651  18.185  0.00  0.00    +0.000 C 
ATOM      7  N   UNL     1       2.229   6.811  19.359  0.00  0.00    +0.000 N 
ATOM      8  C   UNL     1       1.744   7.241  20.570  0.00  0.00    +0.000 A 
ATOM      9  N   UNL     1       1.936   6.287  21.453  0.00  0.00    +0.000 NA
ATOM     10  N   UNL     1       2.443   5.192  20.786  0.00  0.00    +0.000 NA
ATOM     11  C   UNL     1       2.527   5.483  19.499  0.00  0.00    +0.000 A 
ATOM     12  C   UNL     1       1.119   8.586  20.767  0.00  0.00    +0.000 C 
ENDROOT
BRANCH  11  13
ATOM     13  C   UNL     1       2.656   4.515  18.365  0.00  0.00    +0.000 C 
ATOM     14  C   UNL     1       1.696   3.338  18.524  0.00  0.00    +0.000 C 
ATOM     15  C   UNL     1       2.254   2.297  17.585  0.00  0.00    +0.000 C 
ATOM     16  C   UNL     1       3.752   2.507  17.694  0.00  0.00    +0.000 C 
ATOM     17  N   UNL     1       3.966   3.936  18.007  0.00  0.00    +0.000 NA
BRANCH  17  18
ATOM     18  C   UNL     1       5.092   4.111  18.932  0.00  0.00    +0.000 C 
BRANCH  18  19
ATOM     19  C   UNL     1       5.959   5.298  18.519  0.00  0.00    +0.000 A 
ATOM     20  C   UNL     1       5.596   6.087  17.417  0.00  0.00    +0.000 A 
ATOM     21  C   UNL     1       6.433   7.112  16.966  0.00  0.00    +0.000 A 
ATOM     22  C   UNL     1       7.640   7.366  17.612  0.00  0.00    +0.000 A 
ATOM     23  C   UNL     1       8.003   6.605  18.722  0.00  0.00    +0.000 A 
ATOM     24  C   UNL     1       7.166   5.580  19.177  0.00  0.00    +0.000 A 
ENDBRANCH  18  19
ENDBRANCH  17  18
ENDBRANCH  11  13
TORSDOF 3
ENDMDL
MODEL 6
REMARK VINA RESULT:      -6.9      1.761      3.982
REMARK  Name = 
REMARK  4 active torsions:
REMARK  status: ('A' for Active; 'I' for Inactive)
REMARK    1  A    between atoms: C_1  and  C_2
REMARK    2  A    between atoms: C_11  and  C_12
REMARK    3  A    between atoms: N_16  and  C_17
REMARK    4  A    between atoms: C_17  and  C_18
REMARK                            x       y       z     vdW  Elec       q    Type
REMARK                         _______ _______ _______ _____ _____    ______ ____
ROOT
ATOM      1  C   UNL     1       5.420   4.094  13.289  0.00  0.00    +0.000 C 
ATOM      2  C   UNL     1       6.422   4.643  14.273  0.00  0.00    +0.000 C 
ATOM      3  O   UNL     1       7.109   5.617  13.975  0.00  0.00    +0.000 OA
ATOM      4  N   UNL     1       6.487   4.046  15.524  0.00  0.00    +0.000 N 
ATOM      5  C   UNL     1       5.734   2.865  15.954  0.00  0.00    +0.000 C 
ATOM      6  C   UNL     1       4.737   3.265  17.040  0.00  0.00    +0.000 C 
ATOM      7  N   UNL     1       5.421   4.018  18.068  0.00  0.00    +0.000 N 
ATOM      8  C   UNL     1       6.644   4.616  17.883  0.00  0.00    +0.000 A 
ATOM      9  N   UNL     1       7.044   5.098  19.039  0.00  0.00    +0.000 NA
ATOM     10  N   UNL     1       6.025   4.912  19.949  0.00  0.00    +0.000 NA
ATOM     11  C   UNL     1       5.004   4.344  19.329  0.00  0.00    +0.000 A 
ATOM     12  C   UNL     1       7.337   4.664  16.559  0.00  0.00    +0.000 C 
ENDROOT
BRANCH  11  13
ATOM     13  C   UNL     1       3.584   4.296  19.796  0.00  0.00    +0.000 C 
ATOM     14  C   UNL     1       2.877   3.034  19.302  0.00  0.00    +0.000 C 
ATOM     15  C   UNL     1       1.413   3.359  19.475  0.00  0.00    +0.000 C 
ATOM     16  C   UNL     1       1.352   4.840  19.158  0.00  0.00    +0.000 C 
ATOM     17  N   UNL     1       2.660   5.417  19.535  0.00  0.00    +0.000 NA
BRANCH  17  18
ATOM     18  C   UNL     1       3.069   6.463  18.590  0.00  0.00    +0.000 C 
BRANCH  18  19
ATOM     19  C   UNL     1       2.285   7.751  18.829  0.00  0.00    +0.000 A 
ATOM     20  C   UNL     1       1.797   8.054  20.109  0.00  0.00    +0.000 A 
ATOM     21  C   UNL     1       0.993   9.177  20.320  0.00  0.00    +0.000 A 
ATOM     22  C   UNL     1       0.670  10.016  19.257  0.00  0.00    +0.000 A 
ATOM     23  C   UNL     1       1.166   9.742  17.984  0.00  0.00    +0.000 A 
ATOM     24  C   UNL     1       1.974   8.619  17.771  0.00  0.00    +0.000 A 
ENDBRANCH  18  19
ENDBRANCH  17  18
ENDBRANCH  11  13
TORSDOF 3
ENDMDL
MODEL 7
REMARK VINA RESULT:      -6.8      4.378      7.269
REMARK  Name = 
REMARK  4 active torsions:
REMARK  status: ('A' for Active; 'I' for Inactive)
REMARK    1  A    between atoms: C_1  and  C_2
REMARK    2  A    between atoms: C_11  and  C_12
REMARK    3  A    between atoms: N_16  and  C_17
REMARK    4  A    between atoms: C_17  and  C_18
REMARK                            x       y       z     vdW  Elec       q    Type
REMARK                         _______ _______ _______ _____ _____    ______ ____
ROOT
ATOM      1  C   UNL     1       4.996   6.410  16.682  0.00  0.00    +0.000 C 
ATOM      2  C   UNL     1       4.494   6.153  18.081  0.00  0.00    +0.000 C 
ATOM      3  O   UNL     1       5.242   5.666  18.925  0.00  0.00    +0.000 OA
ATOM      4  N   UNL     1       3.195   6.539  18.379  0.00  0.00    +0.000 N 
ATOM      5  C   UNL     1       2.224   7.094  17.432  0.00  0.00    +0.000 C 
ATOM      6  C   UNL     1       1.928   8.547  17.799  0.00  0.00    +0.000 C 
ATOM      7  N   UNL     1       1.596   8.631  19.204  0.00  0.00    +0.000 N 
ATOM      8  C   UNL     1       1.904   7.650  20.116  0.00  0.00    +0.000 A 
ATOM      9  N   UNL     1       1.351   7.969  21.265  0.00  0.00    +0.000 NA
ATOM     10  N   UNL     1       0.780   9.216  21.125  0.00  0.00    +0.000 NA
ATOM     11  C   UNL     1       1.016   9.655  19.901  0.00  0.00    +0.000 A 
ATOM     12  C   UNL     1       2.734   6.453  19.777  0.00  0.00    +0.000 C 
ENDROOT
BRANCH  11  13
ATOM     13  C   UNL     1       0.926  11.068  19.419  0.00  0.00    +0.000 C 
ATOM     14  C   UNL     1       1.469  12.048  20.459  0.00  0.00    +0.000 C 
ATOM     15  C   UNL     1       0.911  13.379  20.016  0.00  0.00    +0.000 C 
ATOM     16  C   UNL     1      -0.455  13.012  19.471  0.00  0.00    +0.000 C 
ATOM     17  N   UNL     1      -0.357  11.630  18.952  0.00  0.00    +0.000 NA
BRANCH  17  18
ATOM     18  C   UNL     1      -1.591  10.880  19.207  0.00  0.00    +0.000 C 
BRANCH  18  19
ATOM     19  C   UNL     1      -2.420  10.742  17.933  0.00  0.00    +0.000 A 
ATOM     20  C   UNL     1      -1.947   9.968  16.862  0.00  0.00    +0.000 A 
ATOM     21  C   UNL     1      -2.646   9.917  15.653  0.00  0.00    +0.000 A 
ATOM     22  C   UNL     1      -3.831  10.633  15.499  0.00  0.00    +0.000 A 
ATOM     23  C   UNL     1      -4.326  11.387  16.561  0.00  0.00    +0.000 A 
ATOM     24  C   UNL     1      -3.629  11.438  17.772  0.00  0.00    +0.000 A 
ENDBRANCH  18  19
ENDBRANCH  17  18
ENDBRANCH  11  13
TORSDOF 3
ENDMDL
MODEL 8
REMARK VINA RESULT:      -6.7      4.454      7.396
REMARK  Name = 
REMARK  4 active torsions:
REMARK  status: ('A' for Active; 'I' for Inactive)
REMARK    1  A    between atoms: C_1  and  C_2
REMARK    2  A    between atoms: C_11  and  C_12
REMARK    3  A    between atoms: N_16  and  C_17
REMARK    4  A    between atoms: C_17  and  C_18
REMARK                            x       y       z     vdW  Elec       q    Type
REMARK                         _______ _______ _______ _____ _____    ______ ____
ROOT
ATOM      1  C   UNL     1       4.955   6.228  17.021  0.00  0.00    +0.000 C 
ATOM      2  C   UNL     1       4.374   6.053  18.402  0.00  0.00    +0.000 C 
ATOM      3  O   UNL     1       5.057   5.570  19.302  0.00  0.00    +0.000 OA
ATOM      4  N   UNL     1       3.080   6.507  18.617  0.00  0.00    +0.000 N 
ATOM      5  C   UNL     1       2.183   7.062  17.600  0.00  0.00    +0.000 C 
ATOM      6  C   UNL     1       1.935   8.541  17.893  0.00  0.00    +0.000 C 
ATOM      7  N   UNL     1       1.539   8.698  19.274  0.00  0.00    +0.000 N 
ATOM      8  C   UNL     1       1.757   7.746  20.240  0.00  0.00    +0.000 A 
ATOM      9  N   UNL     1       1.163   8.137  21.345  0.00  0.00    +0.000 NA
ATOM     10  N   UNL     1       0.656   9.400  21.126  0.00  0.00    +0.000 NA
ATOM     11  C   UNL     1       0.972   9.776  19.899  0.00  0.00    +0.000 A 
ATOM     12  C   UNL     1       2.547   6.500  19.992  0.00  0.00    +0.000 C 
ENDROOT
BRANCH  11  13
ATOM     13  C   UNL     1       0.970  11.170  19.357  0.00  0.00    +0.000 C 
ATOM     14  C   UNL     1       1.562  12.159  20.359  0.00  0.00    +0.000 C 
ATOM     15  C   UNL     1       1.087  13.500  19.854  0.00  0.00    +0.000 C 
ATOM     16  C   UNL     1      -0.294  13.192  19.312  0.00  0.00    +0.000 C 
ATOM     17  N   UNL     1      -0.273  11.786  18.852  0.00  0.00    +0.000 NA
BRANCH  17  18
ATOM     18  C   UNL     1      -1.552  11.121  19.126  0.00  0.00    +0.000 C 
BRANCH  18  19
ATOM     19  C   UNL     1      -2.358  10.936  17.843  0.00  0.00    +0.000 A 
ATOM     20  C   UNL     1      -3.624  11.528  17.712  0.00  0.00    +0.000 A 
ATOM     21  C   UNL     1      -4.414  11.283  16.586  0.00  0.00    +0.000 A 
ATOM     22  C   UNL     1      -3.949  10.449  15.572  0.00  0.00    +0.000 A 
ATOM     23  C   UNL     1      -2.683   9.873  15.677  0.00  0.00    +0.000 A 
ATOM     24  C   UNL     1      -1.890  10.119  16.802  0.00  0.00    +0.000 A 
ENDBRANCH  18  19
ENDBRANCH  17  18
ENDBRANCH  11  13
TORSDOF 3
ENDMDL
MODEL 9
REMARK VINA RESULT:      -6.4      3.699      7.002
REMARK  Name = 
REMARK  4 active torsions:
REMARK  status: ('A' for Active; 'I' for Inactive)
REMARK    1  A    between atoms: C_1  and  C_2
REMARK    2  A    between atoms: C_11  and  C_12
REMARK    3  A    between atoms: N_16  and  C_17
REMARK    4  A    between atoms: C_17  and  C_18
REMARK                            x       y       z     vdW  Elec       q    Type
REMARK                         _______ _______ _______ _____ _____    ______ ____
ROOT
ATOM      1  C   UNL     1       0.001  10.363  17.699  0.00  0.00    +0.000 C 
ATOM      2  C   UNL     1       0.167   9.848  19.107  0.00  0.00    +0.000 C 
ATOM      3  O   UNL     1      -0.690  10.084  19.955  0.00  0.00    +0.000 OA
ATOM      4  N   UNL     1       1.280   9.064  19.377  0.00  0.00    +0.000 N 
ATOM      5  C   UNL     1       2.366   8.759  18.442  0.00  0.00    +0.000 C 
ATOM      6  C   UNL     1       2.345   7.270  18.105  0.00  0.00    +0.000 C 
ATOM      7  N   UNL     1       2.298   6.500  19.328  0.00  0.00    +0.000 N 
ATOM      8  C   UNL     1       1.917   7.024  20.540  0.00  0.00    +0.000 A 
ATOM      9  N   UNL     1       2.112   6.109  21.463  0.00  0.00    +0.000 NA
ATOM     10  N   UNL     1       2.512   4.952  20.830  0.00  0.00    +0.000 NA
ATOM     11  C   UNL     1       2.529   5.167  19.526  0.00  0.00    +0.000 A 
ATOM     12  C   UNL     1       1.383   8.413  20.696  0.00  0.00    +0.000 C 
ENDROOT
BRANCH  11  13
ATOM     13  C   UNL     1       2.530   4.133  18.444  0.00  0.00    +0.000 C 
ATOM     14  C   UNL     1       1.525   3.020  18.735  0.00  0.00    +0.000 C 
ATOM     15  C   UNL     1       1.963   1.901  17.822  0.00  0.00    +0.000 C 
ATOM     16  C   UNL     1       3.473   2.034  17.820  0.00  0.00    +0.000 C 
ATOM     17  N   UNL     1       3.781   3.465  18.035  0.00  0.00    +0.000 NA
BRANCH  17  18
ATOM     18  C   UNL     1       4.976   3.628  18.872  0.00  0.00    +0.000 C 
BRANCH  18  19
ATOM     19  C   UNL     1       5.892   4.712  18.309  0.00  0.00    +0.000 A 
ATOM     20  C   UNL     1       6.781   5.393  19.154  0.00  0.00    +0.000 A 
ATOM     21  C   UNL     1       7.551   6.456  18.673  0.00  0.00    +0.000 A 
ATOM     22  C   UNL     1       7.448   6.849  17.341  0.00  0.00    +0.000 A 
ATOM     23  C   UNL     1       6.586   6.166  16.484  0.00  0.00    +0.000 A 
ATOM     24  C   UNL     1       5.816   5.101  16.962  0.00  0.00    +0.000 A 
ENDBRANCH  18  19
ENDBRANCH  17  18
ENDBRANCH  11  13
TORSDOF 3
ENDMDL
