MODEL 1
REMARK VINA RESULT:      -7.7      0.000      0.000
REMARK  Name = 
REMARK  5 active torsions:
REMARK  status: ('A' for Active; 'I' for Inactive)
REMARK    1  A    between atoms: C_2  and  C_3
REMARK    2  A    between atoms: C_8  and  N_9
REMARK    3  A    between atoms: C_10  and  C_12
REMARK    4  A    between atoms: C_12  and  O_13
REMARK    5  A    between atoms: O_13  and  C_14
REMARK                            x       y       z     vdW  Elec       q    Type
REMARK                         _______ _______ _______ _____ _____    ______ ____
ROOT
ATOM      1  N   UNL     1       6.452   7.453  17.053  0.00  0.00    +0.000 N 
ATOM      2  C   UNL     1       7.591   7.605  17.854  0.00  0.00    +0.000 C 
ATOM      3  O   UNL     1       8.027   6.770  18.648  0.00  0.00    +0.000 OA
ATOM      4  H   UNL     1       6.121   8.270  16.551  0.00  0.00    +0.000 HD
ENDROOT
BRANCH   1  10
ATOM      5  C   UNL     1       5.945   5.207  16.069  0.00  0.00    +0.000 A 
ATOM      6  C   UNL     1       5.131   4.044  16.071  0.00  0.00    +0.000 A 
ATOM      7  C   UNL     1       4.040   3.931  16.931  0.00  0.00    +0.000 A 
ATOM      8  C   UNL     1       3.752   4.961  17.803  0.00  0.00    +0.000 A 
ATOM      9  C   UNL     1       4.573   6.092  17.837  0.00  0.00    +0.000 A 
ATOM     10  C   UNL     1       5.671   6.255  16.977  0.00  0.00    +0.000 A 
BRANCH   5  12
ATOM     11  N   UNL     1       7.752   5.383  14.218  0.00  0.00    +0.000 NA
ATOM     12  C   UNL     1       6.942   5.247  15.030  0.00  0.00    +0.000 C 
ENDBRANCH   5  12
ENDBRANCH   1  10
BRANCH   2  13
ATOM     13  C   UNL     1       8.304   8.946  17.742  0.00  0.00    +0.000 C 
BRANCH  13  14
ATOM     14  O   UNL     1       8.726   9.312  19.047  0.00  0.00    +0.000 OA
BRANCH  14  15
ATOM     15  C   UNL     1       9.451  10.464  19.188  0.00  0.00    +0.000 A 
ATOM     16  C   UNL     1       9.901  11.015  20.402  0.00  0.00    +0.000 A 
ATOM     17  C   UNL     1      10.598  12.234  20.415  0.00  0.00    +0.000 A 
ATOM     18  C   UNL     1      10.822  12.865  19.212  0.00  0.00    +0.000 A 
ATOM     19  C   UNL     1      10.404  12.317  18.024  0.00  0.00    +0.000 A 
ATOM     20  C   UNL     1       9.725  11.118  17.982  0.00  0.00    +0.000 A 
ATOM     21  O   UNL     1      10.731  13.086  16.952  0.00  0.00    +0.000 OA
ATOM     22  C   UNL     1      11.331  14.223  17.609  0.00  0.00    +0.000 C 
ATOM     23  O   UNL     1      11.458  14.054  19.037  0.00  0.00    +0.000 OA
ENDBRANCH  14  15
ENDBRANCH  13  14
ENDBRANCH   2  13
TORSDOF 5
ENDMDL
MODEL 2
REMARK VINA RESULT:      -7.4      5.990      8.273
REMARK  Name = 
REMARK  5 active torsions:
REMARK  status: ('A' for Active; 'I' for Inactive)
REMARK    1  A    between atoms: C_2  and  C_3
REMARK    2  A    between atoms: C_8  and  N_9
REMARK    3  A    between atoms: C_10  and  C_12
REMARK    4  A    between atoms: C_12  and  O_13
REMARK    5  A    between atoms: O_13  and  C_14
REMARK                            x       y       z     vdW  Elec       q    Type
REMARK                         _______ _______ _______ _____ _____    ______ ____
ROOT
ATOM      1  N   UNL     1       2.372   6.232  20.717  0.00  0.00    +0.000 N 
ATOM      2  C   UNL     1       1.736   4.987  20.622  0.00  0.00    +0.000 C 
ATOM      3  O   UNL     1       0.583   4.798  20.232  0.00  0.00    +0.000 OA
ATOM      4  H   UNL     1       3.271   6.262  21.189  0.00  0.00    +0.000 HD
ENDROOT
BRANCH   1  10
ATOM      5  C   UNL     1       2.050   8.046  19.024  0.00  0.00    +0.000 A 
ATOM      6  C   UNL     1       1.423   9.269  18.670  0.00  0.00    +0.000 A 
ATOM      7  C   UNL     1       0.584   9.933  19.564  0.00  0.00    +0.000 A 
ATOM      8  C   UNL     1       0.351   9.388  20.809  0.00  0.00    +0.000 A 
ATOM      9  C   UNL     1       0.931   8.163  21.151  0.00  0.00    +0.000 A 
ATOM     10  C   UNL     1       1.795   7.469  20.288  0.00  0.00    +0.000 A 
BRANCH   5  12
ATOM     11  N   UNL     1       3.842   7.187  17.358  0.00  0.00    +0.000 NA
ATOM     12  C   UNL     1       3.002   7.553  18.061  0.00  0.00    +0.000 C 
ENDBRANCH   5  12
ENDBRANCH   1  10
BRANCH   2  13
ATOM     13  C   UNL     1       2.553   3.789  21.087  0.00  0.00    +0.000 C 
BRANCH  13  14
ATOM     14  O   UNL     1       2.709   2.923  19.973  0.00  0.00    +0.000 OA
BRANCH  14  15
ATOM     15  C   UNL     1       3.522   3.331  18.951  0.00  0.00    +0.000 A 
ATOM     16  C   UNL     1       3.194   3.335  17.583  0.00  0.00    +0.000 A 
ATOM     17  C   UNL     1       4.139   3.735  16.625  0.00  0.00    +0.000 A 
ATOM     18  C   UNL     1       5.386   4.118  17.067  0.00  0.00    +0.000 A 
ATOM     19  C   UNL     1       5.701   4.137  18.403  0.00  0.00    +0.000 A 
ATOM     20  C   UNL     1       4.789   3.758  19.365  0.00  0.00    +0.000 A 
ATOM     21  O   UNL     1       6.974   4.556  18.632  0.00  0.00    +0.000 OA
ATOM     22  C   UNL     1       7.451   4.719  17.280  0.00  0.00    +0.000 C 
ATOM     23  O   UNL     1       6.426   4.514  16.285  0.00  0.00    +0.000 OA
ENDBRANCH  14  15
ENDBRANCH  13  14
ENDBRANCH   2  13
TORSDOF 5
ENDMDL
MODEL 3
REMARK VINA RESULT:      -7.3      5.825      7.691
REMARK  Name = 
REMARK  5 active torsions:
REMARK  status: ('A' for Active; 'I' for Inactive)
REMARK    1  A    between atoms: C_2  and  C_3
REMARK    2  A    between atoms: C_8  and  N_9
REMARK    3  A    between atoms: C_10  and  C_12
REMARK    4  A    between atoms: C_12  and  O_13
REMARK    5  A    between atoms: O_13  and  C_14
REMARK                            x       y       z     vdW  Elec       q    Type
REMARK                         _______ _______ _______ _____ _____    ______ ____
ROOT
ATOM      1  N   UNL     1       2.695   6.198  20.298  0.00  0.00    +0.000 N 
ATOM      2  C   UNL     1       2.345   4.947  19.772  0.00  0.00    +0.000 C 
ATOM      3  O   UNL     1       1.421   4.732  18.986  0.00  0.00    +0.000 OA
ATOM      4  H   UNL     1       3.382   6.215  21.045  0.00  0.00    +0.000 HD
ENDROOT
BRANCH   1  10
ATOM      5  C   UNL     1       2.304   8.069  18.683  0.00  0.00    +0.000 A 
ATOM      6  C   UNL     1       1.636   9.285  18.383  0.00  0.00    +0.000 A 
ATOM      7  C   UNL     1       0.785   9.886  19.309  0.00  0.00    +0.000 A 
ATOM      8  C   UNL     1       0.578   9.283  20.533  0.00  0.00    +0.000 A 
ATOM      9  C   UNL     1       1.199   8.064  20.820  0.00  0.00    +0.000 A 
ATOM     10  C   UNL     1       2.077   7.433  19.924  0.00  0.00    +0.000 A 
BRANCH   5  12
ATOM     11  N   UNL     1       4.019   7.205  16.939  0.00  0.00    +0.000 NA
ATOM     12  C   UNL     1       3.262   7.645  17.694  0.00  0.00    +0.000 C 
ENDBRANCH   5  12
ENDBRANCH   1  10
BRANCH   2  13
ATOM     13  C   UNL     1       3.169   3.766  20.269  0.00  0.00    +0.000 C 
BRANCH  13  14
ATOM     14  O   UNL     1       3.667   3.086  19.126  0.00  0.00    +0.000 OA
BRANCH  14  15
ATOM     15  C   UNL     1       4.708   3.654  18.443  0.00  0.00    +0.000 A 
ATOM     16  C   UNL     1       5.759   4.399  19.006  0.00  0.00    +0.000 A 
ATOM     17  C   UNL     1       6.745   4.971  18.187  0.00  0.00    +0.000 A 
ATOM     18  C   UNL     1       6.647   4.780  16.826  0.00  0.00    +0.000 A 
ATOM     19  C   UNL     1       5.634   4.033  16.277  0.00  0.00    +0.000 A 
ATOM     20  C   UNL     1       4.658   3.453  17.059  0.00  0.00    +0.000 A 
ATOM     21  O   UNL     1       5.721   3.955  14.922  0.00  0.00    +0.000 OA
ATOM     22  C   UNL     1       6.859   4.808  14.676  0.00  0.00    +0.000 C 
ATOM     23  O   UNL     1       7.495   5.274  15.885  0.00  0.00    +0.000 OA
ENDBRANCH  14  15
ENDBRANCH  13  14
ENDBRANCH   2  13
TORSDOF 5
ENDMDL
MODEL 4
REMARK VINA RESULT:      -7.3      5.885      7.920
REMARK  Name = 
REMARK  5 active torsions:
REMARK  status: ('A' for Active; 'I' for Inactive)
REMARK    1  A    between atoms: C_2  and  C_3
REMARK    2  A    between atoms: C_8  and  N_9
REMARK    3  A    between atoms: C_10  and  C_12
REMARK    4  A    between atoms: C_12  and  O_13
REMARK    5  A    between atoms: O_13  and  C_14
REMARK                            x       y       z     vdW  Elec       q    Type
REMARK                         _______ _______ _______ _____ _____    ______ ____
ROOT
ATOM      1  N   UNL     1       2.402   7.087  20.322  0.00  0.00    +0.000 N 
ATOM      2  C   UNL     1       2.054   5.730  20.266  0.00  0.00    +0.000 C 
ATOM      3  O   UNL     1       0.950   5.260  20.547  0.00  0.00    +0.000 OA
ATOM      4  H   UNL     1       3.382   7.323  20.205  0.00  0.00    +0.000 HD
ENDROOT
BRANCH   1  10
ATOM      5  C   UNL     1       1.075   9.113  19.691  0.00  0.00    +0.000 A 
ATOM      6  C   UNL     1       0.151  10.119  20.077  0.00  0.00    +0.000 A 
ATOM      7  C   UNL     1      -0.332  10.189  21.383  0.00  0.00    +0.000 A 
ATOM      8  C   UNL     1       0.086   9.261  22.313  0.00  0.00    +0.000 A 
ATOM      9  C   UNL     1       0.963   8.242  21.931  0.00  0.00    +0.000 A 
ATOM     10  C   UNL     1       1.488   8.143  20.632  0.00  0.00    +0.000 A 
BRANCH   5  12
ATOM     11  N   UNL     1       2.105   9.411  17.330  0.00  0.00    +0.000 NA
ATOM     12  C   UNL     1       1.599   9.252  18.356  0.00  0.00    +0.000 C 
ENDBRANCH   5  12
ENDBRANCH   1  10
BRANCH   2  13
ATOM     13  C   UNL     1       3.171   4.777  19.862  0.00  0.00    +0.000 C 
BRANCH  13  14
ATOM     14  O   UNL     1       4.393   5.495  19.947  0.00  0.00    +0.000 OA
BRANCH  14  15
ATOM     15  C   UNL     1       5.344   5.260  18.992  0.00  0.00    +0.000 A 
ATOM     16  C   UNL     1       6.735   5.394  19.159  0.00  0.00    +0.000 A 
ATOM     17  C   UNL     1       7.605   5.168  18.081  0.00  0.00    +0.000 A 
ATOM     18  C   UNL     1       7.057   4.816  16.868  0.00  0.00    +0.000 A 
ATOM     19  C   UNL     1       5.701   4.663  16.709  0.00  0.00    +0.000 A 
ATOM     20  C   UNL     1       4.825   4.870  17.753  0.00  0.00    +0.000 A 
ATOM     21  O   UNL     1       5.363   4.302  15.443  0.00  0.00    +0.000 OA
ATOM     22  C   UNL     1       6.655   4.328  14.801  0.00  0.00    +0.000 C 
ATOM     23  O   UNL     1       7.742   4.580  15.717  0.00  0.00    +0.000 OA
ENDBRANCH  14  15
ENDBRANCH  13  14
ENDBRANCH   2  13
TORSDOF 5
ENDMDL
MODEL 5
REMARK VINA RESULT:      -7.2      5.098      7.903
REMARK  Name = 
REMARK  5 active torsions:
REMARK  status: ('A' for Active; 'I' for Inactive)
REMARK    1  A    between atoms: C_2  and  C_3
REMARK    2  A    between atoms: C_8  and  N_9
REMARK    3  A    between atoms: C_10  and  C_12
REMARK    4  A    between atoms: C_12  and  O_13
REMARK    5  A    between atoms: O_13  and  C_14
REMARK                            x       y       z     vdW  Elec       q    Type
REMARK                         _______ _______ _______ _____ _____    ______ ____
ROOT
ATOM      1  N   UNL     1       6.241   5.601  15.303  0.00  0.00    +0.000 N 
ATOM      2  C   UNL     1       7.057   5.328  16.408  0.00  0.00    +0.000 C 
ATOM      3  O   UNL     1       7.782   4.340  16.539  0.00  0.00    +0.000 OA
ATOM      4  H   UNL     1       5.586   6.372  15.385  0.00  0.00    +0.000 HD
ENDROOT
BRANCH   1  10
ATOM      5  C   UNL     1       7.236   4.787  13.156  0.00  0.00    +0.000 A 
ATOM      6  C   UNL     1       7.122   3.955  12.011  0.00  0.00    +0.000 A 
ATOM      7  C   UNL     1       5.983   3.180  11.795  0.00  0.00    +0.000 A 
ATOM      8  C   UNL     1       4.954   3.213  12.714  0.00  0.00    +0.000 A 
ATOM      9  C   UNL     1       5.077   3.997  13.865  0.00  0.00    +0.000 A 
ATOM     10  C   UNL     1       6.198   4.805  14.114  0.00  0.00    +0.000 A 
BRANCH   5  12
ATOM     11  N   UNL     1       9.388   6.233  13.204  0.00  0.00    +0.000 NA
ATOM     12  C   UNL     1       8.398   5.639  13.172  0.00  0.00    +0.000 C 
ENDBRANCH   5  12
ENDBRANCH   1  10
BRANCH   2  13
ATOM     13  C   UNL     1       6.987   6.336  17.548  0.00  0.00    +0.000 C 
BRANCH  13  14
ATOM     14  O   UNL     1       6.387   5.682  18.656  0.00  0.00    +0.000 OA
BRANCH  14  15
ATOM     15  C   UNL     1       5.073   5.316  18.551  0.00  0.00    +0.000 A 
ATOM     16  C   UNL     1       4.008   6.152  18.173  0.00  0.00    +0.000 A 
ATOM     17  C   UNL     1       2.692   5.663  18.151  0.00  0.00    +0.000 A 
ATOM     18  C   UNL     1       2.483   4.350  18.510  0.00  0.00    +0.000 A 
ATOM     19  C   UNL     1       3.525   3.525  18.857  0.00  0.00    +0.000 A 
ATOM     20  C   UNL     1       4.827   3.977  18.879  0.00  0.00    +0.000 A 
ATOM     21  O   UNL     1       3.112   2.267  19.165  0.00  0.00    +0.000 OA
ATOM     22  C   UNL     1       1.681   2.418  19.053  0.00  0.00    +0.000 C 
ATOM     23  O   UNL     1       1.281   3.716  18.565  0.00  0.00    +0.000 OA
ENDBRANCH  14  15
ENDBRANCH  13  14
ENDBRANCH   2  13
TORSDOF 5
ENDMDL
MODEL 6
REMARK VINA RESULT:      -7.1      0.982      1.719
REMARK  Name = 
REMARK  5 active torsions:
REMARK  status: ('A' for Active; 'I' for Inactive)
REMARK    1  A    between atoms: C_2  and  C_3
REMARK    2  A    between atoms: C_8  and  N_9
REMARK    3  A    between atoms: C_10  and  C_12
REMARK    4  A    between atoms: C_12  and  O_13
REMARK    5  A    between atoms: O_13  and  C_14
REMARK                            x       y       z     vdW  Elec       q    Type
REMARK                         _______ _______ _______ _____ _____    ______ ____
ROOT
ATOM      1  N   UNL     1       6.379   7.344  17.042  0.00  0.00    +0.000 N 
ATOM      2  C   UNL     1       7.532   7.605  17.794  0.00  0.00    +0.000 C 
ATOM      3  O   UNL     1       8.061   6.828  18.590  0.00  0.00    +0.000 OA
ATOM      4  H   UNL     1       5.966   8.119  16.534  0.00  0.00    +0.000 HD
ENDROOT
BRANCH   1  10
ATOM      5  C   UNL     1       5.977   5.060  16.100  0.00  0.00    +0.000 A 
ATOM      6  C   UNL     1       5.260   3.837  16.164  0.00  0.00    +0.000 A 
ATOM      7  C   UNL     1       4.250   3.643  17.105  0.00  0.00    +0.000 A 
ATOM      8  C   UNL     1       3.949   4.652  17.996  0.00  0.00    +0.000 A 
ATOM      9  C   UNL     1       4.678   5.844  17.967  0.00  0.00    +0.000 A 
ATOM     10  C   UNL     1       5.691   6.088  17.026  0.00  0.00    +0.000 A 
BRANCH   5  12
ATOM     11  N   UNL     1       7.692   5.227  14.161  0.00  0.00    +0.000 NA
ATOM     12  C   UNL     1       6.886   5.172  14.987  0.00  0.00    +0.000 C 
ENDBRANCH   5  12
ENDBRANCH   1  10
BRANCH   2  13
ATOM     13  C   UNL     1       8.134   8.993  17.621  0.00  0.00    +0.000 C 
BRANCH  13  14
ATOM     14  O   UNL     1       8.884   9.279  18.792  0.00  0.00    +0.000 OA
BRANCH  14  15
ATOM     15  C   UNL     1       9.366  10.549  18.953  0.00  0.00    +0.000 A 
ATOM     16  C   UNL     1      10.030  11.313  17.977  0.00  0.00    +0.000 A 
ATOM     17  C   UNL     1      10.520  12.592  18.285  0.00  0.00    +0.000 A 
ATOM     18  C   UNL     1      10.331  13.067  19.564  0.00  0.00    +0.000 A 
ATOM     19  C   UNL     1       9.662  12.332  20.512  0.00  0.00    +0.000 A 
ATOM     20  C   UNL     1       9.164  11.078  20.234  0.00  0.00    +0.000 A 
ATOM     21  O   UNL     1       9.572  12.980  21.703  0.00  0.00    +0.000 OA
ATOM     22  C   UNL     1      10.333  14.173  21.420  0.00  0.00    +0.000 C 
ATOM     23  O   UNL     1      10.753  14.267  20.042  0.00  0.00    +0.000 OA
ENDBRANCH  14  15
ENDBRANCH  13  14
ENDBRANCH   2  13
TORSDOF 5
ENDMDL
MODEL 7
REMARK VINA RESULT:      -7.1      5.175      8.027
REMARK  Name = 
REMARK  5 active torsions:
REMARK  status: ('A' for Active; 'I' for Inactive)
REMARK    1  A    between atoms: C_2  and  C_3
REMARK    2  A    between atoms: C_8  and  N_9
REMARK    3  A    between atoms: C_10  and  C_12
REMARK    4  A    between atoms: C_12  and  O_13
REMARK    5  A    between atoms: O_13  and  C_14
REMARK                            x       y       z     vdW  Elec       q    Type
REMARK                         _______ _______ _______ _____ _____    ______ ____
ROOT
ATOM      1  N   UNL     1       6.133   5.513  15.104  0.00  0.00    +0.000 N 
ATOM      2  C   UNL     1       6.936   5.304  16.233  0.00  0.00    +0.000 C 
ATOM      3  O   UNL     1       7.714   4.363  16.397  0.00  0.00    +0.000 OA
ATOM      4  H   UNL     1       5.433   6.245  15.157  0.00  0.00    +0.000 HD
ENDROOT
BRANCH   1  10
ATOM      5  C   UNL     1       7.249   4.700  13.016  0.00  0.00    +0.000 A 
ATOM      6  C   UNL     1       7.213   3.850  11.880  0.00  0.00    +0.000 A 
ATOM      7  C   UNL     1       6.109   3.037  11.625  0.00  0.00    +0.000 A 
ATOM      8  C   UNL     1       5.039   3.051  12.496  0.00  0.00    +0.000 A 
ATOM      9  C   UNL     1       5.085   3.854  13.639  0.00  0.00    +0.000 A 
ATOM     10  C   UNL     1       6.169   4.700  13.926  0.00  0.00    +0.000 A 
BRANCH   5  12
ATOM     11  N   UNL     1       9.313   6.259  13.213  0.00  0.00    +0.000 NA
ATOM     12  C   UNL     1       8.383   5.588  13.071  0.00  0.00    +0.000 C 
ENDBRANCH   5  12
ENDBRANCH   1  10
BRANCH   2  13
ATOM     13  C   UNL     1       6.776   6.322  17.355  0.00  0.00    +0.000 C 
BRANCH  13  14
ATOM     14  O   UNL     1       5.386   6.462  17.606  0.00  0.00    +0.000 OA
BRANCH  14  15
ATOM     15  C   UNL     1       4.723   5.401  18.159  0.00  0.00    +0.000 A 
ATOM     16  C   UNL     1       5.233   4.521  19.130  0.00  0.00    +0.000 A 
ATOM     17  C   UNL     1       4.463   3.437  19.583  0.00  0.00    +0.000 A 
ATOM     18  C   UNL     1       3.206   3.267  19.047  0.00  0.00    +0.000 A 
ATOM     19  C   UNL     1       2.698   4.138  18.115  0.00  0.00    +0.000 A 
ATOM     20  C   UNL     1       3.428   5.215  17.660  0.00  0.00    +0.000 A 
ATOM     21  O   UNL     1       1.441   3.803  17.721  0.00  0.00    +0.000 OA
ATOM     22  C   UNL     1       1.248   2.573  18.451  0.00  0.00    +0.000 C 
ATOM     23  O   UNL     1       2.335   2.268  19.350  0.00  0.00    +0.000 OA
ENDBRANCH  14  15
ENDBRANCH  13  14
ENDBRANCH   2  13
TORSDOF 5
ENDMDL
MODEL 8
REMARK VINA RESULT:      -7.1      1.042      2.064
REMARK  Name = 
REMARK  5 active torsions:
REMARK  status: ('A' for Active; 'I' for Inactive)
REMARK    1  A    between atoms: C_2  and  C_3
REMARK    2  A    between atoms: C_8  and  N_9
REMARK    3  A    between atoms: C_10  and  C_12
REMARK    4  A    between atoms: C_12  and  O_13
REMARK    5  A    between atoms: O_13  and  C_14
REMARK                            x       y       z     vdW  Elec       q    Type
REMARK                         _______ _______ _______ _____ _____    ______ ____
ROOT
ATOM      1  N   UNL     1       6.709   7.562  16.845  0.00  0.00    +0.000 N 
ATOM      2  C   UNL     1       7.684   7.824  17.817  0.00  0.00    +0.000 C 
ATOM      3  O   UNL     1       8.153   7.000  18.604  0.00  0.00    +0.000 OA
ATOM      4  H   UNL     1       6.306   8.357  16.362  0.00  0.00    +0.000 HD
ENDROOT
BRANCH   1  10
ATOM      5  C   UNL     1       4.851   5.885  16.879  0.00  0.00    +0.000 A 
ATOM      6  C   UNL     1       4.395   4.582  16.552  0.00  0.00    +0.000 A 
ATOM      7  C   UNL     1       5.245   3.651  15.957  0.00  0.00    +0.000 A 
ATOM      8  C   UNL     1       6.547   4.005  15.671  0.00  0.00    +0.000 A 
ATOM      9  C   UNL     1       6.992   5.300  15.951  0.00  0.00    +0.000 A 
ATOM     10  C   UNL     1       6.176   6.263  16.566  0.00  0.00    +0.000 A 
BRANCH   5  12
ATOM     11  N   UNL     1       3.141   7.243  18.279  0.00  0.00    +0.000 NA
ATOM     12  C   UNL     1       3.911   6.687  17.621  0.00  0.00    +0.000 C 
ENDBRANCH   5  12
ENDBRANCH   1  10
BRANCH   2  13
ATOM     13  C   UNL     1       8.151   9.271  17.912  0.00  0.00    +0.000 C 
BRANCH  13  14
ATOM     14  O   UNL     1       9.081   9.346  18.982  0.00  0.00    +0.000 OA
BRANCH  14  15
ATOM     15  C   UNL     1       9.553  10.580  19.337  0.00  0.00    +0.000 A 
ATOM     16  C   UNL     1       9.518  11.140  20.627  0.00  0.00    +0.000 A 
ATOM     17  C   UNL     1       9.995  12.442  20.851  0.00  0.00    +0.000 A 
ATOM     18  C   UNL     1      10.492  13.144  19.775  0.00  0.00    +0.000 A 
ATOM     19  C   UNL     1      10.548  12.590  18.520  0.00  0.00    +0.000 A 
ATOM     20  C   UNL     1      10.095  11.311  18.274  0.00  0.00    +0.000 A 
ATOM     21  O   UNL     1      11.081  13.438  17.601  0.00  0.00    +0.000 OA
ATOM     22  C   UNL     1      11.277  14.619  18.405  0.00  0.00    +0.000 C 
ATOM     23  O   UNL     1      10.975  14.414  19.802  0.00  0.00    +0.000 OA
ENDBRANCH  14  15
ENDBRANCH  13  14
ENDBRANCH   2  13
TORSDOF 5
ENDMDL
MODEL 9
REMARK VINA RESULT:      -7.0      1.096      1.096
REMARK  Name = 
REMARK  5 active torsions:
REMARK  status: ('A' for Active; 'I' for Inactive)
REMARK    1  A    between atoms: C_2  and  C_3
REMARK    2  A    between atoms: C_8  and  N_9
REMARK    3  A    between atoms: C_10  and  C_12
REMARK    4  A    between atoms: C_12  and  O_13
REMARK    5  A    between atoms: O_13  and  C_14
REMARK                            x       y       z     vdW  Elec       q    Type
REMARK                         _______ _______ _______ _____ _____    ______ ____
ROOT
ATOM      1  N   UNL     1       7.318   6.137  18.262  0.00  0.00    +0.000 N 
ATOM      2  C   UNL     1       7.419   7.472  17.848  0.00  0.00    +0.000 C 
ATOM      3  O   UNL     1       6.673   8.032  17.043  0.00  0.00    +0.000 OA
ATOM      4  H   UNL     1       8.080   5.761  18.817  0.00  0.00    +0.000 HD
ENDROOT
BRANCH   1  10
ATOM      5  C   UNL     1       6.180   4.668  16.586  0.00  0.00    +0.000 A 
ATOM      6  C   UNL     1       5.114   3.781  16.285  0.00  0.00    +0.000 A 
ATOM      7  C   UNL     1       4.126   3.497  17.227  0.00  0.00    +0.000 A 
ATOM      8  C   UNL     1       4.191   4.079  18.476  0.00  0.00    +0.000 A 
ATOM      9  C   UNL     1       5.261   4.921  18.795  0.00  0.00    +0.000 A 
ATOM     10  C   UNL     1       6.267   5.247  17.872  0.00  0.00    +0.000 A 
BRANCH   5  12
ATOM     11  N   UNL     1       7.678   5.327  14.574  0.00  0.00    +0.000 NA
ATOM     12  C   UNL     1       7.039   4.981  15.472  0.00  0.00    +0.000 C 
ENDBRANCH   5  12
ENDBRANCH   1  10
BRANCH   2  13
ATOM     13  C   UNL     1       8.588   8.258  18.427  0.00  0.00    +0.000 C 
BRANCH  13  14
ATOM     14  O   UNL     1       8.415   9.615  18.049  0.00  0.00    +0.000 OA
BRANCH  14  15
ATOM     15  C   UNL     1       9.158  10.563  18.697  0.00  0.00    +0.000 A 
ATOM     16  C   UNL     1       9.465  10.579  20.070  0.00  0.00    +0.000 A 
ATOM     17  C   UNL     1      10.201  11.639  20.623  0.00  0.00    +0.000 A 
ATOM     18  C   UNL     1      10.606  12.654  19.784  0.00  0.00    +0.000 A 
ATOM     19  C   UNL     1      10.327  12.628  18.439  0.00  0.00    +0.000 A 
ATOM     20  C   UNL     1       9.614  11.595  17.869  0.00  0.00    +0.000 A 
ATOM     21  O   UNL     1      10.822  13.712  17.785  0.00  0.00    +0.000 OA
ATOM     22  C   UNL     1      11.373  14.464  18.887  0.00  0.00    +0.000 C 
ATOM     23  O   UNL     1      11.304  13.762  20.147  0.00  0.00    +0.000 OA
ENDBRANCH  14  15
ENDBRANCH  13  14
ENDBRANCH   2  13
TORSDOF 5
ENDMDL
