MODEL 1
REMARK VINA RESULT:      -6.2      0.000      0.000
REMARK  Name = 
REMARK  11 active torsions:
REMARK  status: ('A' for Active; 'I' for Inactive)
REMARK    1  A    between atoms: C_1  and  C_2
REMARK    2  A    between atoms: C_2  and  O_3
REMARK    3  A    between atoms: O_3  and  C_4
REMARK    4  A    between atoms: C_4  and  C_6
REMARK    5  A    between atoms: C_7  and  C_8
REMARK    6  A    between atoms: C_15  and  C_16
REMARK    7  A    between atoms: C_19  and  O_20
REMARK    8  A    between atoms: O_20  and  C_21
REMARK    9  A    between atoms: C_22  and  O_23
REMARK   10  A    between atoms: O_23  and  C_24
REMARK   11  A    between atoms: C_27  and  C_28
REMARK                            x       y       z     vdW  Elec       q    Type
REMARK                         _______ _______ _______ _____ _____    ______ ____
ROOT
ATOM      1  C   UNL     1       8.515  13.870  20.553  0.00  0.00    +0.000 C 
ATOM      2  C   UNL     1       8.284  14.697  19.502  0.00  0.00    +0.000 C 
ATOM      3  C   UNL     1       9.235  14.989  18.363  0.00  0.00    +0.000 C 
ATOM      4  N   UNL     1       7.057  15.339  19.391  0.00  0.00    +0.000 N 
ATOM      5  C   UNL     1       6.037  15.253  20.315  0.00  0.00    +0.000 C 
ATOM      6  C   UNL     1       6.159  14.439  21.383  0.00  0.00    +0.000 C 
ATOM      7  C   UNL     1       5.045  14.365  22.375  0.00  0.00    +0.000 C 
ATOM      8  O   UNL     1       5.071  13.571  23.313  0.00  0.00    +0.000 OA
ATOM      9  C   UNL     1       3.918  15.362  22.248  0.00  0.00    +0.000 C 
ATOM     10  C   UNL     1       3.539  15.550  20.779  0.00  0.00    +0.000 C 
ATOM     11  C   UNL     1       4.789  16.067  20.032  0.00  0.00    +0.000 C 
ATOM     12  C   UNL     1       7.416  13.596  21.600  0.00  0.00    +0.000 C 
ATOM     13  H   UNL     1       6.931  15.963  18.596  0.00  0.00    +0.000 HD
ENDROOT
BRANCH  12  14
ATOM     14  C   UNL     1       7.926  13.661  23.039  0.00  0.00    +0.000 A 
ATOM     15  C   UNL     1       7.992  12.461  23.774  0.00  0.00    +0.000 A 
ATOM     16  F   UNL     1       7.679  11.294  23.188  0.00  0.00    +0.000 F 
ATOM     17  C   UNL     1       8.374  12.429  25.111  0.00  0.00    +0.000 A 
ATOM     18  C   UNL     1       8.693  13.615  25.758  0.00  0.00    +0.000 A 
ATOM     19  C   UNL     1       8.650  14.818  25.053  0.00  0.00    +0.000 A 
ATOM     20  C   UNL     1       8.279  14.844  23.702  0.00  0.00    +0.000 A 
ATOM     21 CL   UNL     1       8.260  16.388  22.927  0.00  0.00    +0.000 Cl
ENDBRANCH  12  14
BRANCH  10  22
ATOM     22  C   UNL     1       2.881  14.304  20.182  0.00  0.00    +0.000 A 
ATOM     23  C   UNL     1       3.028  13.946  18.840  0.00  0.00    +0.000 A 
ATOM     24  C   UNL     1       2.395  12.817  18.318  0.00  0.00    +0.000 A 
ATOM     25  C   UNL     1       1.577  12.010  19.114  0.00  0.00    +0.000 A 
ATOM     26  C   UNL     1       1.442  12.323  20.474  0.00  0.00    +0.000 A 
ATOM     27  C   UNL     1       2.082  13.472  20.985  0.00  0.00    +0.000 A 
BRANCH  25  28
ATOM     28  O   UNL     1       0.927  10.921  18.594  0.00  0.00    +0.000 OA
ATOM     29  C   UNL     1       1.767   9.881  18.098  0.00  0.00    +0.000 C 
ENDBRANCH  25  28
BRANCH  26  30
ATOM     30  O   UNL     1       0.684  11.672  21.413  0.00  0.00    +0.000 OA
ATOM     31  C   UNL     1      -0.721  11.895  21.394  0.00  0.00    +0.000 C 
ENDBRANCH  26  30
ENDBRANCH  10  22
BRANCH   1  32
ATOM     32  C   UNL     1       9.806  13.134  20.696  0.00  0.00    +0.000 C 
ATOM     33  O   UNL     1      10.906  13.631  20.860  0.00  0.00    +0.000 OA
BRANCH  32  34
ATOM     34  O   UNL     1       9.549  11.817  20.510  0.00  0.00    +0.000 OA
BRANCH  34  36
ATOM     35  C   UNL     1       9.069  10.108  18.974  0.00  0.00    +0.000 C 
ATOM     36  C   UNL     1      10.044  11.219  19.310  0.00  0.00    +0.000 C 
ENDBRANCH  34  36
ENDBRANCH  32  34
ENDBRANCH   1  32
TORSDOF 7
ENDMDL
MODEL 2
REMARK VINA RESULT:      -6.1      3.388      8.578
REMARK  Name = 
REMARK  11 active torsions:
REMARK  status: ('A' for Active; 'I' for Inactive)
REMARK    1  A    between atoms: C_1  and  C_2
REMARK    2  A    between atoms: C_2  and  O_3
REMARK    3  A    between atoms: O_3  and  C_4
REMARK    4  A    between atoms: C_4  and  C_6
REMARK    5  A    between atoms: C_7  and  C_8
REMARK    6  A    between atoms: C_15  and  C_16
REMARK    7  A    between atoms: C_19  and  O_20
REMARK    8  A    between atoms: O_20  and  C_21
REMARK    9  A    between atoms: C_22  and  O_23
REMARK   10  A    between atoms: O_23  and  C_24
REMARK   11  A    between atoms: C_27  and  C_28
REMARK                            x       y       z     vdW  Elec       q    Type
REMARK                         _______ _______ _______ _____ _____    ______ ____
ROOT
ATOM      1  C   UNL     1      -0.095  12.976  21.671  0.00  0.00    +0.000 C 
ATOM      2  C   UNL     1      -0.086  14.215  22.223  0.00  0.00    +0.000 C 
ATOM      3  C   UNL     1      -0.831  14.649  23.466  0.00  0.00    +0.000 C 
ATOM      4  N   UNL     1       0.694  15.215  21.655  0.00  0.00    +0.000 N 
ATOM      5  C   UNL     1       1.443  15.071  20.506  0.00  0.00    +0.000 C 
ATOM      6  C   UNL     1       1.518  13.871  19.894  0.00  0.00    +0.000 C 
ATOM      7  C   UNL     1       2.329  13.739  18.646  0.00  0.00    +0.000 C 
ATOM      8  O   UNL     1       2.503  12.650  18.106  0.00  0.00    +0.000 OA
ATOM      9  C   UNL     1       2.861  15.002  18.011  0.00  0.00    +0.000 C 
ATOM     10  C   UNL     1       3.374  15.961  19.085  0.00  0.00    +0.000 C 
ATOM     11  C   UNL     1       2.193  16.297  20.022  0.00  0.00    +0.000 C 
ATOM     12  C   UNL     1       0.787  12.649  20.448  0.00  0.00    +0.000 C 
ATOM     13  H   UNL     1       0.660  16.133  22.092  0.00  0.00    +0.000 HD
ENDROOT
BRANCH  12  14
ATOM     14  C   UNL     1       0.047  11.866  19.364  0.00  0.00    +0.000 A 
ATOM     15  C   UNL     1      -1.035  12.492  18.716  0.00  0.00    +0.000 A 
ATOM     16  F   UNL     1      -1.349  13.766  19.005  0.00  0.00    +0.000 F 
ATOM     17  C   UNL     1      -1.815  11.835  17.770  0.00  0.00    +0.000 A 
ATOM     18  C   UNL     1      -1.533  10.514  17.450  0.00  0.00    +0.000 A 
ATOM     19  C   UNL     1      -0.458   9.871  18.066  0.00  0.00    +0.000 A 
ATOM     20  C   UNL     1       0.333  10.541  19.009  0.00  0.00    +0.000 A 
ATOM     21 CL   UNL     1       1.637   9.649  19.708  0.00  0.00    +0.000 Cl
ENDBRANCH  12  14
BRANCH  10  22
ATOM     22  C   UNL     1       4.637  15.441  19.775  0.00  0.00    +0.000 A 
ATOM     23  C   UNL     1       4.685  15.157  21.142  0.00  0.00    +0.000 A 
ATOM     24  C   UNL     1       5.859  14.708  21.748  0.00  0.00    +0.000 A 
ATOM     25  C   UNL     1       7.037  14.540  21.014  0.00  0.00    +0.000 A 
ATOM     26  C   UNL     1       7.009  14.781  19.633  0.00  0.00    +0.000 A 
ATOM     27  C   UNL     1       5.817  15.243  19.036  0.00  0.00    +0.000 A 
BRANCH  25  28
ATOM     28  O   UNL     1       8.200  14.133  21.615  0.00  0.00    +0.000 OA
ATOM     29  C   UNL     1       8.281  12.742  21.920  0.00  0.00    +0.000 C 
ENDBRANCH  25  28
BRANCH  26  30
ATOM     30  O   UNL     1       8.050  14.689  18.744  0.00  0.00    +0.000 OA
ATOM     31  C   UNL     1       8.240  15.770  17.840  0.00  0.00    +0.000 C 
ENDBRANCH  26  30
ENDBRANCH  10  22
BRANCH   1  32
ATOM     32  C   UNL     1      -0.892  11.863  22.266  0.00  0.00    +0.000 C 
ATOM     33  O   UNL     1      -2.107  11.809  22.351  0.00  0.00    +0.000 OA
BRANCH  32  34
ATOM     34  O   UNL     1      -0.020  10.967  22.787  0.00  0.00    +0.000 OA
BRANCH  34  36
ATOM     35  C   UNL     1      -0.432   8.735  22.190  0.00  0.00    +0.000 C 
ATOM     36  C   UNL     1      -0.564   9.752  23.306  0.00  0.00    +0.000 C 
ENDBRANCH  34  36
ENDBRANCH  32  34
ENDBRANCH   1  32
TORSDOF 7
ENDMDL
MODEL 3
REMARK VINA RESULT:      -6.0      7.471     11.378
REMARK  Name = 
REMARK  11 active torsions:
REMARK  status: ('A' for Active; 'I' for Inactive)
REMARK    1  A    between atoms: C_1  and  C_2
REMARK    2  A    between atoms: C_2  and  O_3
REMARK    3  A    between atoms: O_3  and  C_4
REMARK    4  A    between atoms: C_4  and  C_6
REMARK    5  A    between atoms: C_7  and  C_8
REMARK    6  A    between atoms: C_15  and  C_16
REMARK    7  A    between atoms: C_19  and  O_20
REMARK    8  A    between atoms: O_20  and  C_21
REMARK    9  A    between atoms: C_22  and  O_23
REMARK   10  A    between atoms: O_23  and  C_24
REMARK   11  A    between atoms: C_27  and  C_28
REMARK                            x       y       z     vdW  Elec       q    Type
REMARK                         _______ _______ _______ _____ _____    ______ ____
ROOT
ATOM      1  C   UNL     1      -4.280  13.194  22.597  0.00  0.00    +0.000 C 
ATOM      2  C   UNL     1      -3.246  13.823  23.211  0.00  0.00    +0.000 C 
ATOM      3  C   UNL     1      -3.237  14.367  24.622  0.00  0.00    +0.000 C 
ATOM      4  N   UNL     1      -2.041  13.981  22.538  0.00  0.00    +0.000 N 
ATOM      5  C   UNL     1      -1.811  13.593  21.235  0.00  0.00    +0.000 C 
ATOM      6  C   UNL     1      -2.768  12.938  20.545  0.00  0.00    +0.000 C 
ATOM      7  C   UNL     1      -2.501  12.531  19.133  0.00  0.00    +0.000 C 
ATOM      8  O   UNL     1      -3.304  11.854  18.496  0.00  0.00    +0.000 OA
ATOM      9  C   UNL     1      -1.248  13.054  18.472  0.00  0.00    +0.000 C 
ATOM     10  C   UNL     1      -0.074  13.011  19.450  0.00  0.00    +0.000 C 
ATOM     11  C   UNL     1      -0.439  13.893  20.664  0.00  0.00    +0.000 C 
ATOM     12  C   UNL     1      -4.120  12.608  21.179  0.00  0.00    +0.000 C 
ATOM     13  H   UNL     1      -1.298  14.472  23.029  0.00  0.00    +0.000 HD
ENDROOT
BRANCH  12  14
ATOM     14  C   UNL     1      -5.295  12.933  20.258  0.00  0.00    +0.000 A 
ATOM     15  C   UNL     1      -6.077  11.864  19.779  0.00  0.00    +0.000 A 
ATOM     16  F   UNL     1      -5.825  10.609  20.187  0.00  0.00    +0.000 F 
ATOM     17  C   UNL     1      -7.121  12.052  18.879  0.00  0.00    +0.000 A 
ATOM     18  C   UNL     1      -7.407  13.331  18.422  0.00  0.00    +0.000 A 
ATOM     19  C   UNL     1      -6.658  14.412  18.889  0.00  0.00    +0.000 A 
ATOM     20  C   UNL     1      -5.616  14.220  19.806  0.00  0.00    +0.000 A 
ATOM     21 CL   UNL     1      -4.757  15.629  20.317  0.00  0.00    +0.000 Cl
ENDBRANCH  12  14
BRANCH  10  22
ATOM     22  C   UNL     1       0.359  11.581  19.779  0.00  0.00    +0.000 A 
ATOM     23  C   UNL     1       0.640  10.633  18.792  0.00  0.00    +0.000 A 
ATOM     24  C   UNL     1       1.008   9.329  19.124  0.00  0.00    +0.000 A 
ATOM     25  C   UNL     1       1.096   8.915  20.456  0.00  0.00    +0.000 A 
ATOM     26  C   UNL     1       0.856   9.854  21.469  0.00  0.00    +0.000 A 
ATOM     27  C   UNL     1       0.476  11.168  21.119  0.00  0.00    +0.000 A 
BRANCH  25  28
ATOM     28  O   UNL     1       1.424   7.625  20.782  0.00  0.00    +0.000 OA
ATOM     29  C   UNL     1       2.267   6.950  19.851  0.00  0.00    +0.000 C 
ENDBRANCH  25  28
BRANCH  26  30
ATOM     30  O   UNL     1       0.877   9.650  22.825  0.00  0.00    +0.000 OA
ATOM     31  C   UNL     1      -0.364   9.706  23.518  0.00  0.00    +0.000 C 
ENDBRANCH  26  30
ENDBRANCH  10  22
BRANCH   1  32
ATOM     32  C   UNL     1      -5.582  12.973  23.293  0.00  0.00    +0.000 C 
ATOM     33  O   UNL     1      -5.879  12.012  23.982  0.00  0.00    +0.000 OA
BRANCH  32  34
ATOM     34  O   UNL     1      -6.412  13.984  22.941  0.00  0.00    +0.000 OA
BRANCH  34  36
ATOM     35  C   UNL     1      -6.426  16.262  23.508  0.00  0.00    +0.000 C 
ATOM     36  C   UNL     1      -6.828  14.877  23.976  0.00  0.00    +0.000 C 
ENDBRANCH  34  36
ENDBRANCH  32  34
ENDBRANCH   1  32
TORSDOF 7
ENDMDL
MODEL 4
REMARK VINA RESULT:      -6.0      3.932      8.820
REMARK  Name = 
REMARK  11 active torsions:
REMARK  status: ('A' for Active; 'I' for Inactive)
REMARK    1  A    between atoms: C_1  and  C_2
REMARK    2  A    between atoms: C_2  and  O_3
REMARK    3  A    between atoms: O_3  and  C_4
REMARK    4  A    between atoms: C_4  and  C_6
REMARK    5  A    between atoms: C_7  and  C_8
REMARK    6  A    between atoms: C_15  and  C_16
REMARK    7  A    between atoms: C_19  and  O_20
REMARK    8  A    between atoms: O_20  and  C_21
REMARK    9  A    between atoms: C_22  and  O_23
REMARK   10  A    between atoms: O_23  and  C_24
REMARK   11  A    between atoms: C_27  and  C_28
REMARK                            x       y       z     vdW  Elec       q    Type
REMARK                         _______ _______ _______ _____ _____    ______ ____
ROOT
ATOM      1  C   UNL     1      -0.714  13.042  22.276  0.00  0.00    +0.000 C 
ATOM      2  C   UNL     1      -0.838  14.209  22.958  0.00  0.00    +0.000 C 
ATOM      3  C   UNL     1      -1.420  14.382  24.343  0.00  0.00    +0.000 C 
ATOM      4  N   UNL     1      -0.370  15.388  22.392  0.00  0.00    +0.000 N 
ATOM      5  C   UNL     1       0.177  15.492  21.130  0.00  0.00    +0.000 C 
ATOM      6  C   UNL     1       0.365  14.386  20.381  0.00  0.00    +0.000 C 
ATOM      7  C   UNL     1       0.954  14.522  19.015  0.00  0.00    +0.000 C 
ATOM      8  O   UNL     1       1.229  13.538  18.334  0.00  0.00    +0.000 OA
ATOM      9  C   UNL     1       1.121  15.913  18.452  0.00  0.00    +0.000 C 
ATOM     10  C   UNL     1       1.628  16.866  19.534  0.00  0.00    +0.000 C 
ATOM     11  C   UNL     1       0.589  16.879  20.677  0.00  0.00    +0.000 C 
ATOM     12  C   UNL     1      -0.017  13.000  20.901  0.00  0.00    +0.000 C 
ATOM     13  H   UNL     1      -0.497  16.243  22.930  0.00  0.00    +0.000 HD
ENDROOT
BRANCH  12  14
ATOM     14  C   UNL     1      -0.778  12.174  19.865  0.00  0.00    +0.000 A 
ATOM     15  C   UNL     1      -2.094  12.560  19.545  0.00  0.00    +0.000 A 
ATOM     16  F   UNL     1      -2.623  13.667  20.092  0.00  0.00    +0.000 F 
ATOM     17  C   UNL     1      -2.890  11.829  18.671  0.00  0.00    +0.000 A 
ATOM     18  C   UNL     1      -2.387  10.672  18.093  0.00  0.00    +0.000 A 
ATOM     19  C   UNL     1      -1.082  10.271  18.380  0.00  0.00    +0.000 A 
ATOM     20  C   UNL     1      -0.278  11.018  19.251  0.00  0.00    +0.000 A 
ATOM     21 CL   UNL     1       1.322  10.429  19.534  0.00  0.00    +0.000 Cl
ENDBRANCH  12  14
BRANCH  10  22
ATOM     22  C   UNL     1       3.067  16.559  19.954  0.00  0.00    +0.000 A 
ATOM     23  C   UNL     1       3.471  16.529  21.290  0.00  0.00    +0.000 A 
ATOM     24  C   UNL     1       4.797  16.271  21.641  0.00  0.00    +0.000 A 
ATOM     25  C   UNL     1       5.775  16.047  20.668  0.00  0.00    +0.000 A 
ATOM     26  C   UNL     1       5.392  16.033  19.319  0.00  0.00    +0.000 A 
ATOM     27  C   UNL     1       4.049  16.304  18.980  0.00  0.00    +0.000 A 
BRANCH  25  28
ATOM     28  O   UNL     1       7.084  15.827  21.010  0.00  0.00    +0.000 OA
ATOM     29  C   UNL     1       7.330  14.659  21.790  0.00  0.00    +0.000 C 
ENDBRANCH  25  28
BRANCH  26  30
ATOM     30  O   UNL     1       6.193  15.847  18.221  0.00  0.00    +0.000 OA
ATOM     31  C   UNL     1       6.396  14.512  17.775  0.00  0.00    +0.000 C 
ENDBRANCH  26  30
ENDBRANCH  10  22
BRANCH   1  32
ATOM     32  C   UNL     1      -1.173  11.747  22.859  0.00  0.00    +0.000 C 
ATOM     33  O   UNL     1      -2.296  11.491  23.258  0.00  0.00    +0.000 OA
BRANCH  32  34
ATOM     34  O   UNL     1      -0.092  10.937  22.958  0.00  0.00    +0.000 OA
BRANCH  34  36
ATOM     35  C   UNL     1      -0.401   8.777  22.090  0.00  0.00    +0.000 C 
ATOM     36  C   UNL     1      -0.323   9.587  23.368  0.00  0.00    +0.000 C 
ENDBRANCH  34  36
ENDBRANCH  32  34
ENDBRANCH   1  32
TORSDOF 7
ENDMDL
MODEL 5
REMARK VINA RESULT:      -6.0      4.113      8.813
REMARK  Name = 
REMARK  11 active torsions:
REMARK  status: ('A' for Active; 'I' for Inactive)
REMARK    1  A    between atoms: C_1  and  C_2
REMARK    2  A    between atoms: C_2  and  O_3
REMARK    3  A    between atoms: O_3  and  C_4
REMARK    4  A    between atoms: C_4  and  C_6
REMARK    5  A    between atoms: C_7  and  C_8
REMARK    6  A    between atoms: C_15  and  C_16
REMARK    7  A    between atoms: C_19  and  O_20
REMARK    8  A    between atoms: O_20  and  C_21
REMARK    9  A    between atoms: C_22  and  O_23
REMARK   10  A    between atoms: O_23  and  C_24
REMARK   11  A    between atoms: C_27  and  C_28
REMARK                            x       y       z     vdW  Elec       q    Type
REMARK                         _______ _______ _______ _____ _____    ______ ____
ROOT
ATOM      1  C   UNL     1      -0.875  13.019  22.370  0.00  0.00    +0.000 C 
ATOM      2  C   UNL     1      -1.095  14.174  23.048  0.00  0.00    +0.000 C 
ATOM      3  C   UNL     1      -1.691  14.302  24.432  0.00  0.00    +0.000 C 
ATOM      4  N   UNL     1      -0.725  15.386  22.479  0.00  0.00    +0.000 N 
ATOM      5  C   UNL     1      -0.186  15.531  21.218  0.00  0.00    +0.000 C 
ATOM      6  C   UNL     1       0.094  14.441  20.473  0.00  0.00    +0.000 C 
ATOM      7  C   UNL     1       0.671  14.620  19.107  0.00  0.00    +0.000 C 
ATOM      8  O   UNL     1       1.027  13.660  18.428  0.00  0.00    +0.000 OA
ATOM      9  C   UNL     1       0.725  16.019  18.539  0.00  0.00    +0.000 C 
ATOM     10  C   UNL     1       1.151  17.014  19.619  0.00  0.00    +0.000 C 
ATOM     11  C   UNL     1       0.112  16.945  20.761  0.00  0.00    +0.000 C 
ATOM     12  C   UNL     1      -0.174  13.030  20.996  0.00  0.00    +0.000 C 
ATOM     13  H   UNL     1      -0.922  16.228  23.014  0.00  0.00    +0.000 HD
ENDROOT
BRANCH  12  14
ATOM     14  C   UNL     1      -0.864  12.141  19.962  0.00  0.00    +0.000 A 
ATOM     15  C   UNL     1      -0.110  11.110  19.366  0.00  0.00    +0.000 A 
ATOM     16  F   UNL     1       1.154  10.886  19.759  0.00  0.00    +0.000 F 
ATOM     17  C   UNL     1      -0.628  10.297  18.363  0.00  0.00    +0.000 A 
ATOM     18  C   UNL     1      -1.926  10.503  17.919  0.00  0.00    +0.000 A 
ATOM     19  C   UNL     1      -2.702  11.507  18.499  0.00  0.00    +0.000 A 
ATOM     20  C   UNL     1      -2.181  12.316  19.519  0.00  0.00    +0.000 A 
ATOM     21 CL   UNL     1      -3.230  13.527  20.166  0.00  0.00    +0.000 Cl
ENDBRANCH  12  14
BRANCH  10  22
ATOM     22  C   UNL     1       2.610  16.827  20.042  0.00  0.00    +0.000 A 
ATOM     23  C   UNL     1       3.035  16.975  21.364  0.00  0.00    +0.000 A 
ATOM     24  C   UNL     1       4.377  16.822  21.714  0.00  0.00    +0.000 A 
ATOM     25  C   UNL     1       5.350  16.531  20.754  0.00  0.00    +0.000 A 
ATOM     26  C   UNL     1       4.947  16.339  19.425  0.00  0.00    +0.000 A 
ATOM     27  C   UNL     1       3.588  16.505  19.084  0.00  0.00    +0.000 A 
BRANCH  25  28
ATOM     28  O   UNL     1       6.673  16.415  21.092  0.00  0.00    +0.000 OA
ATOM     29  C   UNL     1       7.098  15.111  21.483  0.00  0.00    +0.000 C 
ENDBRANCH  25  28
BRANCH  26  30
ATOM     30  O   UNL     1       5.739  16.062  18.340  0.00  0.00    +0.000 OA
ATOM     31  C   UNL     1       5.761  14.721  17.868  0.00  0.00    +0.000 C 
ENDBRANCH  26  30
ENDBRANCH  10  22
BRANCH   1  32
ATOM     32  C   UNL     1      -1.227  11.692  22.956  0.00  0.00    +0.000 C 
ATOM     33  O   UNL     1      -2.315  11.362  23.395  0.00  0.00    +0.000 OA
BRANCH  32  34
ATOM     34  O   UNL     1      -0.094  10.952  23.006  0.00  0.00    +0.000 OA
BRANCH  34  36
ATOM     35  C   UNL     1      -0.290   8.835  22.010  0.00  0.00    +0.000 C 
ATOM     36  C   UNL     1      -0.231   9.569  23.335  0.00  0.00    +0.000 C 
ENDBRANCH  34  36
ENDBRANCH  32  34
ENDBRANCH   1  32
TORSDOF 7
ENDMDL
MODEL 6
REMARK VINA RESULT:      -6.0      4.373      7.327
REMARK  Name = 
REMARK  11 active torsions:
REMARK  status: ('A' for Active; 'I' for Inactive)
REMARK    1  A    between atoms: C_1  and  C_2
REMARK    2  A    between atoms: C_2  and  O_3
REMARK    3  A    between atoms: O_3  and  C_4
REMARK    4  A    between atoms: C_4  and  C_6
REMARK    5  A    between atoms: C_7  and  C_8
REMARK    6  A    between atoms: C_15  and  C_16
REMARK    7  A    between atoms: C_19  and  O_20
REMARK    8  A    between atoms: O_20  and  C_21
REMARK    9  A    between atoms: C_22  and  O_23
REMARK   10  A    between atoms: O_23  and  C_24
REMARK   11  A    between atoms: C_27  and  C_28
REMARK                            x       y       z     vdW  Elec       q    Type
REMARK                         _______ _______ _______ _____ _____    ______ ____
ROOT
ATOM      1  C   UNL     1       0.739  16.312  19.998  0.00  0.00    +0.000 C 
ATOM      2  C   UNL     1      -0.336  16.274  20.826  0.00  0.00    +0.000 C 
ATOM      3  C   UNL     1      -1.106  17.464  21.352  0.00  0.00    +0.000 C 
ATOM      4  N   UNL     1      -0.844  15.047  21.234  0.00  0.00    +0.000 N 
ATOM      5  C   UNL     1      -0.301  13.822  20.908  0.00  0.00    +0.000 C 
ATOM      6  C   UNL     1       0.755  13.752  20.072  0.00  0.00    +0.000 C 
ATOM      7  C   UNL     1       1.332  12.415  19.737  0.00  0.00    +0.000 C 
ATOM      8  O   UNL     1       2.232  12.293  18.910  0.00  0.00    +0.000 OA
ATOM      9  C   UNL     1       0.838  11.217  20.512  0.00  0.00    +0.000 C 
ATOM     10  C   UNL     1      -0.676  11.300  20.709  0.00  0.00    +0.000 C 
ATOM     11  C   UNL     1      -0.980  12.598  21.491  0.00  0.00    +0.000 C 
ATOM     12  C   UNL     1       1.374  15.011  19.466  0.00  0.00    +0.000 C 
ATOM     13  H   UNL     1      -1.641  15.064  21.867  0.00  0.00    +0.000 HD
ENDROOT
BRANCH  12  14
ATOM     14  C   UNL     1       2.900  15.011  19.543  0.00  0.00    +0.000 A 
ATOM     15  C   UNL     1       3.500  14.839  20.806  0.00  0.00    +0.000 A 
ATOM     16  F   UNL     1       2.738  14.613  21.889  0.00  0.00    +0.000 F 
ATOM     17  C   UNL     1       4.878  14.897  20.988  0.00  0.00    +0.000 A 
ATOM     18  C   UNL     1       5.701  15.141  19.897  0.00  0.00    +0.000 A 
ATOM     19  C   UNL     1       5.137  15.302  18.631  0.00  0.00    +0.000 A 
ATOM     20  C   UNL     1       3.749  15.229  18.450  0.00  0.00    +0.000 A 
ATOM     21 CL   UNL     1       3.160  15.442  16.840  0.00  0.00    +0.000 Cl
ENDBRANCH  12  14
BRANCH  10  22
ATOM     22  C   UNL     1      -1.445  11.123  19.399  0.00  0.00    +0.000 A 
ATOM     23  C   UNL     1      -0.931  10.407  18.315  0.00  0.00    +0.000 A 
ATOM     24  C   UNL     1      -1.647  10.283  17.124  0.00  0.00    +0.000 A 
ATOM     25  C   UNL     1      -2.898  10.884  16.962  0.00  0.00    +0.000 A 
ATOM     26  C   UNL     1      -3.456  11.577  18.045  0.00  0.00    +0.000 A 
ATOM     27  C   UNL     1      -2.718  11.701  19.242  0.00  0.00    +0.000 A 
BRANCH  25  28
ATOM     28  O   UNL     1      -3.586  10.792  15.780  0.00  0.00    +0.000 OA
ATOM     29  C   UNL     1      -2.917  10.096  14.730  0.00  0.00    +0.000 C 
ENDBRANCH  25  28
BRANCH  26  30
ATOM     30  O   UNL     1      -4.655  12.243  18.088  0.00  0.00    +0.000 OA
ATOM     31  C   UNL     1      -5.743  11.596  18.736  0.00  0.00    +0.000 C 
ENDBRANCH  26  30
ENDBRANCH  10  22
BRANCH   1  32
ATOM     32  C   UNL     1       1.299  17.606  19.507  0.00  0.00    +0.000 C 
ATOM     33  O   UNL     1       2.174  18.264  20.043  0.00  0.00    +0.000 OA
BRANCH  32  34
ATOM     34  O   UNL     1       0.591  17.970  18.412  0.00  0.00    +0.000 OA
BRANCH  34  36
ATOM     35  C   UNL     1       0.323  18.556  16.154  0.00  0.00    +0.000 C 
ATOM     36  C   UNL     1       1.332  18.428  17.279  0.00  0.00    +0.000 C 
ENDBRANCH  34  36
ENDBRANCH  32  34
ENDBRANCH   1  32
TORSDOF 7
ENDMDL
MODEL 7
REMARK VINA RESULT:      -5.9      3.389      8.824
REMARK  Name = 
REMARK  11 active torsions:
REMARK  status: ('A' for Active; 'I' for Inactive)
REMARK    1  A    between atoms: C_1  and  C_2
REMARK    2  A    between atoms: C_2  and  O_3
REMARK    3  A    between atoms: O_3  and  C_4
REMARK    4  A    between atoms: C_4  and  C_6
REMARK    5  A    between atoms: C_7  and  C_8
REMARK    6  A    between atoms: C_15  and  C_16
REMARK    7  A    between atoms: C_19  and  O_20
REMARK    8  A    between atoms: O_20  and  C_21
REMARK    9  A    between atoms: C_22  and  O_23
REMARK   10  A    between atoms: O_23  and  C_24
REMARK   11  A    between atoms: C_27  and  C_28
REMARK                            x       y       z     vdW  Elec       q    Type
REMARK                         _______ _______ _______ _____ _____    ______ ____
ROOT
ATOM      1  C   UNL     1      -0.059  13.145  21.797  0.00  0.00    +0.000 C 
ATOM      2  C   UNL     1      -0.027  14.410  22.288  0.00  0.00    +0.000 C 
ATOM      3  C   UNL     1      -0.753  14.914  23.516  0.00  0.00    +0.000 C 
ATOM      4  N   UNL     1       0.759  15.370  21.663  0.00  0.00    +0.000 N 
ATOM      5  C   UNL     1       1.492  15.161  20.514  0.00  0.00    +0.000 C 
ATOM      6  C   UNL     1       1.545  13.931  19.961  0.00  0.00    +0.000 C 
ATOM      7  C   UNL     1       2.340  13.728  18.713  0.00  0.00    +0.000 C 
ATOM      8  O   UNL     1       2.494  12.611  18.224  0.00  0.00    +0.000 OA
ATOM      9  C   UNL     1       2.880  14.950  18.011  0.00  0.00    +0.000 C 
ATOM     10  C   UNL     1       3.418  15.954  19.031  0.00  0.00    +0.000 C 
ATOM     11  C   UNL     1       2.252  16.351  19.963  0.00  0.00    +0.000 C 
ATOM     12  C   UNL     1       0.805  12.747  20.583  0.00  0.00    +0.000 C 
ATOM     13  H   UNL     1       0.741  16.309  22.055  0.00  0.00    +0.000 HD
ENDROOT
BRANCH  12  14
ATOM     14  C   UNL     1       0.043  11.922  19.547  0.00  0.00    +0.000 A 
ATOM     15  C   UNL     1      -0.891  12.585  18.727  0.00  0.00    +0.000 A 
ATOM     16  F   UNL     1      -1.042  13.917  18.819  0.00  0.00    +0.000 F 
ATOM     17  C   UNL     1      -1.684  11.909  17.806  0.00  0.00    +0.000 A 
ATOM     18  C   UNL     1      -1.568  10.531  17.688  0.00  0.00    +0.000 A 
ATOM     19  C   UNL     1      -0.643   9.847  18.477  0.00  0.00    +0.000 A 
ATOM     20  C   UNL     1       0.164  10.534  19.393  0.00  0.00    +0.000 A 
ATOM     21 CL   UNL     1       1.276   9.588  20.318  0.00  0.00    +0.000 Cl
ENDBRANCH  12  14
BRANCH  10  22
ATOM     22  C   UNL     1       4.682  15.452  19.732  0.00  0.00    +0.000 A 
ATOM     23  C   UNL     1       4.768  15.312  21.119  0.00  0.00    +0.000 A 
ATOM     24  C   UNL     1       5.944  14.876  21.731  0.00  0.00    +0.000 A 
ATOM     25  C   UNL     1       7.085  14.577  20.983  0.00  0.00    +0.000 A 
ATOM     26  C   UNL     1       7.017  14.672  19.585  0.00  0.00    +0.000 A 
ATOM     27  C   UNL     1       5.824  15.122  18.981  0.00  0.00    +0.000 A 
BRANCH  25  28
ATOM     28  O   UNL     1       8.251  14.181  21.586  0.00  0.00    +0.000 OA
ATOM     29  C   UNL     1       8.317  12.806  21.956  0.00  0.00    +0.000 C 
ENDBRANCH  25  28
BRANCH  26  30
ATOM     30  O   UNL     1       8.019  14.437  18.679  0.00  0.00    +0.000 OA
ATOM     31  C   UNL     1       8.733  15.563  18.182  0.00  0.00    +0.000 C 
ENDBRANCH  26  30
ENDBRANCH  10  22
BRANCH   1  32
ATOM     32  C   UNL     1      -0.863  12.073  22.455  0.00  0.00    +0.000 C 
ATOM     33  O   UNL     1      -0.430  11.154  23.127  0.00  0.00    +0.000 OA
BRANCH  32  34
ATOM     34  O   UNL     1      -2.155  12.247  22.087  0.00  0.00    +0.000 OA
BRANCH  34  36
ATOM     35  C   UNL     1      -4.242  13.164  22.649  0.00  0.00    +0.000 C 
ATOM     36  C   UNL     1      -3.135  12.245  23.127  0.00  0.00    +0.000 C 
ENDBRANCH  34  36
ENDBRANCH  32  34
ENDBRANCH   1  32
TORSDOF 7
ENDMDL
MODEL 8
REMARK VINA RESULT:      -5.9      4.707      9.047
REMARK  Name = 
REMARK  11 active torsions:
REMARK  status: ('A' for Active; 'I' for Inactive)
REMARK    1  A    between atoms: C_1  and  C_2
REMARK    2  A    between atoms: C_2  and  O_3
REMARK    3  A    between atoms: O_3  and  C_4
REMARK    4  A    between atoms: C_4  and  C_6
REMARK    5  A    between atoms: C_7  and  C_8
REMARK    6  A    between atoms: C_15  and  C_16
REMARK    7  A    between atoms: C_19  and  O_20
REMARK    8  A    between atoms: O_20  and  C_21
REMARK    9  A    between atoms: C_22  and  O_23
REMARK   10  A    between atoms: O_23  and  C_24
REMARK   11  A    between atoms: C_27  and  C_28
REMARK                            x       y       z     vdW  Elec       q    Type
REMARK                         _______ _______ _______ _____ _____    ______ ____
ROOT
ATOM      1  C   UNL     1      -1.261  13.140  22.367  0.00  0.00    +0.000 C 
ATOM      2  C   UNL     1      -1.296  14.299  23.072  0.00  0.00    +0.000 C 
ATOM      3  C   UNL     1      -1.630  14.447  24.539  0.00  0.00    +0.000 C 
ATOM      4  N   UNL     1      -0.969  15.495  22.444  0.00  0.00    +0.000 N 
ATOM      5  C   UNL     1      -0.655  15.621  21.107  0.00  0.00    +0.000 C 
ATOM      6  C   UNL     1      -0.570  14.525  20.326  0.00  0.00    +0.000 C 
ATOM      7  C   UNL     1      -0.235  14.684  18.879  0.00  0.00    +0.000 C 
ATOM      8  O   UNL     1      -0.056  13.712  18.150  0.00  0.00    +0.000 OA
ATOM      9  C   UNL     1      -0.210  16.083  18.309  0.00  0.00    +0.000 C 
ATOM     10  C   UNL     1       0.453  17.045  19.295  0.00  0.00    +0.000 C 
ATOM     11  C   UNL     1      -0.369  17.022  20.602  0.00  0.00    +0.000 C 
ATOM     12  C   UNL     1      -0.815  13.125  20.891  0.00  0.00    +0.000 C 
ATOM     13  H   UNL     1      -1.024  16.342  23.005  0.00  0.00    +0.000 HD
ENDROOT
BRANCH  12  14
ATOM     14  C   UNL     1      -1.722  12.281  19.996  0.00  0.00    +0.000 A 
ATOM     15  C   UNL     1      -1.154  11.181  19.326  0.00  0.00    +0.000 A 
ATOM     16  F   UNL     1       0.132  10.856  19.534  0.00  0.00    +0.000 F 
ATOM     17  C   UNL     1      -1.881  10.398  18.435  0.00  0.00    +0.000 A 
ATOM     18  C   UNL     1      -3.211  10.707  18.182  0.00  0.00    +0.000 A 
ATOM     19  C   UNL     1      -3.805  11.784  18.841  0.00  0.00    +0.000 A 
ATOM     20  C   UNL     1      -3.073  12.561  19.748  0.00  0.00    +0.000 A 
ATOM     21 CL   UNL     1      -3.909  13.868  20.508  0.00  0.00    +0.000 Cl
ENDBRANCH  12  14
BRANCH  10  22
ATOM     22  C   UNL     1       1.952  16.779  19.452  0.00  0.00    +0.000 A 
ATOM     23  C   UNL     1       2.790  16.532  18.363  0.00  0.00    +0.000 A 
ATOM     24  C   UNL     1       4.149  16.268  18.541  0.00  0.00    +0.000 A 
ATOM     25  C   UNL     1       4.720  16.225  19.815  0.00  0.00    +0.000 A 
ATOM     26  C   UNL     1       3.911  16.507  20.925  0.00  0.00    +0.000 A 
ATOM     27  C   UNL     1       2.537  16.764  20.731  0.00  0.00    +0.000 A 
BRANCH  25  28
ATOM     28  O   UNL     1       6.048  15.932  19.993  0.00  0.00    +0.000 OA
ATOM     29  C   UNL     1       6.710  15.369  18.862  0.00  0.00    +0.000 C 
ENDBRANCH  25  28
BRANCH  26  30
ATOM     30  O   UNL     1       4.271  16.505  22.249  0.00  0.00    +0.000 OA
ATOM     31  C   UNL     1       4.684  17.740  22.819  0.00  0.00    +0.000 C 
ENDBRANCH  26  30
ENDBRANCH  10  22
BRANCH   1  32
ATOM     32  C   UNL     1      -1.573  11.828  23.008  0.00  0.00    +0.000 C 
ATOM     33  O   UNL     1      -2.659  11.469  23.428  0.00  0.00    +0.000 OA
BRANCH  32  34
ATOM     34  O   UNL     1      -0.410  11.146  23.132  0.00  0.00    +0.000 OA
BRANCH  34  36
ATOM     35  C   UNL     1       0.853   9.310  22.393  0.00  0.00    +0.000 C 
ATOM     36  C   UNL     1      -0.470   9.724  23.005  0.00  0.00    +0.000 C 
ENDBRANCH  34  36
ENDBRANCH  32  34
ENDBRANCH   1  32
TORSDOF 7
ENDMDL
MODEL 9
REMARK VINA RESULT:      -5.9      3.466      8.447
REMARK  Name = 
REMARK  11 active torsions:
REMARK  status: ('A' for Active; 'I' for Inactive)
REMARK    1  A    between atoms: C_1  and  C_2
REMARK    2  A    between atoms: C_2  and  O_3
REMARK    3  A    between atoms: O_3  and  C_4
REMARK    4  A    between atoms: C_4  and  C_6
REMARK    5  A    between atoms: C_7  and  C_8
REMARK    6  A    between atoms: C_15  and  C_16
REMARK    7  A    between atoms: C_19  and  O_20
REMARK    8  A    between atoms: O_20  and  C_21
REMARK    9  A    between atoms: C_22  and  O_23
REMARK   10  A    between atoms: O_23  and  C_24
REMARK   11  A    between atoms: C_27  and  C_28
REMARK                            x       y       z     vdW  Elec       q    Type
REMARK                         _______ _______ _______ _____ _____    ______ ____
ROOT
ATOM      1  C   UNL     1      -0.443  13.065  22.081  0.00  0.00    +0.000 C 
ATOM      2  C   UNL     1      -0.401  14.283  22.678  0.00  0.00    +0.000 C 
ATOM      3  C   UNL     1      -1.226  14.729  23.865  0.00  0.00    +0.000 C 
ATOM      4  N   UNL     1       0.493  15.242  22.220  0.00  0.00    +0.000 N 
ATOM      5  C   UNL     1       1.332  15.082  21.137  0.00  0.00    +0.000 C 
ATOM      6  C   UNL     1       1.383  13.899  20.490  0.00  0.00    +0.000 C 
ATOM      7  C   UNL     1       2.294  13.749  19.316  0.00  0.00    +0.000 C 
ATOM      8  O   UNL     1       2.443  12.667  18.753  0.00  0.00    +0.000 OA
ATOM      9  C   UNL     1       2.965  14.990  18.778  0.00  0.00    +0.000 C 
ATOM     10  C   UNL     1       3.441  15.877  19.928  0.00  0.00    +0.000 C 
ATOM     11  C   UNL     1       2.204  16.266  20.768  0.00  0.00    +0.000 C 
ATOM     12  C   UNL     1       0.523  12.715  20.931  0.00  0.00    +0.000 C 
ATOM     13  H   UNL     1       0.481  16.147  22.686  0.00  0.00    +0.000 HD
ENDROOT
BRANCH  12  14
ATOM     14  C   UNL     1      -0.165  12.019  19.757  0.00  0.00    +0.000 A 
ATOM     15  C   UNL     1      -1.165  12.727  19.061  0.00  0.00    +0.000 A 
ATOM     16  F   UNL     1      -1.442  13.999  19.389  0.00  0.00    +0.000 F 
ATOM     17  C   UNL     1      -1.898  12.153  18.028  0.00  0.00    +0.000 A 
ATOM     18  C   UNL     1      -1.652  10.836  17.665  0.00  0.00    +0.000 A 
ATOM     19  C   UNL     1      -0.658  10.113  18.327  0.00  0.00    +0.000 A 
ATOM     20  C   UNL     1       0.087  10.700  19.359  0.00  0.00    +0.000 A 
ATOM     21 CL   UNL     1       1.292   9.714  20.108  0.00  0.00    +0.000 Cl
ENDBRANCH  12  14
BRANCH  10  22
ATOM     22  C   UNL     1       4.598  15.249  20.709  0.00  0.00    +0.000 A 
ATOM     23  C   UNL     1       5.861  15.046  20.148  0.00  0.00    +0.000 A 
ATOM     24  C   UNL     1       6.889  14.447  20.878  0.00  0.00    +0.000 A 
ATOM     25  C   UNL     1       6.691  14.015  22.192  0.00  0.00    +0.000 A 
ATOM     26  C   UNL     1       5.445  14.240  22.793  0.00  0.00    +0.000 A 
ATOM     27  C   UNL     1       4.412  14.838  22.041  0.00  0.00    +0.000 A 
BRANCH  25  28
ATOM     28  O   UNL     1       7.690  13.395  22.897  0.00  0.00    +0.000 OA
ATOM     29  C   UNL     1       7.716  11.972  22.807  0.00  0.00    +0.000 C 
ENDBRANCH  25  28
BRANCH  26  30
ATOM     30  O   UNL     1       5.046  13.883  24.057  0.00  0.00    +0.000 OA
ATOM     31  C   UNL     1       5.525  14.667  25.142  0.00  0.00    +0.000 C 
ENDBRANCH  26  30
ENDBRANCH  10  22
BRANCH   1  32
ATOM     32  C   UNL     1      -1.364  11.993  22.561  0.00  0.00    +0.000 C 
ATOM     33  O   UNL     1      -2.555  11.901  22.319  0.00  0.00    +0.000 OA
BRANCH  32  34
ATOM     34  O   UNL     1      -0.661  11.193  23.399  0.00  0.00    +0.000 OA
BRANCH  34  36
ATOM     35  C   UNL     1       0.733   9.313  23.208  0.00  0.00    +0.000 C 
ATOM     36  C   UNL     1      -0.706   9.787  23.150  0.00  0.00    +0.000 C 
ENDBRANCH  34  36
ENDBRANCH  32  34
ENDBRANCH   1  32
TORSDOF 7
ENDMDL
