MODEL 1
REMARK VINA RESULT:      -8.1      0.000      0.000
REMARK  Name = 
REMARK  8 active torsions:
REMARK  status: ('A' for Active; 'I' for Inactive)
REMARK    1  A    between atoms: N_1  and  C_2
REMARK    2  A    between atoms: C_8  and  C_9
REMARK    3  A    between atoms: C_13  and  O_14
REMARK    4  A    between atoms: O_14  and  C_15
REMARK    5  A    between atoms: C_15  and  C_16
REMARK    6  A    between atoms: N_22  and  C_23
REMARK    7  A    between atoms: C_25  and  C_26
REMARK    8  A    between atoms: C_26  and  N_27
REMARK                            x       y       z     vdW  Elec       q    Type
REMARK                         _______ _______ _______ _____ _____    ______ ____
ROOT
ATOM      1  C   UNL     1       1.700   3.606  19.551  0.00  0.00    +0.000 A 
ATOM      2  N   UNL     1       1.843   2.269  19.475  0.00  0.00    +0.000 NA
ATOM      3  C   UNL     1       2.722   1.766  18.588  0.00  0.00    +0.000 A 
ATOM      4  N   UNL     1       3.500   2.434  17.721  0.00  0.00    +0.000 NA
ATOM      5  C   UNL     1       3.340   3.766  17.834  0.00  0.00    +0.000 A 
ATOM      6  C   UNL     1       2.487   4.426  18.723  0.00  0.00    +0.000 A 
ATOM      7  C   UNL     1       2.670   5.834  18.509  0.00  0.00    +0.000 A 
ATOM      8  C   UNL     1       3.596   5.966  17.495  0.00  0.00    +0.000 A 
ATOM      9  N   UNL     1       4.007   4.724  17.103  0.00  0.00    +0.000 N 
ENDROOT
BRANCH   7  10
ATOM     10  C   UNL     1       2.102   7.014  19.151  0.00  0.00    +0.000 A 
ATOM     11  C   UNL     1       1.883   7.042  20.535  0.00  0.00    +0.000 A 
ATOM     12  C   UNL     1       1.335   8.169  21.144  0.00  0.00    +0.000 A 
ATOM     13  C   UNL     1       1.032   9.287  20.373  0.00  0.00    +0.000 A 
ATOM     14  C   UNL     1       1.222   9.272  18.993  0.00  0.00    +0.000 A 
ATOM     15  C   UNL     1       1.732   8.123  18.385  0.00  0.00    +0.000 A 
BRANCH  14  16
ATOM     16  O   UNL     1       0.905  10.436  18.348  0.00  0.00    +0.000 OA
BRANCH  16  17
ATOM     17  C   UNL     1      -0.306  11.072  18.759  0.00  0.00    +0.000 C 
BRANCH  17  18
ATOM     18  C   UNL     1      -1.367  10.785  17.713  0.00  0.00    +0.000 C 
ATOM     19  C   UNL     1      -2.332   9.608  18.014  0.00  0.00    +0.000 C 
ATOM     20  C   UNL     1      -3.459  10.471  17.412  0.00  0.00    +0.000 C 
ATOM     21  C   UNL     1      -2.611  11.708  17.772  0.00  0.00    +0.000 C 
ENDBRANCH  17  18
ENDBRANCH  16  17
ENDBRANCH  14  16
ENDBRANCH   7  10
BRANCH   9  22
ATOM     22  C   UNL     1       4.919   4.451  16.007  0.00  0.00    +0.000 C 
ATOM     23  C   UNL     1       5.567   5.681  15.321  0.00  0.00    +0.000 C 
ATOM     24  C   UNL     1       6.808   5.526  16.259  0.00  0.00    +0.000 C 
ATOM     25  C   UNL     1       6.350   4.057  16.463  0.00  0.00    +0.000 C 
BRANCH  24  26
ATOM     26  C   UNL     1       6.903   6.399  17.522  0.00  0.00    +0.000 C 
BRANCH  26  27
ATOM     27  N   UNL     1       7.874   7.489  17.354  0.00  0.00    +0.000 NA
ATOM     28  C   UNL     1       7.170   8.804  17.397  0.00  0.00    +0.000 C 
ATOM     29  C   UNL     1       8.342   9.328  18.247  0.00  0.00    +0.000 C 
ATOM     30  C   UNL     1       8.522   7.852  18.646  0.00  0.00    +0.000 C 
ENDBRANCH  26  27
ENDBRANCH  24  26
ENDBRANCH   9  22
BRANCH   1  31
ATOM     31  N   UNL     1       0.752   4.070  20.456  0.00  0.00    +0.000 N 
ATOM     32  H   UNL     1       1.072   4.928  20.893  0.00  0.00    +0.000 HD
ATOM     33  H   UNL     1       0.411   3.361  21.094  0.00  0.00    +0.000 HD
ENDBRANCH   1  31
TORSDOF 8
ENDMDL
MODEL 2
REMARK VINA RESULT:      -8.1      1.658      2.275
REMARK  Name = 
REMARK  8 active torsions:
REMARK  status: ('A' for Active; 'I' for Inactive)
REMARK    1  A    between atoms: N_1  and  C_2
REMARK    2  A    between atoms: C_8  and  C_9
REMARK    3  A    between atoms: C_13  and  O_14
REMARK    4  A    between atoms: O_14  and  C_15
REMARK    5  A    between atoms: C_15  and  C_16
REMARK    6  A    between atoms: N_22  and  C_23
REMARK    7  A    between atoms: C_25  and  C_26
REMARK    8  A    between atoms: C_26  and  N_27
REMARK                            x       y       z     vdW  Elec       q    Type
REMARK                         _______ _______ _______ _____ _____    ______ ____
ROOT
ATOM      1  C   UNL     1       1.762   3.770  19.464  0.00  0.00    +0.000 A 
ATOM      2  N   UNL     1       1.897   2.433  19.559  0.00  0.00    +0.000 NA
ATOM      3  C   UNL     1       2.880   1.834  18.860  0.00  0.00    +0.000 A 
ATOM      4  N   UNL     1       3.774   2.402  18.034  0.00  0.00    +0.000 NA
ATOM      5  C   UNL     1       3.616   3.738  17.972  0.00  0.00    +0.000 A 
ATOM      6  C   UNL     1       2.662   4.492  18.659  0.00  0.00    +0.000 A 
ATOM      7  C   UNL     1       2.888   5.867  18.312  0.00  0.00    +0.000 A 
ATOM      8  C   UNL     1       3.942   5.885  17.422  0.00  0.00    +0.000 A 
ATOM      9  N   UNL     1       4.386   4.607  17.232  0.00  0.00    +0.000 N 
ENDROOT
BRANCH   7  10
ATOM     10  C   UNL     1       2.255   7.110  18.734  0.00  0.00    +0.000 A 
ATOM     11  C   UNL     1       1.916   8.097  17.797  0.00  0.00    +0.000 A 
ATOM     12  C   UNL     1       1.316   9.287  18.206  0.00  0.00    +0.000 A 
ATOM     13  C   UNL     1       1.023   9.481  19.552  0.00  0.00    +0.000 A 
ATOM     14  C   UNL     1       1.372   8.523  20.501  0.00  0.00    +0.000 A 
ATOM     15  C   UNL     1       2.011   7.353  20.089  0.00  0.00    +0.000 A 
BRANCH  14  16
ATOM     16  O   UNL     1       1.015   8.821  21.788  0.00  0.00    +0.000 OA
BRANCH  16  17
ATOM     17  C   UNL     1      -0.348   9.197  21.991  0.00  0.00    +0.000 C 
BRANCH  17  18
ATOM     18  C   UNL     1      -0.386  10.683  22.298  0.00  0.00    +0.000 C 
ATOM     19  C   UNL     1      -1.091  11.585  21.250  0.00  0.00    +0.000 C 
ATOM     20  C   UNL     1      -1.666  12.388  22.434  0.00  0.00    +0.000 C 
ATOM     21  C   UNL     1      -1.493  11.118  23.291  0.00  0.00    +0.000 C 
ENDBRANCH  17  18
ENDBRANCH  16  17
ENDBRANCH  14  16
ENDBRANCH   7  10
BRANCH   9  22
ATOM     22  C   UNL     1       5.431   4.214  16.305  0.00  0.00    +0.000 C 
ATOM     23  C   UNL     1       5.804   5.239  15.204  0.00  0.00    +0.000 C 
ATOM     24  C   UNL     1       6.955   5.773  16.118  0.00  0.00    +0.000 C 
ATOM     25  C   UNL     1       6.869   4.411  16.859  0.00  0.00    +0.000 C 
BRANCH  24  26
ATOM     26  C   UNL     1       6.711   7.034  16.964  0.00  0.00    +0.000 C 
BRANCH  26  27
ATOM     27  N   UNL     1       7.964   7.752  17.238  0.00  0.00    +0.000 NA
ATOM     28  C   UNL     1       7.667   9.177  17.569  0.00  0.00    +0.000 C 
ATOM     29  C   UNL     1       8.735   9.074  18.672  0.00  0.00    +0.000 C 
ATOM     30  C   UNL     1       8.405   7.570  18.650  0.00  0.00    +0.000 C 
ENDBRANCH  26  27
ENDBRANCH  24  26
ENDBRANCH   9  22
BRANCH   1  31
ATOM     31  N   UNL     1       0.708   4.332  20.175  0.00  0.00    +0.000 N 
ATOM     32  H   UNL     1       1.042   4.728  21.047  0.00  0.00    +0.000 HD
ATOM     33  H   UNL     1      -0.100   3.726  20.258  0.00  0.00    +0.000 HD
ENDBRANCH   1  31
TORSDOF 8
ENDMDL
MODEL 3
REMARK VINA RESULT:      -8.0      1.487      2.604
REMARK  Name = 
REMARK  8 active torsions:
REMARK  status: ('A' for Active; 'I' for Inactive)
REMARK    1  A    between atoms: N_1  and  C_2
REMARK    2  A    between atoms: C_8  and  C_9
REMARK    3  A    between atoms: C_13  and  O_14
REMARK    4  A    between atoms: O_14  and  C_15
REMARK    5  A    between atoms: C_15  and  C_16
REMARK    6  A    between atoms: N_22  and  C_23
REMARK    7  A    between atoms: C_25  and  C_26
REMARK    8  A    between atoms: C_26  and  N_27
REMARK                            x       y       z     vdW  Elec       q    Type
REMARK                         _______ _______ _______ _____ _____    ______ ____
ROOT
ATOM      1  C   UNL     1       2.223   3.808  19.837  0.00  0.00    +0.000 A 
ATOM      2  N   UNL     1       2.577   2.508  19.823  0.00  0.00    +0.000 NA
ATOM      3  C   UNL     1       3.862   2.195  19.575  0.00  0.00    +0.000 A 
ATOM      4  N   UNL     1       4.883   3.027  19.313  0.00  0.00    +0.000 NA
ATOM      5  C   UNL     1       4.495   4.316  19.347  0.00  0.00    +0.000 A 
ATOM      6  C   UNL     1       3.208   4.787  19.616  0.00  0.00    +0.000 A 
ATOM      7  C   UNL     1       3.271   6.221  19.574  0.00  0.00    +0.000 A 
ATOM      8  C   UNL     1       4.574   6.553  19.262  0.00  0.00    +0.000 A 
ATOM      9  N   UNL     1       5.308   5.408  19.142  0.00  0.00    +0.000 N 
ENDROOT
BRANCH   7  10
ATOM     10  C   UNL     1       2.278   7.262  19.811  0.00  0.00    +0.000 A 
ATOM     11  C   UNL     1       1.605   7.345  21.038  0.00  0.00    +0.000 A 
ATOM     12  C   UNL     1       0.652   8.339  21.257  0.00  0.00    +0.000 A 
ATOM     13  C   UNL     1       0.392   9.273  20.260  0.00  0.00    +0.000 A 
ATOM     14  C   UNL     1       1.034   9.194  19.027  0.00  0.00    +0.000 A 
ATOM     15  C   UNL     1       1.955   8.171  18.799  0.00  0.00    +0.000 A 
BRANCH  14  16
ATOM     16  O   UNL     1       0.707  10.180  18.136  0.00  0.00    +0.000 OA
BRANCH  16  17
ATOM     17  C   UNL     1      -0.185  11.188  18.614  0.00  0.00    +0.000 C 
BRANCH  17  18
ATOM     18  C   UNL     1      -1.397  11.215  17.701  0.00  0.00    +0.000 C 
ATOM     19  C   UNL     1      -1.883   9.845  17.159  0.00  0.00    +0.000 C 
ATOM     20  C   UNL     1      -3.323  10.356  17.358  0.00  0.00    +0.000 C 
ATOM     21  C   UNL     1      -2.763  11.314  18.428  0.00  0.00    +0.000 C 
ENDBRANCH  17  18
ENDBRANCH  16  17
ENDBRANCH  14  16
ENDBRANCH   7  10
BRANCH   9  22
ATOM     22  C   UNL     1       6.703   5.348  18.745  0.00  0.00    +0.000 C 
ATOM     23  C   UNL     1       7.047   4.412  17.558  0.00  0.00    +0.000 C 
ATOM     24  C   UNL     1       6.929   5.632  16.587  0.00  0.00    +0.000 C 
ATOM     25  C   UNL     1       7.151   6.526  17.837  0.00  0.00    +0.000 C 
BRANCH  24  26
ATOM     26  C   UNL     1       5.617   5.845  15.813  0.00  0.00    +0.000 C 
BRANCH  26  27
ATOM     27  N   UNL     1       5.760   5.478  14.396  0.00  0.00    +0.000 NA
ATOM     28  C   UNL     1       7.136   4.959  14.145  0.00  0.00    +0.000 C 
ATOM     29  C   UNL     1       6.494   3.881  13.253  0.00  0.00    +0.000 C 
ATOM     30  C   UNL     1       5.248   4.105  14.129  0.00  0.00    +0.000 C 
ENDBRANCH  26  27
ENDBRANCH  24  26
ENDBRANCH   9  22
BRANCH   1  31
ATOM     31  N   UNL     1       0.876   4.074  20.059  0.00  0.00    +0.000 N 
ATOM     32  H   UNL     1       0.298   3.445  19.512  0.00  0.00    +0.000 HD
ATOM     33  H   UNL     1       0.635   5.055  19.989  0.00  0.00    +0.000 HD
ENDBRANCH   1  31
TORSDOF 8
ENDMDL
MODEL 4
REMARK VINA RESULT:      -7.9      1.365      1.806
REMARK  Name = 
REMARK  8 active torsions:
REMARK  status: ('A' for Active; 'I' for Inactive)
REMARK    1  A    between atoms: N_1  and  C_2
REMARK    2  A    between atoms: C_8  and  C_9
REMARK    3  A    between atoms: C_13  and  O_14
REMARK    4  A    between atoms: O_14  and  C_15
REMARK    5  A    between atoms: C_15  and  C_16
REMARK    6  A    between atoms: N_22  and  C_23
REMARK    7  A    between atoms: C_25  and  C_26
REMARK    8  A    between atoms: C_26  and  N_27
REMARK                            x       y       z     vdW  Elec       q    Type
REMARK                         _______ _______ _______ _____ _____    ______ ____
ROOT
ATOM      1  C   UNL     1       1.672   3.624  19.452  0.00  0.00    +0.000 A 
ATOM      2  N   UNL     1       1.799   2.285  19.373  0.00  0.00    +0.000 NA
ATOM      3  C   UNL     1       2.711   1.774  18.526  0.00  0.00    +0.000 A 
ATOM      4  N   UNL     1       3.538   2.437  17.700  0.00  0.00    +0.000 NA
ATOM      5  C   UNL     1       3.392   3.770  17.814  0.00  0.00    +0.000 A 
ATOM      6  C   UNL     1       2.508   4.437  18.666  0.00  0.00    +0.000 A 
ATOM      7  C   UNL     1       2.721   5.844  18.469  0.00  0.00    +0.000 A 
ATOM      8  C   UNL     1       3.695   5.968  17.501  0.00  0.00    +0.000 A 
ATOM      9  N   UNL     1       4.106   4.722  17.121  0.00  0.00    +0.000 N 
ENDROOT
BRANCH   7  10
ATOM     10  C   UNL     1       2.140   7.028  19.091  0.00  0.00    +0.000 A 
ATOM     11  C   UNL     1       1.829   7.041  20.458  0.00  0.00    +0.000 A 
ATOM     12  C   UNL     1       1.268   8.173  21.047  0.00  0.00    +0.000 A 
ATOM     13  C   UNL     1       1.047   9.309  20.276  0.00  0.00    +0.000 A 
ATOM     14  C   UNL     1       1.329   9.310  18.912  0.00  0.00    +0.000 A 
ATOM     15  C   UNL     1       1.850   8.158  18.321  0.00  0.00    +0.000 A 
BRANCH  14  16
ATOM     16  O   UNL     1       1.085  10.491  18.267  0.00  0.00    +0.000 OA
BRANCH  16  17
ATOM     17  C   UNL     1       2.160  11.431  18.250  0.00  0.00    +0.000 C 
BRANCH  17  18
ATOM     18  C   UNL     1       1.617  12.777  18.694  0.00  0.00    +0.000 C 
ATOM     19  C   UNL     1       0.113  12.822  19.074  0.00  0.00    +0.000 C 
ATOM     20  C   UNL     1       0.504  13.773  20.222  0.00  0.00    +0.000 C 
ATOM     21  C   UNL     1       1.912  13.147  20.171  0.00  0.00    +0.000 C 
ENDBRANCH  17  18
ENDBRANCH  16  17
ENDBRANCH  14  16
ENDBRANCH   7  10
BRANCH   9  22
ATOM     22  C   UNL     1       5.065   4.443  16.067  0.00  0.00    +0.000 C 
ATOM     23  C   UNL     1       5.630   5.665  15.301  0.00  0.00    +0.000 C 
ATOM     24  C   UNL     1       6.855   5.683  16.272  0.00  0.00    +0.000 C 
ATOM     25  C   UNL     1       6.510   4.200  16.580  0.00  0.00    +0.000 C 
BRANCH  24  26
ATOM     26  C   UNL     1       6.849   6.653  17.465  0.00  0.00    +0.000 C 
BRANCH  26  27
ATOM     27  N   UNL     1       7.913   7.659  17.350  0.00  0.00    +0.000 NA
ATOM     28  C   UNL     1       7.322   9.029  17.405  0.00  0.00    +0.000 C 
ATOM     29  C   UNL     1       8.508   9.432  18.299  0.00  0.00    +0.000 C 
ATOM     30  C   UNL     1       8.552   7.938  18.668  0.00  0.00    +0.000 C 
ENDBRANCH  26  27
ENDBRANCH  24  26
ENDBRANCH   9  22
BRANCH   1  31
ATOM     31  N   UNL     1       0.689   4.097  20.313  0.00  0.00    +0.000 N 
ATOM     32  H   UNL     1       0.320   3.339  20.878  0.00  0.00    +0.000 HD
ATOM     33  H   UNL     1      -0.008   4.678  19.862  0.00  0.00    +0.000 HD
ENDBRANCH   1  31
TORSDOF 8
ENDMDL
MODEL 5
REMARK VINA RESULT:      -7.8      2.157      3.368
REMARK  Name = 
REMARK  8 active torsions:
REMARK  status: ('A' for Active; 'I' for Inactive)
REMARK    1  A    between atoms: N_1  and  C_2
REMARK    2  A    between atoms: C_8  and  C_9
REMARK    3  A    between atoms: C_13  and  O_14
REMARK    4  A    between atoms: O_14  and  C_15
REMARK    5  A    between atoms: C_15  and  C_16
REMARK    6  A    between atoms: N_22  and  C_23
REMARK    7  A    between atoms: C_25  and  C_26
REMARK    8  A    between atoms: C_26  and  N_27
REMARK                            x       y       z     vdW  Elec       q    Type
REMARK                         _______ _______ _______ _____ _____    ______ ____
ROOT
ATOM      1  C   UNL     1       2.299   4.095  20.016  0.00  0.00    +0.000 A 
ATOM      2  N   UNL     1       2.627   2.819  20.295  0.00  0.00    +0.000 NA
ATOM      3  C   UNL     1       3.903   2.428  20.114  0.00  0.00    +0.000 A 
ATOM      4  N   UNL     1       4.936   3.157  19.661  0.00  0.00    +0.000 NA
ATOM      5  C   UNL     1       4.575   4.428  19.405  0.00  0.00    +0.000 A 
ATOM      6  C   UNL     1       3.300   4.976  19.570  0.00  0.00    +0.000 A 
ATOM      7  C   UNL     1       3.392   6.361  19.202  0.00  0.00    +0.000 A 
ATOM      8  C   UNL     1       4.696   6.585  18.812  0.00  0.00    +0.000 A 
ATOM      9  N   UNL     1       5.406   5.427  18.949  0.00  0.00    +0.000 N 
ENDROOT
BRANCH   7  10
ATOM     10  C   UNL     1       2.423   7.451  19.205  0.00  0.00    +0.000 A 
ATOM     11  C   UNL     1       2.129   8.152  18.027  0.00  0.00    +0.000 A 
ATOM     12  C   UNL     1       1.206   9.197  18.035  0.00  0.00    +0.000 A 
ATOM     13  C   UNL     1       0.550   9.524  19.218  0.00  0.00    +0.000 A 
ATOM     14  C   UNL     1       0.844   8.854  20.403  0.00  0.00    +0.000 A 
ATOM     15  C   UNL     1       1.800   7.837  20.395  0.00  0.00    +0.000 A 
BRANCH  14  16
ATOM     16  O   UNL     1       0.119   9.253  21.493  0.00  0.00    +0.000 OA
BRANCH  16  17
ATOM     17  C   UNL     1       0.219  10.635  21.841  0.00  0.00    +0.000 C 
BRANCH  17  18
ATOM     18  C   UNL     1      -1.178  11.228  21.816  0.00  0.00    +0.000 C 
ATOM     19  C   UNL     1      -1.625  11.991  23.091  0.00  0.00    +0.000 C 
ATOM     20  C   UNL     1      -2.305  13.011  22.157  0.00  0.00    +0.000 C 
ATOM     21  C   UNL     1      -1.302  12.581  21.069  0.00  0.00    +0.000 C 
ENDBRANCH  17  18
ENDBRANCH  16  17
ENDBRANCH  14  16
ENDBRANCH   7  10
BRANCH   9  22
ATOM     22  C   UNL     1       6.794   5.246  18.565  0.00  0.00    +0.000 C 
ATOM     23  C   UNL     1       7.066   4.303  17.365  0.00  0.00    +0.000 C 
ATOM     24  C   UNL     1       7.069   5.545  16.415  0.00  0.00    +0.000 C 
ATOM     25  C   UNL     1       7.357   6.394  17.683  0.00  0.00    +0.000 C 
BRANCH  24  26
ATOM     26  C   UNL     1       5.791   5.889  15.632  0.00  0.00    +0.000 C 
BRANCH  26  27
ATOM     27  N   UNL     1       5.886   5.464  14.228  0.00  0.00    +0.000 NA
ATOM     28  C   UNL     1       7.272   4.997  13.934  0.00  0.00    +0.000 C 
ATOM     29  C   UNL     1       6.643   3.851  13.122  0.00  0.00    +0.000 C 
ATOM     30  C   UNL     1       5.429   4.057  14.046  0.00  0.00    +0.000 C 
ENDBRANCH  26  27
ENDBRANCH  24  26
ENDBRANCH   9  22
BRANCH   1  31
ATOM     31  N   UNL     1       0.961   4.434  20.184  0.00  0.00    +0.000 N 
ATOM     32  H   UNL     1       0.366   3.768  19.703  0.00  0.00    +0.000 HD
ATOM     33  H   UNL     1       0.758   5.409  19.996  0.00  0.00    +0.000 HD
ENDBRANCH   1  31
TORSDOF 8
ENDMDL
MODEL 6
REMARK VINA RESULT:      -7.7      1.816      3.175
REMARK  Name = 
REMARK  8 active torsions:
REMARK  status: ('A' for Active; 'I' for Inactive)
REMARK    1  A    between atoms: N_1  and  C_2
REMARK    2  A    between atoms: C_8  and  C_9
REMARK    3  A    between atoms: C_13  and  O_14
REMARK    4  A    between atoms: O_14  and  C_15
REMARK    5  A    between atoms: C_15  and  C_16
REMARK    6  A    between atoms: N_22  and  C_23
REMARK    7  A    between atoms: C_25  and  C_26
REMARK    8  A    between atoms: C_26  and  N_27
REMARK                            x       y       z     vdW  Elec       q    Type
REMARK                         _______ _______ _______ _____ _____    ______ ____
ROOT
ATOM      1  C   UNL     1       2.185   3.750  19.756  0.00  0.00    +0.000 A 
ATOM      2  N   UNL     1       2.503   2.441  19.733  0.00  0.00    +0.000 NA
ATOM      3  C   UNL     1       3.784   2.094  19.507  0.00  0.00    +0.000 A 
ATOM      4  N   UNL     1       4.832   2.901  19.276  0.00  0.00    +0.000 NA
ATOM      5  C   UNL     1       4.480   4.199  19.318  0.00  0.00    +0.000 A 
ATOM      6  C   UNL     1       3.201   4.703  19.567  0.00  0.00    +0.000 A 
ATOM      7  C   UNL     1       3.305   6.136  19.545  0.00  0.00    +0.000 A 
ATOM      8  C   UNL     1       4.622   6.434  19.263  0.00  0.00    +0.000 A 
ATOM      9  N   UNL     1       5.327   5.271  19.143  0.00  0.00    +0.000 N 
ENDROOT
BRANCH   7  10
ATOM     10  C   UNL     1       2.337   7.201  19.775  0.00  0.00    +0.000 A 
ATOM     11  C   UNL     1       1.560   7.225  20.942  0.00  0.00    +0.000 A 
ATOM     12  C   UNL     1       0.631   8.242  21.155  0.00  0.00    +0.000 A 
ATOM     13  C   UNL     1       0.499   9.259  20.215  0.00  0.00    +0.000 A 
ATOM     14  C   UNL     1       1.246   9.242  19.039  0.00  0.00    +0.000 A 
ATOM     15  C   UNL     1       2.143   8.197  18.813  0.00  0.00    +0.000 A 
BRANCH  14  16
ATOM     16  O   UNL     1       1.040  10.305  18.203  0.00  0.00    +0.000 OA
BRANCH  16  17
ATOM     17  C   UNL     1       0.087  11.274  18.642  0.00  0.00    +0.000 C 
BRANCH  17  18
ATOM     18  C   UNL     1       0.800  12.607  18.779  0.00  0.00    +0.000 C 
ATOM     19  C   UNL     1       1.397  12.929  20.175  0.00  0.00    +0.000 C 
ATOM     20  C   UNL     1       2.604  13.543  19.438  0.00  0.00    +0.000 C 
ATOM     21  C   UNL     1       2.256  12.629  18.247  0.00  0.00    +0.000 C 
ENDBRANCH  17  18
ENDBRANCH  16  17
ENDBRANCH  14  16
ENDBRANCH   7  10
BRANCH   9  22
ATOM     22  C   UNL     1       6.727   5.176  18.773  0.00  0.00    +0.000 C 
ATOM     23  C   UNL     1       7.055   4.357  17.498  0.00  0.00    +0.000 C 
ATOM     24  C   UNL     1       7.029   5.681  16.666  0.00  0.00    +0.000 C 
ATOM     25  C   UNL     1       7.263   6.419  18.012  0.00  0.00    +0.000 C 
BRANCH  24  26
ATOM     26  C   UNL     1       5.754   6.051  15.891  0.00  0.00    +0.000 C 
BRANCH  26  27
ATOM     27  N   UNL     1       5.815   5.590  14.496  0.00  0.00    +0.000 NA
ATOM     28  C   UNL     1       7.176   5.053  14.201  0.00  0.00    +0.000 C 
ATOM     29  C   UNL     1       6.487   3.918  13.422  0.00  0.00    +0.000 C 
ATOM     30  C   UNL     1       5.293   4.202  14.352  0.00  0.00    +0.000 C 
ENDBRANCH  26  27
ENDBRANCH  24  26
ENDBRANCH   9  22
BRANCH   1  31
ATOM     31  N   UNL     1       0.842   4.051  19.955  0.00  0.00    +0.000 N 
ATOM     32  H   UNL     1       0.670   5.034  19.772  0.00  0.00    +0.000 HD
ATOM     33  H   UNL     1       0.468   3.702  20.830  0.00  0.00    +0.000 HD
ENDBRANCH   1  31
TORSDOF 8
ENDMDL
MODEL 7
REMARK VINA RESULT:      -7.6      1.973      2.623
REMARK  Name = 
REMARK  8 active torsions:
REMARK  status: ('A' for Active; 'I' for Inactive)
REMARK    1  A    between atoms: N_1  and  C_2
REMARK    2  A    between atoms: C_8  and  C_9
REMARK    3  A    between atoms: C_13  and  O_14
REMARK    4  A    between atoms: O_14  and  C_15
REMARK    5  A    between atoms: C_15  and  C_16
REMARK    6  A    between atoms: N_22  and  C_23
REMARK    7  A    between atoms: C_25  and  C_26
REMARK    8  A    between atoms: C_26  and  N_27
REMARK                            x       y       z     vdW  Elec       q    Type
REMARK                         _______ _______ _______ _____ _____    ______ ____
ROOT
ATOM      1  C   UNL     1       1.995   3.785  19.522  0.00  0.00    +0.000 A 
ATOM      2  N   UNL     1       2.151   2.452  19.637  0.00  0.00    +0.000 NA
ATOM      3  C   UNL     1       2.973   1.825  18.775  0.00  0.00    +0.000 A 
ATOM      4  N   UNL     1       3.678   2.359  17.763  0.00  0.00    +0.000 NA
ATOM      5  C   UNL     1       3.506   3.692  17.686  0.00  0.00    +0.000 A 
ATOM      6  C   UNL     1       2.708   4.474  18.526  0.00  0.00    +0.000 A 
ATOM      7  C   UNL     1       2.854   5.835  18.089  0.00  0.00    +0.000 A 
ATOM      8  C   UNL     1       3.704   5.816  17.003  0.00  0.00    +0.000 A 
ATOM      9  N   UNL     1       4.105   4.531  16.774  0.00  0.00    +0.000 N 
ENDROOT
BRANCH   7  10
ATOM     10  C   UNL     1       2.315   7.095  18.586  0.00  0.00    +0.000 A 
ATOM     11  C   UNL     1       2.066   8.163  17.712  0.00  0.00    +0.000 A 
ATOM     12  C   UNL     1       1.556   9.368  18.193  0.00  0.00    +0.000 A 
ATOM     13  C   UNL     1       1.264   9.499  19.547  0.00  0.00    +0.000 A 
ATOM     14  C   UNL     1       1.526   8.458  20.434  0.00  0.00    +0.000 A 
ATOM     15  C   UNL     1       2.076   7.270  19.952  0.00  0.00    +0.000 A 
BRANCH  14  16
ATOM     16  O   UNL     1       1.178   8.701  21.735  0.00  0.00    +0.000 OA
BRANCH  16  17
ATOM     17  C   UNL     1      -0.182   9.072  21.964  0.00  0.00    +0.000 C 
BRANCH  17  18
ATOM     18  C   UNL     1      -0.191  10.400  22.698  0.00  0.00    +0.000 C 
ATOM     19  C   UNL     1      -0.178  11.676  21.814  0.00  0.00    +0.000 C 
ATOM     20  C   UNL     1      -1.163  12.299  22.824  0.00  0.00    +0.000 C 
ATOM     21  C   UNL     1      -1.585  10.864  23.195  0.00  0.00    +0.000 C 
ENDBRANCH  17  18
ENDBRANCH  16  17
ENDBRANCH  14  16
ENDBRANCH   7  10
BRANCH   9  22
ATOM     22  C   UNL     1       4.941   4.100  15.668  0.00  0.00    +0.000 C 
ATOM     23  C   UNL     1       5.539   5.216  14.774  0.00  0.00    +0.000 C 
ATOM     24  C   UNL     1       6.841   5.185  15.639  0.00  0.00    +0.000 C 
ATOM     25  C   UNL     1       6.401   3.762  16.078  0.00  0.00    +0.000 C 
BRANCH  24  26
ATOM     26  C   UNL     1       7.019   6.226  16.757  0.00  0.00    +0.000 C 
BRANCH  26  27
ATOM     27  N   UNL     1       7.773   5.677  17.894  0.00  0.00    +0.000 NA
ATOM     28  C   UNL     1       8.234   6.786  18.778  0.00  0.00    +0.000 C 
ATOM     29  C   UNL     1       7.857   5.898  19.977  0.00  0.00    +0.000 C 
ATOM     30  C   UNL     1       6.868   5.243  18.995  0.00  0.00    +0.000 C 
ENDBRANCH  26  27
ENDBRANCH  24  26
ENDBRANCH   9  22
BRANCH   1  31
ATOM     31  N   UNL     1       1.105   4.376  20.412  0.00  0.00    +0.000 N 
ATOM     32  H   UNL     1       1.464   4.320  21.359  0.00  0.00    +0.000 HD
ATOM     33  H   UNL     1       0.146   4.074  20.296  0.00  0.00    +0.000 HD
ENDBRANCH   1  31
TORSDOF 8
ENDMDL
MODEL 8
REMARK VINA RESULT:      -7.6      3.758      8.553
REMARK  Name = 
REMARK  8 active torsions:
REMARK  status: ('A' for Active; 'I' for Inactive)
REMARK    1  A    between atoms: N_1  and  C_2
REMARK    2  A    between atoms: C_8  and  C_9
REMARK    3  A    between atoms: C_13  and  O_14
REMARK    4  A    between atoms: O_14  and  C_15
REMARK    5  A    between atoms: C_15  and  C_16
REMARK    6  A    between atoms: N_22  and  C_23
REMARK    7  A    between atoms: C_25  and  C_26
REMARK    8  A    between atoms: C_26  and  N_27
REMARK                            x       y       z     vdW  Elec       q    Type
REMARK                         _______ _______ _______ _____ _____    ______ ____
ROOT
ATOM      1  C   UNL     1       0.802   9.433  22.315  0.00  0.00    +0.000 A 
ATOM      2  N   UNL     1       0.147   9.965  23.366  0.00  0.00    +0.000 NA
ATOM      3  C   UNL     1      -0.781  10.912  23.133  0.00  0.00    +0.000 A 
ATOM      4  N   UNL     1      -1.154  11.435  21.954  0.00  0.00    +0.000 NA
ATOM      5  C   UNL     1      -0.489  10.872  20.927  0.00  0.00    +0.000 A 
ATOM      6  C   UNL     1       0.477   9.867  21.017  0.00  0.00    +0.000 A 
ATOM      7  C   UNL     1       0.886   9.560  19.676  0.00  0.00    +0.000 A 
ATOM      8  C   UNL     1       0.177  10.399  18.841  0.00  0.00    +0.000 A 
ATOM      9  N   UNL     1      -0.658  11.174  19.595  0.00  0.00    +0.000 N 
ENDROOT
BRANCH   7  10
ATOM     10  C   UNL     1       1.819   8.585  19.125  0.00  0.00    +0.000 A 
ATOM     11  C   UNL     1       2.449   8.810  17.892  0.00  0.00    +0.000 A 
ATOM     12  C   UNL     1       3.335   7.871  17.367  0.00  0.00    +0.000 A 
ATOM     13  C   UNL     1       3.620   6.716  18.089  0.00  0.00    +0.000 A 
ATOM     14  C   UNL     1       2.988   6.464  19.304  0.00  0.00    +0.000 A 
ATOM     15  C   UNL     1       2.070   7.388  19.803  0.00  0.00    +0.000 A 
BRANCH  14  16
ATOM     16  O   UNL     1       3.365   5.305  19.927  0.00  0.00    +0.000 OA
BRANCH  16  17
ATOM     17  C   UNL     1       3.539   4.166  19.082  0.00  0.00    +0.000 C 
BRANCH  17  18
ATOM     18  C   UNL     1       2.168   3.714  18.614  0.00  0.00    +0.000 C 
ATOM     19  C   UNL     1       2.038   2.224  18.198  0.00  0.00    +0.000 C 
ATOM     20  C   UNL     1       0.654   2.230  18.876  0.00  0.00    +0.000 C 
ATOM     21  C   UNL     1       1.160   3.396  19.748  0.00  0.00    +0.000 C 
ENDBRANCH  17  18
ENDBRANCH  16  17
ENDBRANCH  14  16
ENDBRANCH   7  10
BRANCH   9  22
ATOM     22  C   UNL     1      -1.508  12.232  19.080  0.00  0.00    +0.000 C 
ATOM     23  C   UNL     1      -1.717  12.272  17.545  0.00  0.00    +0.000 C 
ATOM     24  C   UNL     1      -3.029  11.441  17.722  0.00  0.00    +0.000 C 
ATOM     25  C   UNL     1      -3.027  11.931  19.195  0.00  0.00    +0.000 C 
BRANCH  24  26
ATOM     26  C   UNL     1      -2.985   9.919  17.502  0.00  0.00    +0.000 C 
BRANCH  26  27
ATOM     27  N   UNL     1      -3.528   9.546  16.188  0.00  0.00    +0.000 NA
ATOM     28  C   UNL     1      -4.136  10.742  15.534  0.00  0.00    +0.000 C 
ATOM     29  C   UNL     1      -3.503  10.261  14.217  0.00  0.00    +0.000 C 
ATOM     30  C   UNL     1      -2.477   9.567  15.132  0.00  0.00    +0.000 C 
ENDBRANCH  26  27
ENDBRANCH  24  26
ENDBRANCH   9  22
BRANCH   1  31
ATOM     31  N   UNL     1       1.777   8.489  22.615  0.00  0.00    +0.000 N 
ATOM     32  H   UNL     1       2.486   8.473  21.890  0.00  0.00    +0.000 HD
ATOM     33  H   UNL     1       1.406   7.584  22.876  0.00  0.00    +0.000 HD
ENDBRANCH   1  31
TORSDOF 8
ENDMDL
MODEL 9
REMARK VINA RESULT:      -7.5      1.883      2.464
REMARK  Name = 
REMARK  8 active torsions:
REMARK  status: ('A' for Active; 'I' for Inactive)
REMARK    1  A    between atoms: N_1  and  C_2
REMARK    2  A    between atoms: C_8  and  C_9
REMARK    3  A    between atoms: C_13  and  O_14
REMARK    4  A    between atoms: O_14  and  C_15
REMARK    5  A    between atoms: C_15  and  C_16
REMARK    6  A    between atoms: N_22  and  C_23
REMARK    7  A    between atoms: C_25  and  C_26
REMARK    8  A    between atoms: C_26  and  N_27
REMARK                            x       y       z     vdW  Elec       q    Type
REMARK                         _______ _______ _______ _____ _____    ______ ____
ROOT
ATOM      1  C   UNL     1       2.263   4.256  20.137  0.00  0.00    +0.000 A 
ATOM      2  N   UNL     1       2.558   2.993  20.502  0.00  0.00    +0.000 NA
ATOM      3  C   UNL     1       3.640   2.403  19.959  0.00  0.00    +0.000 A 
ATOM      4  N   UNL     1       4.495   2.910  19.056  0.00  0.00    +0.000 NA
ATOM      5  C   UNL     1       4.176   4.175  18.724  0.00  0.00    +0.000 A 
ATOM      6  C   UNL     1       3.104   4.918  19.225  0.00  0.00    +0.000 A 
ATOM      7  C   UNL     1       3.174   6.216  18.614  0.00  0.00    +0.000 A 
ATOM      8  C   UNL     1       4.259   6.197  17.762  0.00  0.00    +0.000 A 
ATOM      9  N   UNL     1       4.866   4.977  17.843  0.00  0.00    +0.000 N 
ENDROOT
BRANCH   7  10
ATOM     10  C   UNL     1       2.372   7.424  18.765  0.00  0.00    +0.000 A 
ATOM     11  C   UNL     1       2.023   8.197  17.648  0.00  0.00    +0.000 A 
ATOM     12  C   UNL     1       1.261   9.355  17.798  0.00  0.00    +0.000 A 
ATOM     13  C   UNL     1       0.818   9.727  19.063  0.00  0.00    +0.000 A 
ATOM     14  C   UNL     1       1.173   8.985  20.187  0.00  0.00    +0.000 A 
ATOM     15  C   UNL     1       1.971   7.851  20.034  0.00  0.00    +0.000 A 
BRANCH  14  16
ATOM     16  O   UNL     1       0.661   9.441  21.371  0.00  0.00    +0.000 OA
BRANCH  16  17
ATOM     17  C   UNL     1       0.651  10.858  21.546  0.00  0.00    +0.000 C 
BRANCH  17  18
ATOM     18  C   UNL     1      -0.775  11.286  21.844  0.00  0.00    +0.000 C 
ATOM     19  C   UNL     1      -1.372  10.804  23.192  0.00  0.00    +0.000 C 
ATOM     20  C   UNL     1      -2.039  12.189  23.310  0.00  0.00    +0.000 C 
ATOM     21  C   UNL     1      -0.925  12.728  22.392  0.00  0.00    +0.000 C 
ENDBRANCH  17  18
ENDBRANCH  16  17
ENDBRANCH  14  16
ENDBRANCH   7  10
BRANCH   9  22
ATOM     22  C   UNL     1       5.996   4.550  17.037  0.00  0.00    +0.000 C 
ATOM     23  C   UNL     1       6.515   5.558  15.979  0.00  0.00    +0.000 C 
ATOM     24  C   UNL     1       7.572   6.067  17.012  0.00  0.00    +0.000 C 
ATOM     25  C   UNL     1       7.369   4.712  17.744  0.00  0.00    +0.000 C 
BRANCH  24  26
ATOM     26  C   UNL     1       7.272   7.338  17.823  0.00  0.00    +0.000 C 
BRANCH  26  27
ATOM     27  N   UNL     1       8.321   8.353  17.646  0.00  0.00    +0.000 NA
ATOM     28  C   UNL     1       7.699   9.701  17.495  0.00  0.00    +0.000 C 
ATOM     29  C   UNL     1       8.817  10.246  18.399  0.00  0.00    +0.000 C 
ATOM     30  C   UNL     1       8.870   8.811  18.954  0.00  0.00    +0.000 C 
ENDBRANCH  26  27
ENDBRANCH  24  26
ENDBRANCH   9  22
BRANCH   1  31
ATOM     31  N   UNL     1       1.114   4.803  20.698  0.00  0.00    +0.000 N 
ATOM     32  H   UNL     1       0.313   4.212  20.506  0.00  0.00    +0.000 HD
ATOM     33  H   UNL     1       0.985   5.786  20.493  0.00  0.00    +0.000 HD
ENDBRANCH   1  31
TORSDOF 8
ENDMDL
