MODEL 1
REMARK VINA RESULT:      -8.8      0.000      0.000
REMARK  Name = 
REMARK  4 active torsions:
REMARK  status: ('A' for Active; 'I' for Inactive)
REMARK    1  A    between atoms: C_2  and  C_3
REMARK    2  A    between atoms: C_3  and  C_4
REMARK    3  A    between atoms: C_16  and  N_17
REMARK    4  A    between atoms: C_19  and  C_20
REMARK                            x       y       z     vdW  Elec       q    Type
REMARK                         _______ _______ _______ _____ _____    ______ ____
ROOT
ATOM      1  O   UNL     1       8.142   9.591  17.091  0.00  0.00    +0.000 OA
ATOM      2  C   UNL     1       8.234   8.727  17.967  0.00  0.00    +0.000 C 
ATOM      3  N   UNL     1       7.772   7.426  17.778  0.00  0.00    +0.000 N 
ATOM      4  C   UNL     1       7.742   6.412  18.830  0.00  0.00    +0.000 C 
ATOM      5  C   UNL     1       8.019   5.017  18.290  0.00  0.00    +0.000 C 
ATOM      6  C   UNL     1       7.143   4.664  17.090  0.00  0.00    +0.000 C 
ATOM      7  C   UNL     1       7.189   5.772  16.031  0.00  0.00    +0.000 C 
ATOM      8  C   UNL     1       6.934   7.156  16.611  0.00  0.00    +0.000 C 
ENDROOT
BRANCH   6   9
ATOM      9  N   UNL     1       5.794   4.276  17.474  0.00  0.00    +0.000 N 
ATOM     10  N   UNL     1       5.373   4.044  18.764  0.00  0.00    +0.000 NA
ATOM     11  C   UNL     1       4.136   3.688  18.592  0.00  0.00    +0.000 A 
ATOM     12  O   UNL     1       3.702   3.654  17.310  0.00  0.00    +0.000 OA
ATOM     13  C   UNL     1       4.779   4.034  16.577  0.00  0.00    +0.000 A 
ATOM     14  O   UNL     1       4.794   4.121  15.362  0.00  0.00    +0.000 OA
BRANCH  11  15
ATOM     15  C   UNL     1       3.113   3.325  19.585  0.00  0.00    +0.000 A 
ATOM     16  C   UNL     1       3.478   2.724  20.794  0.00  0.00    +0.000 A 
ATOM     17  C   UNL     1       2.499   2.437  21.753  0.00  0.00    +0.000 A 
ATOM     18  C   UNL     1       1.159   2.744  21.506  0.00  0.00    +0.000 A 
ATOM     19  C   UNL     1       0.790   3.326  20.297  0.00  0.00    +0.000 A 
ATOM     20  C   UNL     1       1.762   3.612  19.338  0.00  0.00    +0.000 A 
ENDBRANCH  11  15
ENDBRANCH   6   9
BRANCH   2  21
ATOM     21  C   UNL     1       8.899   9.067  19.295  0.00  0.00    +0.000 C 
BRANCH  21  22
ATOM     22  C   UNL     1       9.476  10.465  19.362  0.00  0.00    +0.000 A 
ATOM     23  C   UNL     1      10.139  11.041  18.253  0.00  0.00    +0.000 A 
ATOM     24  C   UNL     1      10.664  12.335  18.316  0.00  0.00    +0.000 A 
ATOM     25  C   UNL     1      10.498  13.037  19.489  0.00  0.00    +0.000 A 
ATOM     26  C   UNL     1       9.839  12.498  20.567  0.00  0.00    +0.000 A 
ATOM     27  C   UNL     1       9.310  11.224  20.534  0.00  0.00    +0.000 A 
ATOM     28  O   UNL     1       9.784  13.352  21.623  0.00  0.00    +0.000 OA
ATOM     29  C   UNL     1      10.507  14.483  21.092  0.00  0.00    +0.000 C 
ATOM     30  O   UNL     1      10.942  14.299  19.729  0.00  0.00    +0.000 OA
ENDBRANCH  21  22
ENDBRANCH   2  21
TORSDOF 4
ENDMDL
MODEL 2
REMARK VINA RESULT:      -8.8      0.791      1.656
REMARK  Name = 
REMARK  4 active torsions:
REMARK  status: ('A' for Active; 'I' for Inactive)
REMARK    1  A    between atoms: C_2  and  C_3
REMARK    2  A    between atoms: C_3  and  C_4
REMARK    3  A    between atoms: C_16  and  N_17
REMARK    4  A    between atoms: C_19  and  C_20
REMARK                            x       y       z     vdW  Elec       q    Type
REMARK                         _______ _______ _______ _____ _____    ______ ____
ROOT
ATOM      1  O   UNL     1       8.033   9.816  17.373  0.00  0.00    +0.000 OA
ATOM      2  C   UNL     1       8.199   8.912  18.197  0.00  0.00    +0.000 C 
ATOM      3  N   UNL     1       7.781   7.605  17.957  0.00  0.00    +0.000 N 
ATOM      4  C   UNL     1       7.839   6.535  18.954  0.00  0.00    +0.000 C 
ATOM      5  C   UNL     1       8.147   5.184  18.327  0.00  0.00    +0.000 C 
ATOM      6  C   UNL     1       7.232   4.858  17.149  0.00  0.00    +0.000 C 
ATOM      7  C   UNL     1       7.185   6.021  16.151  0.00  0.00    +0.000 C 
ATOM      8  C   UNL     1       6.902   7.361  16.815  0.00  0.00    +0.000 C 
ENDROOT
BRANCH   6   9
ATOM      9  N   UNL     1       5.918   4.394  17.570  0.00  0.00    +0.000 N 
ATOM     10  N   UNL     1       5.466   4.369  18.870  0.00  0.00    +0.000 NA
ATOM     11  C   UNL     1       4.286   3.841  18.742  0.00  0.00    +0.000 A 
ATOM     12  O   UNL     1       3.920   3.506  17.483  0.00  0.00    +0.000 OA
ATOM     13  C   UNL     1       4.980   3.862  16.715  0.00  0.00    +0.000 A 
ATOM     14  O   UNL     1       5.043   3.712  15.508  0.00  0.00    +0.000 OA
BRANCH  11  15
ATOM     15  C   UNL     1       3.265   3.559  19.763  0.00  0.00    +0.000 A 
ATOM     16  C   UNL     1       2.105   4.336  19.842  0.00  0.00    +0.000 A 
ATOM     17  C   UNL     1       1.117   4.019  20.782  0.00  0.00    +0.000 A 
ATOM     18  C   UNL     1       1.287   2.934  21.645  0.00  0.00    +0.000 A 
ATOM     19  C   UNL     1       2.448   2.170  21.582  0.00  0.00    +0.000 A 
ATOM     20  C   UNL     1       3.436   2.482  20.648  0.00  0.00    +0.000 A 
ENDBRANCH  11  15
ENDBRANCH   6   9
BRANCH   2  21
ATOM     21  C   UNL     1       8.910   9.209  19.510  0.00  0.00    +0.000 C 
BRANCH  21  22
ATOM     22  C   UNL     1       9.629  10.542  19.542  0.00  0.00    +0.000 A 
ATOM     23  C   UNL     1       9.495  11.423  20.640  0.00  0.00    +0.000 A 
ATOM     24  C   UNL     1      10.167  12.649  20.670  0.00  0.00    +0.000 A 
ATOM     25  C   UNL     1      10.975  12.962  19.601  0.00  0.00    +0.000 A 
ATOM     26  C   UNL     1      11.130  12.108  18.537  0.00  0.00    +0.000 A 
ATOM     27  C   UNL     1      10.482  10.891  18.480  0.00  0.00    +0.000 A 
ATOM     28  O   UNL     1      11.970  12.603  17.589  0.00  0.00    +0.000 OA
ATOM     29  C   UNL     1      12.307  13.880  18.171  0.00  0.00    +0.000 C 
ATOM     30  O   UNL     1      11.698  14.104  19.459  0.00  0.00    +0.000 OA
ENDBRANCH  21  22
ENDBRANCH   2  21
TORSDOF 4
ENDMDL
MODEL 3
REMARK VINA RESULT:      -8.7      5.988      9.161
REMARK  Name = 
REMARK  4 active torsions:
REMARK  status: ('A' for Active; 'I' for Inactive)
REMARK    1  A    between atoms: C_2  and  C_3
REMARK    2  A    between atoms: C_3  and  C_4
REMARK    3  A    between atoms: C_16  and  N_17
REMARK    4  A    between atoms: C_19  and  C_20
REMARK                            x       y       z     vdW  Elec       q    Type
REMARK                         _______ _______ _______ _____ _____    ______ ____
ROOT
ATOM      1  O   UNL     1       1.990   4.451  21.176  0.00  0.00    +0.000 OA
ATOM      2  C   UNL     1       2.062   4.939  20.045  0.00  0.00    +0.000 C 
ATOM      3  N   UNL     1       1.867   6.298  19.809  0.00  0.00    +0.000 N 
ATOM      4  C   UNL     1       1.814   6.894  18.474  0.00  0.00    +0.000 C 
ATOM      5  C   UNL     1       2.415   8.291  18.446  0.00  0.00    +0.000 C 
ATOM      6  C   UNL     1       1.847   9.200  19.533  0.00  0.00    +0.000 C 
ATOM      7  C   UNL     1       1.900   8.517  20.905  0.00  0.00    +0.000 C 
ATOM      8  C   UNL     1       1.315   7.112  20.890  0.00  0.00    +0.000 C 
ENDROOT
BRANCH   6   9
ATOM      9  N   UNL     1       0.534   9.729  19.192  0.00  0.00    +0.000 N 
ATOM     10  N   UNL     1      -0.091   9.576  17.976  0.00  0.00    +0.000 NA
ATOM     11  C   UNL     1      -1.190  10.249  18.142  0.00  0.00    +0.000 A 
ATOM     12  O   UNL     1      -1.345  10.840  19.350  0.00  0.00    +0.000 OA
ATOM     13  C   UNL     1      -0.224  10.507  20.038  0.00  0.00    +0.000 A 
ATOM     14  O   UNL     1       0.020  10.860  21.178  0.00  0.00    +0.000 OA
BRANCH  11  15
ATOM     15  C   UNL     1      -2.313  10.461  17.217  0.00  0.00    +0.000 A 
ATOM     16  C   UNL     1      -3.432  11.200  17.614  0.00  0.00    +0.000 A 
ATOM     17  C   UNL     1      -4.468  11.440  16.703  0.00  0.00    +0.000 A 
ATOM     18  C   UNL     1      -4.391  10.942  15.401  0.00  0.00    +0.000 A 
ATOM     19  C   UNL     1      -3.288  10.190  15.007  0.00  0.00    +0.000 A 
ATOM     20  C   UNL     1      -2.254   9.947  15.912  0.00  0.00    +0.000 A 
ENDBRANCH  11  15
ENDBRANCH   6   9
BRANCH   2  21
ATOM     21  C   UNL     1       2.405   4.047  18.859  0.00  0.00    +0.000 C 
BRANCH  21  22
ATOM     22  C   UNL     1       3.790   4.272  18.291  0.00  0.00    +0.000 A 
ATOM     23  C   UNL     1       4.880   4.617  19.125  0.00  0.00    +0.000 A 
ATOM     24  C   UNL     1       6.159   4.816  18.599  0.00  0.00    +0.000 A 
ATOM     25  C   UNL     1       6.327   4.649  17.243  0.00  0.00    +0.000 A 
ATOM     26  C   UNL     1       5.283   4.295  16.423  0.00  0.00    +0.000 A 
ATOM     27  C   UNL     1       4.010   4.090  16.914  0.00  0.00    +0.000 A 
ATOM     28  O   UNL     1       5.659   4.182  15.122  0.00  0.00    +0.000 OA
ATOM     29  C   UNL     1       7.056   4.528  15.214  0.00  0.00    +0.000 C 
ATOM     30  O   UNL     1       7.493   4.803  16.561  0.00  0.00    +0.000 OA
ENDBRANCH  21  22
ENDBRANCH   2  21
TORSDOF 4
ENDMDL
MODEL 4
REMARK VINA RESULT:      -8.6      5.981      8.956
REMARK  Name = 
REMARK  4 active torsions:
REMARK  status: ('A' for Active; 'I' for Inactive)
REMARK    1  A    between atoms: C_2  and  C_3
REMARK    2  A    between atoms: C_3  and  C_4
REMARK    3  A    between atoms: C_16  and  N_17
REMARK    4  A    between atoms: C_19  and  C_20
REMARK                            x       y       z     vdW  Elec       q    Type
REMARK                         _______ _______ _______ _____ _____    ______ ____
ROOT
ATOM      1  O   UNL     1       1.784   4.161  21.028  0.00  0.00    +0.000 OA
ATOM      2  C   UNL     1       1.912   4.727  19.939  0.00  0.00    +0.000 C 
ATOM      3  N   UNL     1       1.755   6.104  19.795  0.00  0.00    +0.000 N 
ATOM      4  C   UNL     1       1.768   6.796  18.507  0.00  0.00    +0.000 C 
ATOM      5  C   UNL     1       2.400   8.176  18.603  0.00  0.00    +0.000 C 
ATOM      6  C   UNL     1       1.807   9.019  19.731  0.00  0.00    +0.000 C 
ATOM      7  C   UNL     1       1.791   8.237  21.050  0.00  0.00    +0.000 C 
ATOM      8  C   UNL     1       1.178   6.852  20.911  0.00  0.00    +0.000 C 
ENDROOT
BRANCH   6   9
ATOM      9  N   UNL     1       0.521   9.602  19.380  0.00  0.00    +0.000 N 
ATOM     10  N   UNL     1      -0.095   9.484  18.154  0.00  0.00    +0.000 NA
ATOM     11  C   UNL     1      -1.168  10.199  18.314  0.00  0.00    +0.000 A 
ATOM     12  O   UNL     1      -1.315  10.785  19.524  0.00  0.00    +0.000 OA
ATOM     13  C   UNL     1      -0.216  10.402  20.223  0.00  0.00    +0.000 A 
ATOM     14  O   UNL     1       0.027  10.735  21.369  0.00  0.00    +0.000 OA
BRANCH  11  15
ATOM     15  C   UNL     1      -2.271  10.462  17.377  0.00  0.00    +0.000 A 
ATOM     16  C   UNL     1      -3.309  11.331  17.728  0.00  0.00    +0.000 A 
ATOM     17  C   UNL     1      -4.322  11.616  16.803  0.00  0.00    +0.000 A 
ATOM     18  C   UNL     1      -4.302  11.033  15.535  0.00  0.00    +0.000 A 
ATOM     19  C   UNL     1      -3.280  10.153  15.188  0.00  0.00    +0.000 A 
ATOM     20  C   UNL     1      -2.271   9.866  16.106  0.00  0.00    +0.000 A 
ENDBRANCH  11  15
ENDBRANCH   6   9
BRANCH   2  21
ATOM     21  C   UNL     1       2.283   3.915  18.705  0.00  0.00    +0.000 C 
BRANCH  21  22
ATOM     22  C   UNL     1       3.701   4.132  18.221  0.00  0.00    +0.000 A 
ATOM     23  C   UNL     1       4.041   3.991  16.855  0.00  0.00    +0.000 A 
ATOM     24  C   UNL     1       5.350   4.200  16.410  0.00  0.00    +0.000 A 
ATOM     25  C   UNL     1       6.294   4.564  17.343  0.00  0.00    +0.000 A 
ATOM     26  C   UNL     1       5.974   4.723  18.670  0.00  0.00    +0.000 A 
ATOM     27  C   UNL     1       4.691   4.525  19.139  0.00  0.00    +0.000 A 
ATOM     28  O   UNL     1       7.046   5.084  19.423  0.00  0.00    +0.000 OA
ATOM     29  C   UNL     1       8.083   5.110  18.420  0.00  0.00    +0.000 C 
ATOM     30  O   UNL     1       7.607   4.804  17.093  0.00  0.00    +0.000 OA
ENDBRANCH  21  22
ENDBRANCH   2  21
TORSDOF 4
ENDMDL
MODEL 5
REMARK VINA RESULT:      -8.5      0.884      1.169
REMARK  Name = 
REMARK  4 active torsions:
REMARK  status: ('A' for Active; 'I' for Inactive)
REMARK    1  A    between atoms: C_2  and  C_3
REMARK    2  A    between atoms: C_3  and  C_4
REMARK    3  A    between atoms: C_16  and  N_17
REMARK    4  A    between atoms: C_19  and  C_20
REMARK                            x       y       z     vdW  Elec       q    Type
REMARK                         _______ _______ _______ _____ _____    ______ ____
ROOT
ATOM      1  O   UNL     1       8.172   9.640  17.035  0.00  0.00    +0.000 OA
ATOM      2  C   UNL     1       8.246   8.830  17.962  0.00  0.00    +0.000 C 
ATOM      3  N   UNL     1       7.821   7.509  17.830  0.00  0.00    +0.000 N 
ATOM      4  C   UNL     1       7.769   6.555  18.937  0.00  0.00    +0.000 C 
ATOM      5  C   UNL     1       8.099   5.139  18.489  0.00  0.00    +0.000 C 
ATOM      6  C   UNL     1       7.281   4.698  17.277  0.00  0.00    +0.000 C 
ATOM      7  C   UNL     1       7.347   5.745  16.159  0.00  0.00    +0.000 C 
ATOM      8  C   UNL     1       7.038   7.153  16.647  0.00  0.00    +0.000 C 
ENDROOT
BRANCH   6   9
ATOM      9  N   UNL     1       5.926   4.300  17.629  0.00  0.00    +0.000 N 
ATOM     10  N   UNL     1       5.455   4.141  18.912  0.00  0.00    +0.000 NA
ATOM     11  C   UNL     1       4.234   3.742  18.711  0.00  0.00    +0.000 A 
ATOM     12  O   UNL     1       3.859   3.613  17.417  0.00  0.00    +0.000 OA
ATOM     13  C   UNL     1       4.957   3.973  16.706  0.00  0.00    +0.000 A 
ATOM     14  O   UNL     1       5.025   3.981  15.491  0.00  0.00    +0.000 OA
BRANCH  11  15
ATOM     15  C   UNL     1       3.178   3.417  19.682  0.00  0.00    +0.000 A 
ATOM     16  C   UNL     1       3.440   2.565  20.759  0.00  0.00    +0.000 A 
ATOM     17  C   UNL     1       2.440   2.311  21.706  0.00  0.00    +0.000 A 
ATOM     18  C   UNL     1       1.181   2.901  21.577  0.00  0.00    +0.000 A 
ATOM     19  C   UNL     1       0.911   3.736  20.496  0.00  0.00    +0.000 A 
ATOM     20  C   UNL     1       1.904   3.990  19.550  0.00  0.00    +0.000 A 
ENDBRANCH  11  15
ENDBRANCH   6   9
BRANCH   2  21
ATOM     21  C   UNL     1       8.847   9.259  19.294  0.00  0.00    +0.000 C 
BRANCH  21  22
ATOM     22  C   UNL     1       9.460  10.644  19.282  0.00  0.00    +0.000 A 
ATOM     23  C   UNL     1      10.652  10.927  19.989  0.00  0.00    +0.000 A 
ATOM     24  C   UNL     1      11.219  12.204  19.969  0.00  0.00    +0.000 A 
ATOM     25  C   UNL     1      10.587  13.175  19.225  0.00  0.00    +0.000 A 
ATOM     26  C   UNL     1       9.440  12.910  18.518  0.00  0.00    +0.000 A 
ATOM     27  C   UNL     1       8.857  11.659  18.517  0.00  0.00    +0.000 A 
ATOM     28  O   UNL     1       8.976  14.000  17.851  0.00  0.00    +0.000 OA
ATOM     29  C   UNL     1       9.953  14.988  18.240  0.00  0.00    +0.000 C 
ATOM     30  O   UNL     1      10.992  14.465  19.093  0.00  0.00    +0.000 OA
ENDBRANCH  21  22
ENDBRANCH   2  21
TORSDOF 4
ENDMDL
MODEL 6
REMARK VINA RESULT:      -8.4      7.797     10.820
REMARK  Name = 
REMARK  4 active torsions:
REMARK  status: ('A' for Active; 'I' for Inactive)
REMARK    1  A    between atoms: C_2  and  C_3
REMARK    2  A    between atoms: C_3  and  C_4
REMARK    3  A    between atoms: C_16  and  N_17
REMARK    4  A    between atoms: C_19  and  C_20
REMARK                            x       y       z     vdW  Elec       q    Type
REMARK                         _______ _______ _______ _____ _____    ______ ____
ROOT
ATOM      1  O   UNL     1       1.843   7.338  20.509  0.00  0.00    +0.000 OA
ATOM      2  C   UNL     1       1.735   8.172  19.606  0.00  0.00    +0.000 C 
ATOM      3  N   UNL     1       1.219   9.447  19.831  0.00  0.00    +0.000 N 
ATOM      4  C   UNL     1       0.952  10.417  18.770  0.00  0.00    +0.000 C 
ATOM      5  C   UNL     1       1.214  11.846  19.220  0.00  0.00    +0.000 C 
ATOM      6  C   UNL     1       0.516  12.187  20.535  0.00  0.00    +0.000 C 
ATOM      7  C   UNL     1       0.806  11.125  21.602  0.00  0.00    +0.000 C 
ATOM      8  C   UNL     1       0.559   9.707  21.109  0.00  0.00    +0.000 C 
ENDROOT
BRANCH   6   9
ATOM      9  N   UNL     1      -0.900  12.473  20.361  0.00  0.00    +0.000 N 
ATOM     10  N   UNL     1      -1.779  11.707  19.628  0.00  0.00    +0.000 NA
ATOM     11  C   UNL     1      -2.885  12.380  19.732  0.00  0.00    +0.000 A 
ATOM     12  O   UNL     1      -2.818  13.522  20.455  0.00  0.00    +0.000 OA
ATOM     13  C   UNL     1      -1.527  13.590  20.866  0.00  0.00    +0.000 A 
ATOM     14  O   UNL     1      -1.061  14.488  21.543  0.00  0.00    +0.000 OA
BRANCH  11  15
ATOM     15  C   UNL     1      -4.221  12.085  19.191  0.00  0.00    +0.000 A 
ATOM     16  C   UNL     1      -4.368  11.584  17.894  0.00  0.00    +0.000 A 
ATOM     17  C   UNL     1      -5.642  11.255  17.414  0.00  0.00    +0.000 A 
ATOM     18  C   UNL     1      -6.766  11.428  18.224  0.00  0.00    +0.000 A 
ATOM     19  C   UNL     1      -6.626  11.943  19.510  0.00  0.00    +0.000 A 
ATOM     20  C   UNL     1      -5.359  12.274  19.991  0.00  0.00    +0.000 A 
ENDBRANCH  11  15
ENDBRANCH   6   9
BRANCH   2  21
ATOM     21  C   UNL     1       2.203   7.826  18.199  0.00  0.00    +0.000 C 
BRANCH  21  22
ATOM     22  C   UNL     1       2.743   6.418  18.051  0.00  0.00    +0.000 A 
ATOM     23  C   UNL     1       4.134   6.164  18.022  0.00  0.00    +0.000 A 
ATOM     24  C   UNL     1       4.629   4.862  17.894  0.00  0.00    +0.000 A 
ATOM     25  C   UNL     1       3.716   3.835  17.813  0.00  0.00    +0.000 A 
ATOM     26  C   UNL     1       2.363   4.065  17.860  0.00  0.00    +0.000 A 
ATOM     27  C   UNL     1       1.844   5.338  17.987  0.00  0.00    +0.000 A 
ATOM     28  O   UNL     1       1.636   2.920  17.765  0.00  0.00    +0.000 OA
ATOM     29  C   UNL     1       2.691   1.944  17.630  0.00  0.00    +0.000 C 
ATOM     30  O   UNL     1       4.014   2.516  17.683  0.00  0.00    +0.000 OA
ENDBRANCH  21  22
ENDBRANCH   2  21
TORSDOF 4
ENDMDL
MODEL 7
REMARK VINA RESULT:      -8.3      8.003     10.956
REMARK  Name = 
REMARK  4 active torsions:
REMARK  status: ('A' for Active; 'I' for Inactive)
REMARK    1  A    between atoms: C_2  and  C_3
REMARK    2  A    between atoms: C_3  and  C_4
REMARK    3  A    between atoms: C_16  and  N_17
REMARK    4  A    between atoms: C_19  and  C_20
REMARK                            x       y       z     vdW  Elec       q    Type
REMARK                         _______ _______ _______ _____ _____    ______ ____
ROOT
ATOM      1  O   UNL     1       1.832   7.343  20.581  0.00  0.00    +0.000 OA
ATOM      2  C   UNL     1       1.641   8.222  19.736  0.00  0.00    +0.000 C 
ATOM      3  N   UNL     1       1.012   9.425  20.047  0.00  0.00    +0.000 N 
ATOM      4  C   UNL     1       0.648  10.435  19.052  0.00  0.00    +0.000 C 
ATOM      5  C   UNL     1       0.781  11.849  19.597  0.00  0.00    +0.000 C 
ATOM      6  C   UNL     1       0.065  12.037  20.933  0.00  0.00    +0.000 C 
ATOM      7  C   UNL     1       0.459  10.938  21.927  0.00  0.00    +0.000 C 
ATOM      8  C   UNL     1       0.340   9.538  21.340  0.00  0.00    +0.000 C 
ENDROOT
BRANCH   6   9
ATOM      9  N   UNL     1      -1.374  12.200  20.780  0.00  0.00    +0.000 N 
ATOM     10  N   UNL     1      -2.092  11.887  19.649  0.00  0.00    +0.000 NA
ATOM     11  C   UNL     1      -3.296  12.247  19.977  0.00  0.00    +0.000 A 
ATOM     12  O   UNL     1      -3.440  12.777  21.213  0.00  0.00    +0.000 OA
ATOM     13  C   UNL     1      -2.191  12.752  21.742  0.00  0.00    +0.000 A 
ATOM     14  O   UNL     1      -1.899  13.157  22.852  0.00  0.00    +0.000 OA
BRANCH  11  15
ATOM     15  C   UNL     1      -4.548  12.154  19.210  0.00  0.00    +0.000 A 
ATOM     16  C   UNL     1      -5.780  12.391  19.828  0.00  0.00    +0.000 A 
ATOM     17  C   UNL     1      -6.958  12.355  19.071  0.00  0.00    +0.000 A 
ATOM     18  C   UNL     1      -6.908  12.078  17.703  0.00  0.00    +0.000 A 
ATOM     19  C   UNL     1      -5.686  11.823  17.088  0.00  0.00    +0.000 A 
ATOM     20  C   UNL     1      -4.510  11.857  17.838  0.00  0.00    +0.000 A 
ENDBRANCH  11  15
ENDBRANCH   6   9
BRANCH   2  21
ATOM     21  C   UNL     1       2.129   8.014  18.308  0.00  0.00    +0.000 C 
BRANCH  21  22
ATOM     22  C   UNL     1       2.694   6.635  18.038  0.00  0.00    +0.000 A 
ATOM     23  C   UNL     1       4.079   6.438  17.825  0.00  0.00    +0.000 A 
ATOM     24  C   UNL     1       4.598   5.163  17.583  0.00  0.00    +0.000 A 
ATOM     25  C   UNL     1       3.719   4.103  17.576  0.00  0.00    +0.000 A 
ATOM     26  C   UNL     1       2.375   4.278  17.801  0.00  0.00    +0.000 A 
ATOM     27  C   UNL     1       1.833   5.524  18.043  0.00  0.00    +0.000 A 
ATOM     28  O   UNL     1       1.684   3.109  17.752  0.00  0.00    +0.000 OA
ATOM     29  C   UNL     1       2.746   2.181  17.447  0.00  0.00    +0.000 C 
ATOM     30  O   UNL     1       4.044   2.802  17.357  0.00  0.00    +0.000 OA
ENDBRANCH  21  22
ENDBRANCH   2  21
TORSDOF 4
ENDMDL
MODEL 8
REMARK VINA RESULT:      -8.2      8.056     10.401
REMARK  Name = 
REMARK  4 active torsions:
REMARK  status: ('A' for Active; 'I' for Inactive)
REMARK    1  A    between atoms: C_2  and  C_3
REMARK    2  A    between atoms: C_3  and  C_4
REMARK    3  A    between atoms: C_16  and  N_17
REMARK    4  A    between atoms: C_19  and  C_20
REMARK                            x       y       z     vdW  Elec       q    Type
REMARK                         _______ _______ _______ _____ _____    ______ ____
ROOT
ATOM      1  O   UNL     1       2.132   7.633  20.252  0.00  0.00    +0.000 OA
ATOM      2  C   UNL     1       1.733   8.378  19.353  0.00  0.00    +0.000 C 
ATOM      3  N   UNL     1       1.096   9.588  19.621  0.00  0.00    +0.000 N 
ATOM      4  C   UNL     1       0.492  10.436  18.593  0.00  0.00    +0.000 C 
ATOM      5  C   UNL     1       0.632  11.916  18.916  0.00  0.00    +0.000 C 
ATOM      6  C   UNL     1       0.164  12.259  20.329  0.00  0.00    +0.000 C 
ATOM      7  C   UNL     1       0.803  11.323  21.362  0.00  0.00    +0.000 C 
ATOM      8  C   UNL     1       0.668   9.853  20.993  0.00  0.00    +0.000 C 
ENDROOT
BRANCH   6   9
ATOM      9  N   UNL     1      -1.285  12.344  20.434  0.00  0.00    +0.000 N 
ATOM     10  N   UNL     1      -2.169  12.142  19.398  0.00  0.00    +0.000 NA
ATOM     11  C   UNL     1      -3.316  12.371  19.964  0.00  0.00    +0.000 A 
ATOM     12  O   UNL     1      -3.273  12.715  21.272  0.00  0.00    +0.000 OA
ATOM     13  C   UNL     1      -1.953  12.702  21.584  0.00  0.00    +0.000 A 
ATOM     14  O   UNL     1      -1.497  12.970  22.681  0.00  0.00    +0.000 OA
BRANCH  11  15
ATOM     15  C   UNL     1      -4.673  12.300  19.402  0.00  0.00    +0.000 A 
ATOM     16  C   UNL     1      -4.876  11.878  18.084  0.00  0.00    +0.000 A 
ATOM     17  C   UNL     1      -6.179  11.761  17.582  0.00  0.00    +0.000 A 
ATOM     18  C   UNL     1      -7.275  12.070  18.390  0.00  0.00    +0.000 A 
ATOM     19  C   UNL     1      -7.077  12.508  19.696  0.00  0.00    +0.000 A 
ATOM     20  C   UNL     1      -5.781  12.626  20.199  0.00  0.00    +0.000 A 
ENDBRANCH  11  15
ENDBRANCH   6   9
BRANCH   2  21
ATOM     21  C   UNL     1       1.962   7.995  17.897  0.00  0.00    +0.000 C 
BRANCH  21  22
ATOM     22  C   UNL     1       3.013   6.924  17.693  0.00  0.00    +0.000 A 
ATOM     23  C   UNL     1       2.732   5.561  17.947  0.00  0.00    +0.000 A 
ATOM     24  C   UNL     1       3.702   4.573  17.750  0.00  0.00    +0.000 A 
ATOM     25  C   UNL     1       4.936   4.971  17.286  0.00  0.00    +0.000 A 
ATOM     26  C   UNL     1       5.216   6.288  17.016  0.00  0.00    +0.000 A 
ATOM     27  C   UNL     1       4.279   7.285  17.199  0.00  0.00    +0.000 A 
ATOM     28  O   UNL     1       6.487   6.468  16.567  0.00  0.00    +0.000 OA
ATOM     29  C   UNL     1       6.980   5.113  16.608  0.00  0.00    +0.000 C 
ATOM     30  O   UNL     1       5.993   4.154  17.040  0.00  0.00    +0.000 OA
ENDBRANCH  21  22
ENDBRANCH   2  21
TORSDOF 4
ENDMDL
MODEL 9
REMARK VINA RESULT:      -8.2      7.838     10.233
REMARK  Name = 
REMARK  4 active torsions:
REMARK  status: ('A' for Active; 'I' for Inactive)
REMARK    1  A    between atoms: C_2  and  C_3
REMARK    2  A    between atoms: C_3  and  C_4
REMARK    3  A    between atoms: C_16  and  N_17
REMARK    4  A    between atoms: C_19  and  C_20
REMARK                            x       y       z     vdW  Elec       q    Type
REMARK                         _______ _______ _______ _____ _____    ______ ____
ROOT
ATOM      1  O   UNL     1       1.981   7.325  20.256  0.00  0.00    +0.000 OA
ATOM      2  C   UNL     1       1.736   8.121  19.344  0.00  0.00    +0.000 C 
ATOM      3  N   UNL     1       1.198   9.384  19.586  0.00  0.00    +0.000 N 
ATOM      4  C   UNL     1       0.772  10.303  18.531  0.00  0.00    +0.000 C 
ATOM      5  C   UNL     1       1.027  11.757  18.901  0.00  0.00    +0.000 C 
ATOM      6  C   UNL     1       0.472  12.121  20.276  0.00  0.00    +0.000 C 
ATOM      7  C   UNL     1       0.925  11.111  21.337  0.00  0.00    +0.000 C 
ATOM      8  C   UNL     1       0.680   9.667  20.923  0.00  0.00    +0.000 C 
ENDROOT
BRANCH   6   9
ATOM      9  N   UNL     1      -0.966  12.349  20.259  0.00  0.00    +0.000 N 
ATOM     10  N   UNL     1      -1.852  11.757  19.388  0.00  0.00    +0.000 NA
ATOM     11  C   UNL     1      -2.981  12.300  19.729  0.00  0.00    +0.000 A 
ATOM     12  O   UNL     1      -2.924  13.202  20.737  0.00  0.00    +0.000 OA
ATOM     13  C   UNL     1      -1.613  13.240  21.085  0.00  0.00    +0.000 A 
ATOM     14  O   UNL     1      -1.149  13.948  21.961  0.00  0.00    +0.000 OA
BRANCH  11  15
ATOM     15  C   UNL     1      -4.333  12.076  19.195  0.00  0.00    +0.000 A 
ATOM     16  C   UNL     1      -5.459  12.288  19.998  0.00  0.00    +0.000 A 
ATOM     17  C   UNL     1      -6.740  12.125  19.457  0.00  0.00    +0.000 A 
ATOM     18  C   UNL     1      -6.900  11.748  18.123  0.00  0.00    +0.000 A 
ATOM     19  C   UNL     1      -5.782  11.518  17.326  0.00  0.00    +0.000 A 
ATOM     20  C   UNL     1      -4.503  11.678  17.860  0.00  0.00    +0.000 A 
ENDBRANCH  11  15
ENDBRANCH   6   9
BRANCH   2  21
ATOM     21  C   UNL     1       2.053   7.740  17.904  0.00  0.00    +0.000 C 
BRANCH  21  22
ATOM     22  C   UNL     1       3.114   6.668  17.763  0.00  0.00    +0.000 A 
ATOM     23  C   UNL     1       2.785   5.294  17.832  0.00  0.00    +0.000 A 
ATOM     24  C   UNL     1       3.766   4.308  17.693  0.00  0.00    +0.000 A 
ATOM     25  C   UNL     1       5.061   4.719  17.471  0.00  0.00    +0.000 A 
ATOM     26  C   UNL     1       5.392   6.049  17.382  0.00  0.00    +0.000 A 
ATOM     27  C   UNL     1       4.446   7.045  17.514  0.00  0.00    +0.000 A 
ATOM     28  O   UNL     1       6.719   6.242  17.160  0.00  0.00    +0.000 OA
ATOM     29  C   UNL     1       7.189   4.877  17.143  0.00  0.00    +0.000 C 
ATOM     30  O   UNL     1       6.138   3.905  17.316  0.00  0.00    +0.000 OA
ENDBRANCH  21  22
ENDBRANCH   2  21
TORSDOF 4
ENDMDL
