MODEL 1
REMARK VINA RESULT:      -8.9      0.000      0.000
REMARK  Name = 
REMARK  6 active torsions:
REMARK  status: ('A' for Active; 'I' for Inactive)
REMARK    1  A    between atoms: C_1  and  C_2
REMARK    2  A    between atoms: C_2  and  C_3
REMARK    3  A    between atoms: N_4  and  C_5
REMARK    4  A    between atoms: C_16  and  N_17
REMARK    5  A    between atoms: C_18  and  C_19
REMARK    6  A    between atoms: C_19  and  C_20
REMARK                            x       y       z     vdW  Elec       q    Type
REMARK                         _______ _______ _______ _____ _____    ______ ____
ROOT
ATOM      1  C   UNL     1      -2.103  12.821  21.752  0.00  0.00    +0.000 A 
ATOM      2  C   UNL     1      -1.755  12.163  22.940  0.00  0.00    +0.000 A 
ATOM      3  C   UNL     1      -0.850  11.071  22.950  0.00  0.00    +0.000 A 
ATOM      4  C   UNL     1      -0.314  10.597  21.751  0.00  0.00    +0.000 A 
ATOM      5  C   UNL     1      -0.579  11.335  20.608  0.00  0.00    +0.000 A 
ATOM      6  C   UNL     1      -1.379  12.475  20.632  0.00  0.00    +0.000 A 
ATOM      7  C   UNL     1      -0.107  10.893  19.298  0.00  0.00    +0.000 C 
ATOM      8  O   UNL     1      -0.497  11.439  18.269  0.00  0.00    +0.000 OA
ATOM      9  C   UNL     1       0.803   9.757  19.224  0.00  0.00    +0.000 A 
ATOM     10  C   UNL     1       1.426   9.528  18.009  0.00  0.00    +0.000 A 
ATOM     11  C   UNL     1       2.271   8.442  17.875  0.00  0.00    +0.000 A 
ATOM     12  C   UNL     1       2.422   7.483  18.872  0.00  0.00    +0.000 A 
ATOM     13  C   UNL     1       1.827   7.773  20.127  0.00  0.00    +0.000 A 
ATOM     14  C   UNL     1       1.046   8.933  20.318  0.00  0.00    +0.000 A 
ATOM     15  C   UNL     1       0.501   9.339  21.653  0.00  0.00    +0.000 C 
ATOM     16  O   UNL     1       0.719   8.668  22.650  0.00  0.00    +0.000 OA
ENDROOT
BRANCH   1  18
ATOM     17  C   UNL     1      -4.369  13.604  21.360  0.00  0.00    +0.000 C 
ATOM     18  N   UNL     1      -3.125  13.792  21.750  0.00  0.00    +0.000 NA
ATOM     19  N   UNL     1      -5.301  14.645  21.502  0.00  0.00    +0.000 N 
ATOM     20  C   UNL     1      -4.979  15.860  22.261  0.00  0.00    +0.000 C 
ATOM     21  C   UNL     1      -5.909  15.983  23.474  0.00  0.00    +0.000 C 
ATOM     22  C   UNL     1      -7.382  15.903  23.074  0.00  0.00    +0.000 C 
ATOM     23  C   UNL     1      -7.644  14.658  22.232  0.00  0.00    +0.000 C 
ATOM     24  C   UNL     1      -6.693  14.610  21.039  0.00  0.00    +0.000 C 
BRANCH  17  26
ATOM     25  C   UNL     1      -4.750  12.222  19.239  0.00  0.00    +0.000 C 
ATOM     26  C   UNL     1      -4.892  12.280  20.761  0.00  0.00    +0.000 C 
ENDBRANCH  17  26
ENDBRANCH   1  18
BRANCH  12  27
ATOM     27  N   UNL     1       3.205   6.318  18.712  0.00  0.00    +0.000 NA
ATOM     28  C   UNL     1       2.799   5.100  18.421  0.00  0.00    +0.000 C 
ATOM     29  N   UNL     1       3.751   4.079  18.326  0.00  0.00    +0.000 N 
ATOM     30  C   UNL     1       3.679   2.956  17.396  0.00  0.00    +0.000 C 
ATOM     31  C   UNL     1       3.396   1.664  18.153  0.00  0.00    +0.000 C 
ATOM     32  C   UNL     1       4.492   1.423  19.187  0.00  0.00    +0.000 C 
ATOM     33  C   UNL     1       4.660   2.640  20.099  0.00  0.00    +0.000 C 
ATOM     34  C   UNL     1       4.826   3.953  19.314  0.00  0.00    +0.000 C 
BRANCH  28  35
ATOM     35  C   UNL     1       1.324   4.662  18.259  0.00  0.00    +0.000 C 
ATOM     36  C   UNL     1       0.761   3.702  19.307  0.00  0.00    +0.000 C 
ENDBRANCH  28  35
ENDBRANCH  12  27
TORSDOF 4
ENDMDL
MODEL 2
REMARK VINA RESULT:      -8.8      0.926     11.445
REMARK  Name = 
REMARK  6 active torsions:
REMARK  status: ('A' for Active; 'I' for Inactive)
REMARK    1  A    between atoms: C_1  and  C_2
REMARK    2  A    between atoms: C_2  and  C_3
REMARK    3  A    between atoms: N_4  and  C_5
REMARK    4  A    between atoms: C_16  and  N_17
REMARK    5  A    between atoms: C_18  and  C_19
REMARK    6  A    between atoms: C_19  and  C_20
REMARK                            x       y       z     vdW  Elec       q    Type
REMARK                         _______ _______ _______ _____ _____    ______ ____
ROOT
ATOM      1  C   UNL     1       2.354   7.726  19.019  0.00  0.00    +0.000 A 
ATOM      2  C   UNL     1       2.113   8.517  17.886  0.00  0.00    +0.000 A 
ATOM      3  C   UNL     1       1.265   9.651  17.936  0.00  0.00    +0.000 A 
ATOM      4  C   UNL     1       0.608   9.982  19.124  0.00  0.00    +0.000 A 
ATOM      5  C   UNL     1       0.953   9.259  20.255  0.00  0.00    +0.000 A 
ATOM      6  C   UNL     1       1.877   8.217  20.215  0.00  0.00    +0.000 A 
ATOM      7  C   UNL     1       0.285   9.494  21.533  0.00  0.00    +0.000 C 
ATOM      8  O   UNL     1       0.453   8.733  22.482  0.00  0.00    +0.000 OA
ATOM      9  C   UNL     1      -0.627  10.625  21.653  0.00  0.00    +0.000 A 
ATOM     10  C   UNL     1      -1.038  10.968  22.930  0.00  0.00    +0.000 A 
ATOM     11  C   UNL     1      -1.932  12.010  23.096  0.00  0.00    +0.000 A 
ATOM     12  C   UNL     1      -2.546  12.649  22.024  0.00  0.00    +0.000 A 
ATOM     13  C   UNL     1      -2.060  12.326  20.730  0.00  0.00    +0.000 A 
ATOM     14  C   UNL     1      -1.069  11.338  20.544  0.00  0.00    +0.000 A 
ATOM     15  C   UNL     1      -0.444  11.051  19.213  0.00  0.00    +0.000 C 
ATOM     16  O   UNL     1      -0.772  11.676  18.218  0.00  0.00    +0.000 OA
ENDROOT
BRANCH   1  18
ATOM     17  C   UNL     1       2.860   5.426  19.612  0.00  0.00    +0.000 C 
ATOM     18  N   UNL     1       3.067   6.517  18.903  0.00  0.00    +0.000 NA
ATOM     19  N   UNL     1       3.592   4.263  19.320  0.00  0.00    +0.000 N 
ATOM     20  C   UNL     1       4.430   4.170  18.117  0.00  0.00    +0.000 C 
ATOM     21  C   UNL     1       3.902   3.065  17.194  0.00  0.00    +0.000 C 
ATOM     22  C   UNL     1       3.759   1.731  17.926  0.00  0.00    +0.000 C 
ATOM     23  C   UNL     1       2.939   1.901  19.200  0.00  0.00    +0.000 C 
ATOM     24  C   UNL     1       3.529   3.006  20.073  0.00  0.00    +0.000 C 
BRANCH  17  26
ATOM     25  C   UNL     1       0.643   4.426  20.410  0.00  0.00    +0.000 C 
ATOM     26  C   UNL     1       1.828   5.328  20.758  0.00  0.00    +0.000 C 
ENDBRANCH  17  26
ENDBRANCH   1  18
BRANCH  12  27
ATOM     27  N   UNL     1      -3.532  13.648  22.181  0.00  0.00    +0.000 NA
ATOM     28  C   UNL     1      -4.811  13.582  21.875  0.00  0.00    +0.000 C 
ATOM     29  N   UNL     1      -5.615  14.705  22.099  0.00  0.00    +0.000 N 
ATOM     30  C   UNL     1      -7.014  14.660  22.511  0.00  0.00    +0.000 C 
ATOM     31  C   UNL     1      -7.913  15.115  21.368  0.00  0.00    +0.000 C 
ATOM     32  C   UNL     1      -7.533  16.531  20.947  0.00  0.00    +0.000 C 
ATOM     33  C   UNL     1      -6.040  16.623  20.623  0.00  0.00    +0.000 C 
ATOM     34  C   UNL     1      -5.153  16.049  21.740  0.00  0.00    +0.000 C 
BRANCH  28  35
ATOM     35  C   UNL     1      -5.508  12.381  21.192  0.00  0.00    +0.000 C 
ATOM     36  C   UNL     1      -5.636  12.421  19.670  0.00  0.00    +0.000 C 
ENDBRANCH  28  35
ENDBRANCH  12  27
TORSDOF 4
ENDMDL
MODEL 3
REMARK VINA RESULT:      -8.6      1.566     11.504
REMARK  Name = 
REMARK  6 active torsions:
REMARK  status: ('A' for Active; 'I' for Inactive)
REMARK    1  A    between atoms: C_1  and  C_2
REMARK    2  A    between atoms: C_2  and  C_3
REMARK    3  A    between atoms: N_4  and  C_5
REMARK    4  A    between atoms: C_16  and  N_17
REMARK    5  A    between atoms: C_18  and  C_19
REMARK    6  A    between atoms: C_19  and  C_20
REMARK                            x       y       z     vdW  Elec       q    Type
REMARK                         _______ _______ _______ _____ _____    ______ ____
ROOT
ATOM      1  C   UNL     1       2.613   6.934  19.516  0.00  0.00    +0.000 A 
ATOM      2  C   UNL     1       1.971   6.450  20.665  0.00  0.00    +0.000 A 
ATOM      3  C   UNL     1       0.994   7.215  21.350  0.00  0.00    +0.000 A 
ATOM      4  C   UNL     1       0.679   8.503  20.911  0.00  0.00    +0.000 A 
ATOM      5  C   UNL     1       1.238   8.911  19.710  0.00  0.00    +0.000 A 
ATOM      6  C   UNL     1       2.110   8.102  18.986  0.00  0.00    +0.000 A 
ATOM      7  C   UNL     1       1.010  10.259  19.192  0.00  0.00    +0.000 C 
ATOM      8  O   UNL     1       1.651  10.682  18.234  0.00  0.00    +0.000 OA
ATOM      9  C   UNL     1       0.042  11.117  19.864  0.00  0.00    +0.000 A 
ATOM     10  C   UNL     1      -0.333  12.276  19.205  0.00  0.00    +0.000 A 
ATOM     11  C   UNL     1      -1.222  13.143  19.814  0.00  0.00    +0.000 A 
ATOM     12  C   UNL     1      -1.658  12.971  21.124  0.00  0.00    +0.000 A 
ATOM     13  C   UNL     1      -1.313  11.746  21.752  0.00  0.00    +0.000 A 
ATOM     14  C   UNL     1      -0.492  10.796  21.107  0.00  0.00    +0.000 A 
ATOM     15  C   UNL     1      -0.203   9.444  21.682  0.00  0.00    +0.000 C 
ATOM     16  O   UNL     1      -0.679   9.102  22.753  0.00  0.00    +0.000 OA
ENDROOT
BRANCH   1  18
ATOM     17  C   UNL     1       3.603   5.278  18.041  0.00  0.00    +0.000 C 
ATOM     18  N   UNL     1       3.692   6.224  18.952  0.00  0.00    +0.000 NA
ATOM     19  N   UNL     1       4.777   4.722  17.505  0.00  0.00    +0.000 N 
ATOM     20  C   UNL     1       6.094   5.310  17.781  0.00  0.00    +0.000 C 
ATOM     21  C   UNL     1       6.730   5.809  16.478  0.00  0.00    +0.000 C 
ATOM     22  C   UNL     1       6.777   4.715  15.411  0.00  0.00    +0.000 C 
ATOM     23  C   UNL     1       5.397   4.095  15.216  0.00  0.00    +0.000 C 
ATOM     24  C   UNL     1       4.834   3.611  16.549  0.00  0.00    +0.000 C 
BRANCH  17  26
ATOM     25  C   UNL     1       1.705   3.583  18.325  0.00  0.00    +0.000 C 
ATOM     26  C   UNL     1       2.265   4.736  17.490  0.00  0.00    +0.000 C 
ENDBRANCH  17  26
ENDBRANCH   1  18
BRANCH  12  27
ATOM     27  N   UNL     1      -2.488  13.899  21.790  0.00  0.00    +0.000 NA
ATOM     28  C   UNL     1      -3.793  13.847  21.959  0.00  0.00    +0.000 C 
ATOM     29  N   UNL     1      -4.425  14.892  22.641  0.00  0.00    +0.000 N 
ATOM     30  C   UNL     1      -5.584  14.737  23.516  0.00  0.00    +0.000 C 
ATOM     31  C   UNL     1      -6.818  15.350  22.866  0.00  0.00    +0.000 C 
ATOM     32  C   UNL     1      -6.569  16.827  22.580  0.00  0.00    +0.000 C 
ATOM     33  C   UNL     1      -5.290  17.017  21.760  0.00  0.00    +0.000 C 
ATOM     34  C   UNL     1      -4.079  16.291  22.371  0.00  0.00    +0.000 C 
BRANCH  28  35
ATOM     35  C   UNL     1      -4.728  12.757  21.383  0.00  0.00    +0.000 C 
ATOM     36  C   UNL     1      -5.378  13.039  20.028  0.00  0.00    +0.000 C 
ENDBRANCH  28  35
ENDBRANCH  12  27
TORSDOF 4
ENDMDL
MODEL 4
REMARK VINA RESULT:      -8.6      1.085     11.508
REMARK  Name = 
REMARK  6 active torsions:
REMARK  status: ('A' for Active; 'I' for Inactive)
REMARK    1  A    between atoms: C_1  and  C_2
REMARK    2  A    between atoms: C_2  and  C_3
REMARK    3  A    between atoms: N_4  and  C_5
REMARK    4  A    between atoms: C_16  and  N_17
REMARK    5  A    between atoms: C_18  and  C_19
REMARK    6  A    between atoms: C_19  and  C_20
REMARK                            x       y       z     vdW  Elec       q    Type
REMARK                         _______ _______ _______ _____ _____    ______ ____
ROOT
ATOM      1  C   UNL     1       2.366   7.664  18.984  0.00  0.00    +0.000 A 
ATOM      2  C   UNL     1       2.081   8.393  17.821  0.00  0.00    +0.000 A 
ATOM      3  C   UNL     1       1.250   9.541  17.845  0.00  0.00    +0.000 A 
ATOM      4  C   UNL     1       0.655   9.950  19.041  0.00  0.00    +0.000 A 
ATOM      5  C   UNL     1       1.044   9.286  20.194  0.00  0.00    +0.000 A 
ATOM      6  C   UNL     1       1.952   8.230  20.171  0.00  0.00    +0.000 A 
ATOM      7  C   UNL     1       0.441   9.604  21.487  0.00  0.00    +0.000 C 
ATOM      8  O   UNL     1       0.645   8.896  22.469  0.00  0.00    +0.000 OA
ATOM      9  C   UNL     1      -0.450  10.754  21.584  0.00  0.00    +0.000 A 
ATOM     10  C   UNL     1      -0.796  11.175  22.857  0.00  0.00    +0.000 A 
ATOM     11  C   UNL     1      -1.667  12.238  23.004  0.00  0.00    +0.000 A 
ATOM     12  C   UNL     1      -2.323  12.826  21.926  0.00  0.00    +0.000 A 
ATOM     13  C   UNL     1      -1.903  12.421  20.633  0.00  0.00    +0.000 A 
ATOM     14  C   UNL     1      -0.935  11.410  20.457  0.00  0.00    +0.000 A 
ATOM     15  C   UNL     1      -0.378  11.037  19.118  0.00  0.00    +0.000 C 
ATOM     16  O   UNL     1      -0.745  11.610  18.104  0.00  0.00    +0.000 OA
ENDROOT
BRANCH   1  18
ATOM     17  C   UNL     1       2.814   5.366  19.630  0.00  0.00    +0.000 C 
ATOM     18  N   UNL     1       3.057   6.439  18.905  0.00  0.00    +0.000 NA
ATOM     19  N   UNL     1       3.529   4.184  19.374  0.00  0.00    +0.000 N 
ATOM     20  C   UNL     1       4.388   4.053  18.190  0.00  0.00    +0.000 C 
ATOM     21  C   UNL     1       3.857   2.941  17.277  0.00  0.00    +0.000 C 
ATOM     22  C   UNL     1       3.674   1.624  18.029  0.00  0.00    +0.000 C 
ATOM     23  C   UNL     1       2.832   1.834  19.284  0.00  0.00    +0.000 C 
ATOM     24  C   UNL     1       3.426   2.942  20.148  0.00  0.00    +0.000 C 
BRANCH  17  26
ATOM     25  C   UNL     1       0.543   4.457  20.384  0.00  0.00    +0.000 C 
ATOM     26  C   UNL     1       1.758   5.309  20.755  0.00  0.00    +0.000 C 
ENDBRANCH  17  26
ENDBRANCH   1  18
BRANCH  12  27
ATOM     27  N   UNL     1      -3.287  13.847  22.072  0.00  0.00    +0.000 NA
ATOM     28  C   UNL     1      -4.431  13.797  22.722  0.00  0.00    +0.000 C 
ATOM     29  N   UNL     1      -5.253  14.929  22.725  0.00  0.00    +0.000 N 
ATOM     30  C   UNL     1      -6.093  15.347  23.843  0.00  0.00    +0.000 C 
ATOM     31  C   UNL     1      -7.564  15.144  23.500  0.00  0.00    +0.000 C 
ATOM     32  C   UNL     1      -7.916  15.943  22.249  0.00  0.00    +0.000 C 
ATOM     33  C   UNL     1      -6.968  15.601  21.097  0.00  0.00    +0.000 C 
ATOM     34  C   UNL     1      -5.486  15.698  21.498  0.00  0.00    +0.000 C 
BRANCH  28  35
ATOM     35  C   UNL     1      -5.008  12.545  23.426  0.00  0.00    +0.000 C 
ATOM     36  C   UNL     1      -4.614  12.320  24.885  0.00  0.00    +0.000 C 
ENDBRANCH  28  35
ENDBRANCH  12  27
TORSDOF 4
ENDMDL
MODEL 5
REMARK VINA RESULT:      -8.6      1.322      1.932
REMARK  Name = 
REMARK  6 active torsions:
REMARK  status: ('A' for Active; 'I' for Inactive)
REMARK    1  A    between atoms: C_1  and  C_2
REMARK    2  A    between atoms: C_2  and  C_3
REMARK    3  A    between atoms: N_4  and  C_5
REMARK    4  A    between atoms: C_16  and  N_17
REMARK    5  A    between atoms: C_18  and  C_19
REMARK    6  A    between atoms: C_19  and  C_20
REMARK                            x       y       z     vdW  Elec       q    Type
REMARK                         _______ _______ _______ _____ _____    ______ ____
ROOT
ATOM      1  C   UNL     1      -2.234  12.846  21.378  0.00  0.00    +0.000 A 
ATOM      2  C   UNL     1      -1.824  12.334  22.618  0.00  0.00    +0.000 A 
ATOM      3  C   UNL     1      -0.880  11.282  22.714  0.00  0.00    +0.000 A 
ATOM      4  C   UNL     1      -0.363  10.697  21.556  0.00  0.00    +0.000 A 
ATOM      5  C   UNL     1      -0.691  11.296  20.350  0.00  0.00    +0.000 A 
ATOM      6  C   UNL     1      -1.532  12.404  20.278  0.00  0.00    +0.000 A 
ATOM      7  C   UNL     1      -0.242  10.730  19.080  0.00  0.00    +0.000 C 
ATOM      8  O   UNL     1      -0.684  11.146  18.012  0.00  0.00    +0.000 OA
ATOM      9  C   UNL     1       0.706   9.624  19.099  0.00  0.00    +0.000 A 
ATOM     10  C   UNL     1       1.300   9.285  17.894  0.00  0.00    +0.000 A 
ATOM     11  C   UNL     1       2.181   8.219  17.850  0.00  0.00    +0.000 A 
ATOM     12  C   UNL     1       2.398   7.381  18.939  0.00  0.00    +0.000 A 
ATOM     13  C   UNL     1       1.831   7.787  20.175  0.00  0.00    +0.000 A 
ATOM     14  C   UNL     1       1.014   8.934  20.267  0.00  0.00    +0.000 A 
ATOM     15  C   UNL     1       0.495   9.464  21.568  0.00  0.00    +0.000 C 
ATOM     16  O   UNL     1       0.768   8.915  22.623  0.00  0.00    +0.000 OA
ENDROOT
BRANCH   1  18
ATOM     17  C   UNL     1      -3.165  15.084  21.228  0.00  0.00    +0.000 C 
ATOM     18  N   UNL     1      -3.290  13.775  21.307  0.00  0.00    +0.000 NA
ATOM     19  N   UNL     1      -4.312  15.880  21.070  0.00  0.00    +0.000 N 
ATOM     20  C   UNL     1      -5.622  15.281  20.783  0.00  0.00    +0.000 C 
ATOM     21  C   UNL     1      -6.125  15.751  19.413  0.00  0.00    +0.000 C 
ATOM     22  C   UNL     1      -6.128  17.276  19.299  0.00  0.00    +0.000 C 
ATOM     23  C   UNL     1      -4.764  17.846  19.674  0.00  0.00    +0.000 C 
ATOM     24  C   UNL     1      -4.335  17.346  21.051  0.00  0.00    +0.000 C 
BRANCH  17  26
ATOM     25  C   UNL     1      -1.202  16.043  19.892  0.00  0.00    +0.000 C 
ATOM     26  C   UNL     1      -1.809  15.824  21.279  0.00  0.00    +0.000 C 
ENDBRANCH  17  26
ENDBRANCH   1  18
BRANCH  12  27
ATOM     27  N   UNL     1       3.219   6.233  18.879  0.00  0.00    +0.000 NA
ATOM     28  C   UNL     1       2.920   5.045  18.398  0.00  0.00    +0.000 C 
ATOM     29  N   UNL     1       3.885   4.034  18.454  0.00  0.00    +0.000 N 
ATOM     30  C   UNL     1       4.064   2.994  17.445  0.00  0.00    +0.000 C 
ATOM     31  C   UNL     1       3.630   1.643  18.000  0.00  0.00    +0.000 C 
ATOM     32  C   UNL     1       4.446   1.313  19.246  0.00  0.00    +0.000 C 
ATOM     33  C   UNL     1       4.364   2.448  20.270  0.00  0.00    +0.000 C 
ATOM     34  C   UNL     1       4.691   3.823  19.661  0.00  0.00    +0.000 C 
BRANCH  28  35
ATOM     35  C   UNL     1       1.537   4.624  17.845  0.00  0.00    +0.000 C 
ATOM     36  C   UNL     1       0.759   3.572  18.635  0.00  0.00    +0.000 C 
ENDBRANCH  28  35
ENDBRANCH  12  27
TORSDOF 4
ENDMDL
MODEL 6
REMARK VINA RESULT:      -8.5      1.317     11.666
REMARK  Name = 
REMARK  6 active torsions:
REMARK  status: ('A' for Active; 'I' for Inactive)
REMARK    1  A    between atoms: C_1  and  C_2
REMARK    2  A    between atoms: C_2  and  C_3
REMARK    3  A    between atoms: N_4  and  C_5
REMARK    4  A    between atoms: C_16  and  N_17
REMARK    5  A    between atoms: C_18  and  C_19
REMARK    6  A    between atoms: C_19  and  C_20
REMARK                            x       y       z     vdW  Elec       q    Type
REMARK                         _______ _______ _______ _____ _____    ______ ____
ROOT
ATOM      1  C   UNL     1       2.300   7.754  18.957  0.00  0.00    +0.000 A 
ATOM      2  C   UNL     1       1.981   8.514  17.823  0.00  0.00    +0.000 A 
ATOM      3  C   UNL     1       1.104   9.626  17.894  0.00  0.00    +0.000 A 
ATOM      4  C   UNL     1       0.499   9.964  19.107  0.00  0.00    +0.000 A 
ATOM      5  C   UNL     1       0.921   9.274  20.233  0.00  0.00    +0.000 A 
ATOM      6  C   UNL     1       1.870   8.256  20.166  0.00  0.00    +0.000 A 
ATOM      7  C   UNL     1       0.312   9.518  21.539  0.00  0.00    +0.000 C 
ATOM      8  O   UNL     1       0.549   8.781  22.493  0.00  0.00    +0.000 OA
ATOM      9  C   UNL     1      -0.624  10.625  21.683  0.00  0.00    +0.000 A 
ATOM     10  C   UNL     1      -0.980  10.984  22.973  0.00  0.00    +0.000 A 
ATOM     11  C   UNL     1      -1.892  12.005  23.164  0.00  0.00    +0.000 A 
ATOM     12  C   UNL     1      -2.577  12.605  22.112  0.00  0.00    +0.000 A 
ATOM     13  C   UNL     1      -2.148  12.268  20.802  0.00  0.00    +0.000 A 
ATOM     14  C   UNL     1      -1.141  11.304  20.584  0.00  0.00    +0.000 A 
ATOM     15  C   UNL     1      -0.576  11.005  19.230  0.00  0.00    +0.000 C 
ATOM     16  O   UNL     1      -0.971  11.601  18.240  0.00  0.00    +0.000 OA
ENDROOT
BRANCH   1  18
ATOM     17  C   UNL     1       2.881   5.472  19.552  0.00  0.00    +0.000 C 
ATOM     18  N   UNL     1       3.040   6.562  18.829  0.00  0.00    +0.000 NA
ATOM     19  N   UNL     1       3.634   4.325  19.246  0.00  0.00    +0.000 N 
ATOM     20  C   UNL     1       4.437   4.244  18.019  0.00  0.00    +0.000 C 
ATOM     21  C   UNL     1       3.910   3.119  17.120  0.00  0.00    +0.000 C 
ATOM     22  C   UNL     1       3.823   1.787  17.865  0.00  0.00    +0.000 C 
ATOM     23  C   UNL     1       3.037   1.947  19.162  0.00  0.00    +0.000 C 
ATOM     24  C   UNL     1       3.625   3.072  20.009  0.00  0.00    +0.000 C 
BRANCH  17  26
ATOM     25  C   UNL     1       0.741   4.385  20.441  0.00  0.00    +0.000 C 
ATOM     26  C   UNL     1       1.887   5.356  20.728  0.00  0.00    +0.000 C 
ENDBRANCH  17  26
ENDBRANCH   1  18
BRANCH  12  27
ATOM     27  N   UNL     1      -3.581  13.581  22.300  0.00  0.00    +0.000 NA
ATOM     28  C   UNL     1      -3.488  14.884  22.137  0.00  0.00    +0.000 C 
ATOM     29  N   UNL     1      -4.611  15.676  22.397  0.00  0.00    +0.000 N 
ATOM     30  C   UNL     1      -4.964  16.889  21.666  0.00  0.00    +0.000 C 
ATOM     31  C   UNL     1      -4.766  18.113  22.552  0.00  0.00    +0.000 C 
ATOM     32  C   UNL     1      -5.626  17.985  23.806  0.00  0.00    +0.000 C 
ATOM     33  C   UNL     1      -5.352  16.661  24.524  0.00  0.00    +0.000 C 
ATOM     34  C   UNL     1      -5.440  15.446  23.584  0.00  0.00    +0.000 C 
BRANCH  28  35
ATOM     35  C   UNL     1      -2.197  15.650  21.762  0.00  0.00    +0.000 C 
ATOM     36  C   UNL     1      -1.392  16.265  22.906  0.00  0.00    +0.000 C 
ENDBRANCH  28  35
ENDBRANCH  12  27
TORSDOF 4
ENDMDL
MODEL 7
REMARK VINA RESULT:      -8.4      1.935     11.545
REMARK  Name = 
REMARK  6 active torsions:
REMARK  status: ('A' for Active; 'I' for Inactive)
REMARK    1  A    between atoms: C_1  and  C_2
REMARK    2  A    between atoms: C_2  and  C_3
REMARK    3  A    between atoms: N_4  and  C_5
REMARK    4  A    between atoms: C_16  and  N_17
REMARK    5  A    between atoms: C_18  and  C_19
REMARK    6  A    between atoms: C_19  and  C_20
REMARK                            x       y       z     vdW  Elec       q    Type
REMARK                         _______ _______ _______ _____ _____    ______ ____
ROOT
ATOM      1  C   UNL     1       2.662   6.965  19.455  0.00  0.00    +0.000 A 
ATOM      2  C   UNL     1       1.961   6.552  20.597  0.00  0.00    +0.000 A 
ATOM      3  C   UNL     1       0.971   7.368  21.200  0.00  0.00    +0.000 A 
ATOM      4  C   UNL     1       0.701   8.638  20.684  0.00  0.00    +0.000 A 
ATOM      5  C   UNL     1       1.320   8.975  19.490  0.00  0.00    +0.000 A 
ATOM      6  C   UNL     1       2.206   8.115  18.846  0.00  0.00    +0.000 A 
ATOM      7  C   UNL     1       1.142  10.298  18.896  0.00  0.00    +0.000 C 
ATOM      8  O   UNL     1       1.832  10.661  17.947  0.00  0.00    +0.000 OA
ATOM      9  C   UNL     1       0.163  11.206  19.481  0.00  0.00    +0.000 A 
ATOM     10  C   UNL     1      -0.159  12.337  18.749  0.00  0.00    +0.000 A 
ATOM     11  C   UNL     1      -1.056  13.250  19.274  0.00  0.00    +0.000 A 
ATOM     12  C   UNL     1      -1.552  13.152  20.571  0.00  0.00    +0.000 A 
ATOM     13  C   UNL     1      -1.259  11.954  21.273  0.00  0.00    +0.000 A 
ATOM     14  C   UNL     1      -0.431  10.958  20.713  0.00  0.00    +0.000 A 
ATOM     15  C   UNL     1      -0.194   9.632  21.367  0.00  0.00    +0.000 C 
ATOM     16  O   UNL     1      -0.723   9.353  22.431  0.00  0.00    +0.000 OA
ENDROOT
BRANCH   1  18
ATOM     17  C   UNL     1       3.687   5.248  18.077  0.00  0.00    +0.000 C 
ATOM     18  N   UNL     1       3.750   6.209  18.976  0.00  0.00    +0.000 NA
ATOM     19  N   UNL     1       4.873   4.644  17.630  0.00  0.00    +0.000 N 
ATOM     20  C   UNL     1       6.190   5.192  17.981  0.00  0.00    +0.000 C 
ATOM     21  C   UNL     1       6.926   5.643  16.714  0.00  0.00    +0.000 C 
ATOM     22  C   UNL     1       7.004   4.528  15.672  0.00  0.00    +0.000 C 
ATOM     23  C   UNL     1       5.619   3.951  15.397  0.00  0.00    +0.000 C 
ATOM     24  C   UNL     1       4.954   3.512  16.699  0.00  0.00    +0.000 C 
BRANCH  17  26
ATOM     25  C   UNL     1       1.699   3.649  18.285  0.00  0.00    +0.000 C 
ATOM     26  C   UNL     1       2.370   4.741  17.450  0.00  0.00    +0.000 C 
ENDBRANCH  17  26
ENDBRANCH   1  18
BRANCH  12  27
ATOM     27  N   UNL     1      -2.391  14.128  21.153  0.00  0.00    +0.000 NA
ATOM     28  C   UNL     1      -2.134  14.913  22.178  0.00  0.00    +0.000 C 
ATOM     29  N   UNL     1      -3.123  15.805  22.607  0.00  0.00    +0.000 N 
ATOM     30  C   UNL     1      -2.868  17.135  23.150  0.00  0.00    +0.000 C 
ATOM     31  C   UNL     1      -3.185  17.165  24.640  0.00  0.00    +0.000 C 
ATOM     32  C   UNL     1      -4.643  16.775  24.864  0.00  0.00    +0.000 C 
ATOM     33  C   UNL     1      -4.959  15.433  24.199  0.00  0.00    +0.000 C 
ATOM     34  C   UNL     1      -4.522  15.383  22.724  0.00  0.00    +0.000 C 
BRANCH  28  35
ATOM     35  C   UNL     1      -0.843  14.880  23.031  0.00  0.00    +0.000 C 
ATOM     36  C   UNL     1       0.408  15.518  22.430  0.00  0.00    +0.000 C 
ENDBRANCH  28  35
ENDBRANCH  12  27
TORSDOF 4
ENDMDL
MODEL 8
REMARK VINA RESULT:      -8.4      0.849      1.188
REMARK  Name = 
REMARK  6 active torsions:
REMARK  status: ('A' for Active; 'I' for Inactive)
REMARK    1  A    between atoms: C_1  and  C_2
REMARK    2  A    between atoms: C_2  and  C_3
REMARK    3  A    between atoms: N_4  and  C_5
REMARK    4  A    between atoms: C_16  and  N_17
REMARK    5  A    between atoms: C_18  and  C_19
REMARK    6  A    between atoms: C_19  and  C_20
REMARK                            x       y       z     vdW  Elec       q    Type
REMARK                         _______ _______ _______ _____ _____    ______ ____
ROOT
ATOM      1  C   UNL     1      -1.924  12.905  21.568  0.00  0.00    +0.000 A 
ATOM      2  C   UNL     1      -1.509  12.328  22.777  0.00  0.00    +0.000 A 
ATOM      3  C   UNL     1      -0.603  11.239  22.811  0.00  0.00    +0.000 A 
ATOM      4  C   UNL     1      -0.132  10.683  21.619  0.00  0.00    +0.000 A 
ATOM      5  C   UNL     1      -0.463  11.342  20.445  0.00  0.00    +0.000 A 
ATOM      6  C   UNL     1      -1.263  12.482  20.435  0.00  0.00    +0.000 A 
ATOM      7  C   UNL     1      -0.062  10.811  19.144  0.00  0.00    +0.000 C 
ATOM      8  O   UNL     1      -0.510  11.286  18.104  0.00  0.00    +0.000 OA
ATOM      9  C   UNL     1       0.844   9.671  19.098  0.00  0.00    +0.000 A 
ATOM     10  C   UNL     1       1.399   9.359  17.868  0.00  0.00    +0.000 A 
ATOM     11  C   UNL     1       2.238   8.264  17.762  0.00  0.00    +0.000 A 
ATOM     12  C   UNL     1       2.446   7.375  18.812  0.00  0.00    +0.000 A 
ATOM     13  C   UNL     1       1.921   7.752  20.075  0.00  0.00    +0.000 A 
ATOM     14  C   UNL     1       1.150   8.923  20.230  0.00  0.00    +0.000 A 
ATOM     15  C   UNL     1       0.678   9.419  21.563  0.00  0.00    +0.000 C 
ATOM     16  O   UNL     1       0.953   8.818  22.589  0.00  0.00    +0.000 OA
ENDROOT
BRANCH   1  18
ATOM     17  C   UNL     1      -4.115  13.772  22.155  0.00  0.00    +0.000 C 
ATOM     18  N   UNL     1      -2.946  13.874  21.557  0.00  0.00    +0.000 NA
ATOM     19  N   UNL     1      -5.001  14.863  22.131  0.00  0.00    +0.000 N 
ATOM     20  C   UNL     1      -4.576  16.180  21.639  0.00  0.00    +0.000 C 
ATOM     21  C   UNL     1      -4.653  17.213  22.769  0.00  0.00    +0.000 C 
ATOM     22  C   UNL     1      -6.033  17.238  23.427  0.00  0.00    +0.000 C 
ATOM     23  C   UNL     1      -6.450  15.835  23.856  0.00  0.00    +0.000 C 
ATOM     24  C   UNL     1      -6.361  14.867  22.679  0.00  0.00    +0.000 C 
BRANCH  17  26
ATOM     25  C   UNL     1      -4.432  12.647  24.432  0.00  0.00    +0.000 C 
ATOM     26  C   UNL     1      -4.585  12.513  22.917  0.00  0.00    +0.000 C 
ENDBRANCH  17  26
ENDBRANCH   1  18
BRANCH  12  27
ATOM     27  N   UNL     1       3.222   6.202  18.688  0.00  0.00    +0.000 NA
ATOM     28  C   UNL     1       2.805   4.971  18.472  0.00  0.00    +0.000 C 
ATOM     29  N   UNL     1       3.751   3.943  18.402  0.00  0.00    +0.000 N 
ATOM     30  C   UNL     1       3.650   2.775  17.532  0.00  0.00    +0.000 C 
ATOM     31  C   UNL     1       3.387   1.524  18.362  0.00  0.00    +0.000 C 
ATOM     32  C   UNL     1       4.512   1.332  19.374  0.00  0.00    +0.000 C 
ATOM     33  C   UNL     1       4.710   2.593  20.218  0.00  0.00    +0.000 C 
ATOM     34  C   UNL     1       4.856   3.864  19.363  0.00  0.00    +0.000 C 
BRANCH  28  35
ATOM     35  C   UNL     1       1.325   4.531  18.377  0.00  0.00    +0.000 C 
ATOM     36  C   UNL     1       0.753   3.741  19.553  0.00  0.00    +0.000 C 
ENDBRANCH  28  35
ENDBRANCH  12  27
TORSDOF 4
ENDMDL
MODEL 9
REMARK VINA RESULT:      -8.1      1.773     11.471
REMARK  Name = 
REMARK  6 active torsions:
REMARK  status: ('A' for Active; 'I' for Inactive)
REMARK    1  A    between atoms: C_1  and  C_2
REMARK    2  A    between atoms: C_2  and  C_3
REMARK    3  A    between atoms: N_4  and  C_5
REMARK    4  A    between atoms: C_16  and  N_17
REMARK    5  A    between atoms: C_18  and  C_19
REMARK    6  A    between atoms: C_19  and  C_20
REMARK                            x       y       z     vdW  Elec       q    Type
REMARK                         _______ _______ _______ _____ _____    ______ ____
ROOT
ATOM      1  C   UNL     1       2.580   6.994  19.589  0.00  0.00    +0.000 A 
ATOM      2  C   UNL     1       1.849   6.647  20.735  0.00  0.00    +0.000 A 
ATOM      3  C   UNL     1       0.883   7.518  21.295  0.00  0.00    +0.000 A 
ATOM      4  C   UNL     1       0.667   8.779  20.733  0.00  0.00    +0.000 A 
ATOM      5  C   UNL     1       1.313   9.052  19.537  0.00  0.00    +0.000 A 
ATOM      6  C   UNL     1       2.176   8.138  18.935  0.00  0.00    +0.000 A 
ATOM      7  C   UNL     1       1.194  10.359  18.896  0.00  0.00    +0.000 C 
ATOM      8  O   UNL     1       1.909  10.664  17.946  0.00  0.00    +0.000 OA
ATOM      9  C   UNL     1       0.242  11.322  19.435  0.00  0.00    +0.000 A 
ATOM     10  C   UNL     1      -0.029  12.439  18.662  0.00  0.00    +0.000 A 
ATOM     11  C   UNL     1      -0.898  13.401  19.142  0.00  0.00    +0.000 A 
ATOM     12  C   UNL     1      -1.414  13.366  20.435  0.00  0.00    +0.000 A 
ATOM     13  C   UNL     1      -1.176  12.183  21.181  0.00  0.00    +0.000 A 
ATOM     14  C   UNL     1      -0.378  11.139  20.667  0.00  0.00    +0.000 A 
ATOM     15  C   UNL     1      -0.199   9.828  21.369  0.00  0.00    +0.000 C 
ATOM     16  O   UNL     1      -0.752   9.606  22.434  0.00  0.00    +0.000 OA
ENDROOT
BRANCH   1  18
ATOM     17  C   UNL     1       3.571   5.234  18.241  0.00  0.00    +0.000 C 
ATOM     18  N   UNL     1       3.645   6.182  19.152  0.00  0.00    +0.000 NA
ATOM     19  N   UNL     1       4.741   4.568  17.841  0.00  0.00    +0.000 N 
ATOM     20  C   UNL     1       6.068   5.039  18.257  0.00  0.00    +0.000 C 
ATOM     21  C   UNL     1       6.885   5.459  17.030  0.00  0.00    +0.000 C 
ATOM     22  C   UNL     1       6.949   4.349  15.980  0.00  0.00    +0.000 C 
ATOM     23  C   UNL     1       5.548   3.853  15.637  0.00  0.00    +0.000 C 
ATOM     24  C   UNL     1       4.801   3.441  16.903  0.00  0.00    +0.000 C 
BRANCH  17  26
ATOM     25  C   UNL     1       1.478   3.763  18.352  0.00  0.00    +0.000 C 
ATOM     26  C   UNL     1       2.258   4.806  17.549  0.00  0.00    +0.000 C 
ENDBRANCH  17  26
ENDBRANCH   1  18
BRANCH  12  27
ATOM     27  N   UNL     1      -2.224  14.392  20.971  0.00  0.00    +0.000 NA
ATOM     28  C   UNL     1      -2.610  14.552  22.219  0.00  0.00    +0.000 C 
ATOM     29  N   UNL     1      -3.434  15.638  22.534  0.00  0.00    +0.000 N 
ATOM     30  C   UNL     1      -3.388  16.384  23.788  0.00  0.00    +0.000 C 
ATOM     31  C   UNL     1      -4.635  16.099  24.615  0.00  0.00    +0.000 C 
ATOM     32  C   UNL     1      -5.880  16.482  23.820  0.00  0.00    +0.000 C 
ATOM     33  C   UNL     1      -5.886  15.797  22.451  0.00  0.00    +0.000 C 
ATOM     34  C   UNL     1      -4.570  15.999  21.679  0.00  0.00    +0.000 C 
BRANCH  28  35
ATOM     35  C   UNL     1      -2.306  13.580  23.384  0.00  0.00    +0.000 C 
ATOM     36  C   UNL     1      -3.435  12.653  23.834  0.00  0.00    +0.000 C 
ENDBRANCH  28  35
ENDBRANCH  12  27
TORSDOF 4
ENDMDL
