MODEL 1
REMARK VINA RESULT:      -6.5      0.000      0.000
REMARK  Name = 
REMARK  9 active torsions:
REMARK  status: ('A' for Active; 'I' for Inactive)
REMARK    1  A    between atoms: C_1  and  C_2
REMARK    2  A    between atoms: C_2  and  O_3
REMARK    3  A    between atoms: O_3  and  C_4
REMARK    4  A    between atoms: C_4  and  C_6
REMARK    5  A    between atoms: C_9  and  N_10
REMARK    6  A    between atoms: C_16  and  C_17
REMARK    7  A    between atoms: C_23  and  C_24
REMARK    8  A    between atoms: C_27  and  C_28
REMARK    9  A    between atoms: C_28  and  C_29
REMARK                            x       y       z     vdW  Elec       q    Type
REMARK                         _______ _______ _______ _____ _____    ______ ____
ROOT
ATOM      1  N   UNL     1      -0.515  10.552  19.728  0.00  0.00    +0.000 N 
ATOM      2  C   UNL     1      -1.757  10.604  19.077  0.00  0.00    +0.000 C 
ATOM      3  O   UNL     1      -2.260   9.824  18.285  0.00  0.00    +0.000 OA
ATOM      4  C   UNL     1      -2.330  11.811  19.547  0.00  0.00    +0.000 A 
ATOM      5  N   UNL     1      -3.457  12.521  19.385  0.00  0.00    +0.000 N 
ATOM      6  N   UNL     1      -3.387  13.711  20.032  0.00  0.00    +0.000 NA
ATOM      7  C   UNL     1      -2.159  13.733  20.599  0.00  0.00    +0.000 A 
ATOM      8  C   UNL     1      -1.486  12.523  20.353  0.00  0.00    +0.000 A 
ATOM      9  C   UNL     1      -0.214  11.778  20.534  0.00  0.00    +0.000 C 
ATOM     10  H   UNL     1      -4.286  12.298  18.845  0.00  0.00    +0.000 HD
ENDROOT
BRANCH   1  14
ATOM     11  C   UNL     1       2.485   7.848  18.556  0.00  0.00    +0.000 A 
ATOM     12  C   UNL     1       1.952   8.760  17.637  0.00  0.00    +0.000 A 
ATOM     13  C   UNL     1       0.948   9.645  18.027  0.00  0.00    +0.000 A 
ATOM     14  C   UNL     1       0.501   9.660  19.350  0.00  0.00    +0.000 A 
ATOM     15  C   UNL     1       1.055   8.783  20.285  0.00  0.00    +0.000 A 
ATOM     16  C   UNL     1       2.029   7.860  19.884  0.00  0.00    +0.000 A 
BRANCH  11  17
ATOM     17  C   UNL     1       3.450   6.845  18.034  0.00  0.00    +0.000 C 
ATOM     18  O   UNL     1       4.165   7.043  17.065  0.00  0.00    +0.000 OA
BRANCH  17  19
ATOM     19  O   UNL     1       3.298   5.666  18.687  0.00  0.00    +0.000 OA
BRANCH  19  21
ATOM     20  C   UNL     1       1.552   4.348  17.745  0.00  0.00    +0.000 C 
ATOM     21  C   UNL     1       3.057   4.539  17.833  0.00  0.00    +0.000 C 
ENDBRANCH  19  21
ENDBRANCH  17  19
ENDBRANCH  11  17
ENDBRANCH   1  14
BRANCH   9  22
ATOM     22  C   UNL     1       0.939  12.602  19.991  0.00  0.00    +0.000 A 
ATOM     23  C   UNL     1       1.959  12.987  20.880  0.00  0.00    +0.000 A 
ATOM     24  C   UNL     1       3.036  13.766  20.450  0.00  0.00    +0.000 A 
ATOM     25  C   UNL     1       3.120  14.188  19.120  0.00  0.00    +0.000 A 
ATOM     26  C   UNL     1       2.127  13.792  18.221  0.00  0.00    +0.000 A 
ATOM     27  C   UNL     1       1.061  12.993  18.646  0.00  0.00    +0.000 A 
BRANCH  25  28
ATOM     28  C   UNL     1       4.276  15.038  18.658  0.00  0.00    +0.000 C 
ATOM     29  C   UNL     1       3.938  15.832  17.406  0.00  0.00    +0.000 C 
ENDBRANCH  25  28
ENDBRANCH   9  22
BRANCH   7  30
ATOM     30  C   UNL     1      -1.645  14.962  21.296  0.00  0.00    +0.000 A 
ATOM     31  C   UNL     1      -0.642  15.766  20.789  0.00  0.00    +0.000 A 
ATOM     32  C   UNL     1      -0.265  16.804  21.693  0.00  0.00    +0.000 A 
ATOM     33  C   UNL     1      -0.999  16.761  22.857  0.00  0.00    +0.000 A 
ATOM     34  S   UNL     1      -2.181  15.531  22.815  0.00  0.00    +0.000 S 
ENDBRANCH   7  30
TORSDOF 7
ENDMDL
MODEL 2
REMARK VINA RESULT:      -6.4      6.122      9.862
REMARK  Name = 
REMARK  9 active torsions:
REMARK  status: ('A' for Active; 'I' for Inactive)
REMARK    1  A    between atoms: C_1  and  C_2
REMARK    2  A    between atoms: C_2  and  O_3
REMARK    3  A    between atoms: O_3  and  C_4
REMARK    4  A    between atoms: C_4  and  C_6
REMARK    5  A    between atoms: C_9  and  N_10
REMARK    6  A    between atoms: C_16  and  C_17
REMARK    7  A    between atoms: C_23  and  C_24
REMARK    8  A    between atoms: C_27  and  C_28
REMARK    9  A    between atoms: C_28  and  C_29
REMARK                            x       y       z     vdW  Elec       q    Type
REMARK                         _______ _______ _______ _____ _____    ______ ____
ROOT
ATOM      1  N   UNL     1       6.595   5.569  17.852  0.00  0.00    +0.000 N 
ATOM      2  C   UNL     1       6.787   4.710  16.759  0.00  0.00    +0.000 C 
ATOM      3  O   UNL     1       7.618   4.749  15.867  0.00  0.00    +0.000 OA
ATOM      4  C   UNL     1       5.761   3.744  16.911  0.00  0.00    +0.000 A 
ATOM      5  N   UNL     1       5.311   2.647  16.284  0.00  0.00    +0.000 N 
ATOM      6  N   UNL     1       4.169   2.187  16.854  0.00  0.00    +0.000 NA
ATOM      7  C   UNL     1       3.905   3.051  17.861  0.00  0.00    +0.000 A 
ATOM      8  C   UNL     1       4.922   4.017  17.955  0.00  0.00    +0.000 A 
ATOM      9  C   UNL     1       5.376   5.244  18.659  0.00  0.00    +0.000 C 
ATOM     10  H   UNL     1       5.685   2.172  15.469  0.00  0.00    +0.000 HD
ENDROOT
BRANCH   1  14
ATOM     11  C   UNL     1       8.441   9.331  18.203  0.00  0.00    +0.000 A 
ATOM     12  C   UNL     1       8.835   8.268  19.023  0.00  0.00    +0.000 A 
ATOM     13  C   UNL     1       8.211   7.026  18.912  0.00  0.00    +0.000 A 
ATOM     14  C   UNL     1       7.220   6.822  17.948  0.00  0.00    +0.000 A 
ATOM     15  C   UNL     1       6.849   7.865  17.097  0.00  0.00    +0.000 A 
ATOM     16  C   UNL     1       7.440   9.127  17.239  0.00  0.00    +0.000 A 
BRANCH  11  17
ATOM     17  C   UNL     1       9.054  10.659  18.473  0.00  0.00    +0.000 C 
ATOM     18  O   UNL     1       8.805  11.658  17.817  0.00  0.00    +0.000 OA
BRANCH  17  19
ATOM     19  O   UNL     1      10.013  10.547  19.424  0.00  0.00    +0.000 OA
BRANCH  19  21
ATOM     20  C   UNL     1      11.924  11.884  19.913  0.00  0.00    +0.000 C 
ATOM     21  C   UNL     1      10.411  11.791  20.018  0.00  0.00    +0.000 C 
ENDBRANCH  19  21
ENDBRANCH  17  19
ENDBRANCH  11  17
ENDBRANCH   1  14
BRANCH   9  22
ATOM     22  C   UNL     1       4.291   6.303  18.584  0.00  0.00    +0.000 A 
ATOM     23  C   UNL     1       3.404   6.425  19.669  0.00  0.00    +0.000 A 
ATOM     24  C   UNL     1       2.368   7.363  19.653  0.00  0.00    +0.000 A 
ATOM     25  C   UNL     1       2.186   8.201  18.549  0.00  0.00    +0.000 A 
ATOM     26  C   UNL     1       3.075   8.107  17.476  0.00  0.00    +0.000 A 
ATOM     27  C   UNL     1       4.125   7.185  17.501  0.00  0.00    +0.000 A 
BRANCH  25  28
ATOM     28  C   UNL     1       1.062   9.206  18.527  0.00  0.00    +0.000 C 
ATOM     29  C   UNL     1       0.677   9.662  19.925  0.00  0.00    +0.000 C 
ENDBRANCH  25  28
ENDBRANCH   9  22
BRANCH   7  30
ATOM     30  C   UNL     1       2.629   2.959  18.652  0.00  0.00    +0.000 A 
ATOM     31  C   UNL     1       1.375   3.168  18.109  0.00  0.00    +0.000 A 
ATOM     32  C   UNL     1       0.342   3.128  19.092  0.00  0.00    +0.000 A 
ATOM     33  C   UNL     1       0.841   2.884  20.350  0.00  0.00    +0.000 A 
ATOM     34  S   UNL     1       2.528   2.626  20.324  0.00  0.00    +0.000 S 
ENDBRANCH   7  30
TORSDOF 7
ENDMDL
MODEL 3
REMARK VINA RESULT:      -6.3      0.584      1.129
REMARK  Name = 
REMARK  9 active torsions:
REMARK  status: ('A' for Active; 'I' for Inactive)
REMARK    1  A    between atoms: C_1  and  C_2
REMARK    2  A    between atoms: C_2  and  O_3
REMARK    3  A    between atoms: O_3  and  C_4
REMARK    4  A    between atoms: C_4  and  C_6
REMARK    5  A    between atoms: C_9  and  N_10
REMARK    6  A    between atoms: C_16  and  C_17
REMARK    7  A    between atoms: C_23  and  C_24
REMARK    8  A    between atoms: C_27  and  C_28
REMARK    9  A    between atoms: C_28  and  C_29
REMARK                            x       y       z     vdW  Elec       q    Type
REMARK                         _______ _______ _______ _____ _____    ______ ____
ROOT
ATOM      1  N   UNL     1      -0.662  10.605  19.777  0.00  0.00    +0.000 N 
ATOM      2  C   UNL     1      -1.880  10.680  19.084  0.00  0.00    +0.000 C 
ATOM      3  O   UNL     1      -2.352   9.931  18.245  0.00  0.00    +0.000 OA
ATOM      4  C   UNL     1      -2.472  11.868  19.579  0.00  0.00    +0.000 A 
ATOM      5  N   UNL     1      -3.595  12.582  19.404  0.00  0.00    +0.000 N 
ATOM      6  N   UNL     1      -3.551  13.746  20.098  0.00  0.00    +0.000 NA
ATOM      7  C   UNL     1      -2.344  13.748  20.710  0.00  0.00    +0.000 A 
ATOM      8  C   UNL     1      -1.660  12.549  20.442  0.00  0.00    +0.000 A 
ATOM      9  C   UNL     1      -0.394  11.799  20.640  0.00  0.00    +0.000 C 
ATOM     10  H   UNL     1      -4.404  12.379  18.826  0.00  0.00    +0.000 HD
ENDROOT
BRANCH   1  14
ATOM     11  C   UNL     1       2.384   7.949  18.615  0.00  0.00    +0.000 A 
ATOM     12  C   UNL     1       1.826   8.838  17.689  0.00  0.00    +0.000 A 
ATOM     13  C   UNL     1       0.807   9.707  18.076  0.00  0.00    +0.000 A 
ATOM     14  C   UNL     1       0.369   9.729  19.402  0.00  0.00    +0.000 A 
ATOM     15  C   UNL     1       0.948   8.875  20.343  0.00  0.00    +0.000 A 
ATOM     16  C   UNL     1       1.937   7.967  19.946  0.00  0.00    +0.000 A 
BRANCH  11  17
ATOM     17  C   UNL     1       3.366   6.959  18.098  0.00  0.00    +0.000 C 
ATOM     18  O   UNL     1       4.103   7.178  17.150  0.00  0.00    +0.000 OA
BRANCH  17  19
ATOM     19  O   UNL     1       3.203   5.768  18.723  0.00  0.00    +0.000 OA
BRANCH  19  21
ATOM     20  C   UNL     1       1.570   4.350  17.724  0.00  0.00    +0.000 C 
ATOM     21  C   UNL     1       3.056   4.646  17.841  0.00  0.00    +0.000 C 
ENDBRANCH  19  21
ENDBRANCH  17  19
ENDBRANCH  11  17
ENDBRANCH   1  14
BRANCH   9  22
ATOM     22  C   UNL     1       0.776  12.645  20.172  0.00  0.00    +0.000 A 
ATOM     23  C   UNL     1       0.738  13.169  18.867  0.00  0.00    +0.000 A 
ATOM     24  C   UNL     1       1.793  13.936  18.366  0.00  0.00    +0.000 A 
ATOM     25  C   UNL     1       2.919  14.195  19.152  0.00  0.00    +0.000 A 
ATOM     26  C   UNL     1       2.959  13.701  20.458  0.00  0.00    +0.000 A 
ATOM     27  C   UNL     1       1.894  12.953  20.968  0.00  0.00    +0.000 A 
BRANCH  25  28
ATOM     28  C   UNL     1       4.063  15.012  18.607  0.00  0.00    +0.000 C 
ATOM     29  C   UNL     1       3.696  15.713  17.309  0.00  0.00    +0.000 C 
ENDBRANCH  25  28
ENDBRANCH   9  22
BRANCH   7  30
ATOM     30  C   UNL     1      -1.859  14.950  21.472  0.00  0.00    +0.000 A 
ATOM     31  C   UNL     1      -2.272  15.261  22.753  0.00  0.00    +0.000 A 
ATOM     32  C   UNL     1      -1.747  16.508  23.207  0.00  0.00    +0.000 A 
ATOM     33  C   UNL     1      -0.946  17.102  22.260  0.00  0.00    +0.000 A 
ATOM     34  S   UNL     1      -0.770  16.122  20.874  0.00  0.00    +0.000 S 
ENDBRANCH   7  30
TORSDOF 7
ENDMDL
MODEL 4
REMARK VINA RESULT:      -6.2      0.692      1.145
REMARK  Name = 
REMARK  9 active torsions:
REMARK  status: ('A' for Active; 'I' for Inactive)
REMARK    1  A    between atoms: C_1  and  C_2
REMARK    2  A    between atoms: C_2  and  O_3
REMARK    3  A    between atoms: O_3  and  C_4
REMARK    4  A    between atoms: C_4  and  C_6
REMARK    5  A    between atoms: C_9  and  N_10
REMARK    6  A    between atoms: C_16  and  C_17
REMARK    7  A    between atoms: C_23  and  C_24
REMARK    8  A    between atoms: C_27  and  C_28
REMARK    9  A    between atoms: C_28  and  C_29
REMARK                            x       y       z     vdW  Elec       q    Type
REMARK                         _______ _______ _______ _____ _____    ______ ____
ROOT
ATOM      1  N   UNL     1      -0.530  10.628  19.781  0.00  0.00    +0.000 N 
ATOM      2  C   UNL     1      -1.771  10.694  19.130  0.00  0.00    +0.000 C 
ATOM      3  O   UNL     1      -2.293   9.910  18.356  0.00  0.00    +0.000 OA
ATOM      4  C   UNL     1      -2.315  11.924  19.577  0.00  0.00    +0.000 A 
ATOM      5  N   UNL     1      -3.426  12.655  19.401  0.00  0.00    +0.000 N 
ATOM      6  N   UNL     1      -3.329  13.857  20.023  0.00  0.00    +0.000 NA
ATOM      7  C   UNL     1      -2.099  13.862  20.588  0.00  0.00    +0.000 A 
ATOM      8  C   UNL     1      -1.455  12.633  20.367  0.00  0.00    +0.000 A 
ATOM      9  C   UNL     1      -0.199  11.862  20.561  0.00  0.00    +0.000 C 
ATOM     10  H   UNL     1      -4.262  12.440  18.867  0.00  0.00    +0.000 HD
ENDROOT
BRANCH   1  14
ATOM     11  C   UNL     1       2.406   7.833  18.661  0.00  0.00    +0.000 A 
ATOM     12  C   UNL     1       1.896   8.740  17.725  0.00  0.00    +0.000 A 
ATOM     13  C   UNL     1       0.913   9.656  18.098  0.00  0.00    +0.000 A 
ATOM     14  C   UNL     1       0.465   9.705  19.420  0.00  0.00    +0.000 A 
ATOM     15  C   UNL     1       0.997   8.832  20.371  0.00  0.00    +0.000 A 
ATOM     16  C   UNL     1       1.949   7.878  19.988  0.00  0.00    +0.000 A 
BRANCH  11  17
ATOM     17  C   UNL     1       3.347   6.797  18.158  0.00  0.00    +0.000 C 
ATOM     18  O   UNL     1       3.554   5.742  18.735  0.00  0.00    +0.000 OA
BRANCH  17  19
ATOM     19  O   UNL     1       4.029   7.266  17.084  0.00  0.00    +0.000 OA
BRANCH  19  21
ATOM     20  C   UNL     1       5.358   5.900  15.655  0.00  0.00    +0.000 C 
ATOM     21  C   UNL     1       5.348   6.723  16.932  0.00  0.00    +0.000 C 
ENDBRANCH  19  21
ENDBRANCH  17  19
ENDBRANCH  11  17
ENDBRANCH   1  14
BRANCH   9  22
ATOM     22  C   UNL     1       0.971  12.649  20.000  0.00  0.00    +0.000 A 
ATOM     23  C   UNL     1       1.996  13.038  20.881  0.00  0.00    +0.000 A 
ATOM     24  C   UNL     1       3.089  13.784  20.433  0.00  0.00    +0.000 A 
ATOM     25  C   UNL     1       3.186  14.167  19.092  0.00  0.00    +0.000 A 
ATOM     26  C   UNL     1       2.187  13.766  18.201  0.00  0.00    +0.000 A 
ATOM     27  C   UNL     1       1.105  13.000  18.644  0.00  0.00    +0.000 A 
BRANCH  25  28
ATOM     28  C   UNL     1       4.359  14.982  18.610  0.00  0.00    +0.000 C 
ATOM     29  C   UNL     1       3.926  16.142  17.728  0.00  0.00    +0.000 C 
ENDBRANCH  25  28
ENDBRANCH   9  22
BRANCH   7  30
ATOM     30  C   UNL     1      -1.556  15.094  21.259  0.00  0.00    +0.000 A 
ATOM     31  C   UNL     1      -0.524  15.855  20.742  0.00  0.00    +0.000 A 
ATOM     32  C   UNL     1      -0.126  16.904  21.623  0.00  0.00    +0.000 A 
ATOM     33  C   UNL     1      -0.872  16.913  22.779  0.00  0.00    +0.000 A 
ATOM     34  S   UNL     1      -2.089  15.717  22.757  0.00  0.00    +0.000 S 
ENDBRANCH   7  30
TORSDOF 7
ENDMDL
MODEL 5
REMARK VINA RESULT:      -6.2      0.628      1.373
REMARK  Name = 
REMARK  9 active torsions:
REMARK  status: ('A' for Active; 'I' for Inactive)
REMARK    1  A    between atoms: C_1  and  C_2
REMARK    2  A    between atoms: C_2  and  O_3
REMARK    3  A    between atoms: O_3  and  C_4
REMARK    4  A    between atoms: C_4  and  C_6
REMARK    5  A    between atoms: C_9  and  N_10
REMARK    6  A    between atoms: C_16  and  C_17
REMARK    7  A    between atoms: C_23  and  C_24
REMARK    8  A    between atoms: C_27  and  C_28
REMARK    9  A    between atoms: C_28  and  C_29
REMARK                            x       y       z     vdW  Elec       q    Type
REMARK                         _______ _______ _______ _____ _____    ______ ____
ROOT
ATOM      1  N   UNL     1      -0.634  10.836  19.903  0.00  0.00    +0.000 N 
ATOM      2  C   UNL     1      -1.896  10.998  19.311  0.00  0.00    +0.000 C 
ATOM      3  O   UNL     1      -2.484  10.287  18.514  0.00  0.00    +0.000 OA
ATOM      4  C   UNL     1      -2.363  12.221  19.853  0.00  0.00    +0.000 A 
ATOM      5  N   UNL     1      -3.445  13.010  19.770  0.00  0.00    +0.000 N 
ATOM      6  N   UNL     1      -3.266  14.165  20.458  0.00  0.00    +0.000 NA
ATOM      7  C   UNL     1      -2.016  14.082  20.969  0.00  0.00    +0.000 A 
ATOM      8  C   UNL     1      -1.439  12.841  20.647  0.00  0.00    +0.000 A 
ATOM      9  C   UNL     1      -0.215  12.005  20.741  0.00  0.00    +0.000 C 
ATOM     10  H   UNL     1      -4.310  12.866  19.260  0.00  0.00    +0.000 HD
ENDROOT
BRANCH   1  14
ATOM     11  C   UNL     1       2.217   8.046  18.571  0.00  0.00    +0.000 A 
ATOM     12  C   UNL     1       1.824   8.074  19.914  0.00  0.00    +0.000 A 
ATOM     13  C   UNL     1       0.888   9.010  20.353  0.00  0.00    +0.000 A 
ATOM     14  C   UNL     1       0.302   9.895  19.446  0.00  0.00    +0.000 A 
ATOM     15  C   UNL     1       0.656   9.848  18.096  0.00  0.00    +0.000 A 
ATOM     16  C   UNL     1       1.632   8.941  17.662  0.00  0.00    +0.000 A 
BRANCH  11  17
ATOM     17  C   UNL     1       3.317   7.116  18.206  0.00  0.00    +0.000 C 
ATOM     18  O   UNL     1       4.186   7.391  17.394  0.00  0.00    +0.000 OA
BRANCH  17  19
ATOM     19  O   UNL     1       3.116   5.904  18.779  0.00  0.00    +0.000 OA
BRANCH  19  21
ATOM     20  C   UNL     1       1.637   4.327  17.779  0.00  0.00    +0.000 C 
ATOM     21  C   UNL     1       3.076   4.807  17.856  0.00  0.00    +0.000 C 
ENDBRANCH  19  21
ENDBRANCH  17  19
ENDBRANCH  11  17
ENDBRANCH   1  14
BRANCH   9  22
ATOM     22  C   UNL     1       0.968  12.771  20.179  0.00  0.00    +0.000 A 
ATOM     23  C   UNL     1       0.910  13.196  18.839  0.00  0.00    +0.000 A 
ATOM     24  C   UNL     1       1.974  13.885  18.253  0.00  0.00    +0.000 A 
ATOM     25  C   UNL     1       3.130  14.164  18.987  0.00  0.00    +0.000 A 
ATOM     26  C   UNL     1       3.191  13.771  20.326  0.00  0.00    +0.000 A 
ATOM     27  C   UNL     1       2.117  13.101  20.920  0.00  0.00    +0.000 A 
BRANCH  25  28
ATOM     28  C   UNL     1       4.284  14.898  18.352  0.00  0.00    +0.000 C 
ATOM     29  C   UNL     1       3.813  15.996  17.412  0.00  0.00    +0.000 C 
ENDBRANCH  25  28
ENDBRANCH   9  22
BRANCH   7  30
ATOM     30  C   UNL     1      -1.389  15.244  21.688  0.00  0.00    +0.000 A 
ATOM     31  C   UNL     1      -0.483  15.105  22.723  0.00  0.00    +0.000 A 
ATOM     32  C   UNL     1      -0.124  16.357  23.305  0.00  0.00    +0.000 A 
ATOM     33  C   UNL     1      -0.762  17.410  22.690  0.00  0.00    +0.000 A 
ATOM     34  S   UNL     1      -1.719  16.890  21.376  0.00  0.00    +0.000 S 
ENDBRANCH   7  30
TORSDOF 7
ENDMDL
MODEL 6
REMARK VINA RESULT:      -6.2      6.320     10.012
REMARK  Name = 
REMARK  9 active torsions:
REMARK  status: ('A' for Active; 'I' for Inactive)
REMARK    1  A    between atoms: C_1  and  C_2
REMARK    2  A    between atoms: C_2  and  O_3
REMARK    3  A    between atoms: O_3  and  C_4
REMARK    4  A    between atoms: C_4  and  C_6
REMARK    5  A    between atoms: C_9  and  N_10
REMARK    6  A    between atoms: C_16  and  C_17
REMARK    7  A    between atoms: C_23  and  C_24
REMARK    8  A    between atoms: C_27  and  C_28
REMARK    9  A    between atoms: C_28  and  C_29
REMARK                            x       y       z     vdW  Elec       q    Type
REMARK                         _______ _______ _______ _____ _____    ______ ____
ROOT
ATOM      1  N   UNL     1       6.763   5.784  17.541  0.00  0.00    +0.000 N 
ATOM      2  C   UNL     1       6.997   5.111  16.332  0.00  0.00    +0.000 C 
ATOM      3  O   UNL     1       7.833   5.319  15.468  0.00  0.00    +0.000 OA
ATOM      4  C   UNL     1       6.010   4.095  16.319  0.00  0.00    +0.000 A 
ATOM      5  N   UNL     1       5.609   3.091  15.525  0.00  0.00    +0.000 N 
ATOM      6  N   UNL     1       4.482   2.506  16.001  0.00  0.00    +0.000 NA
ATOM      7  C   UNL     1       4.175   3.194  17.125  0.00  0.00    +0.000 A 
ATOM      8  C   UNL     1       5.152   4.172  17.380  0.00  0.00    +0.000 A 
ATOM      9  C   UNL     1       5.551   5.293  18.270  0.00  0.00    +0.000 C 
ATOM     10  H   UNL     1       6.008   2.762  14.652  0.00  0.00    +0.000 HD
ENDROOT
BRANCH   1  14
ATOM     11  C   UNL     1       8.513   9.517  18.367  0.00  0.00    +0.000 A 
ATOM     12  C   UNL     1       7.556   9.390  17.354  0.00  0.00    +0.000 A 
ATOM     13  C   UNL     1       6.989   8.148  17.075  0.00  0.00    +0.000 A 
ATOM     14  C   UNL     1       7.337   7.030  17.837  0.00  0.00    +0.000 A 
ATOM     15  C   UNL     1       8.260   7.155  18.877  0.00  0.00    +0.000 A 
ATOM     16  C   UNL     1       8.868   8.391  19.127  0.00  0.00    +0.000 A 
BRANCH  11  17
ATOM     17  C   UNL     1       9.173  10.841  18.514  0.00  0.00    +0.000 C 
ATOM     18  O   UNL     1       8.893  11.811  17.828  0.00  0.00    +0.000 OA
BRANCH  17  19
ATOM     19  O   UNL     1      10.205  10.755  19.390  0.00  0.00    +0.000 OA
BRANCH  19  21
ATOM     20  C   UNL     1      11.583  12.574  20.075  0.00  0.00    +0.000 C 
ATOM     21  C   UNL     1      11.369  11.506  19.015  0.00  0.00    +0.000 C 
ENDBRANCH  19  21
ENDBRANCH  17  19
ENDBRANCH  11  17
ENDBRANCH   1  14
BRANCH   9  22
ATOM     22  C   UNL     1       4.425   6.308  18.344  0.00  0.00    +0.000 A 
ATOM     23  C   UNL     1       3.613   6.320  19.492  0.00  0.00    +0.000 A 
ATOM     24  C   UNL     1       2.545   7.213  19.612  0.00  0.00    +0.000 A 
ATOM     25  C   UNL     1       2.255   8.116  18.584  0.00  0.00    +0.000 A 
ATOM     26  C   UNL     1       3.070   8.131  17.450  0.00  0.00    +0.000 A 
ATOM     27  C   UNL     1       4.152   7.254  17.339  0.00  0.00    +0.000 A 
BRANCH  25  28
ATOM     28  C   UNL     1       1.096   9.072  18.709  0.00  0.00    +0.000 C 
ATOM     29  C   UNL     1       0.735   9.346  20.160  0.00  0.00    +0.000 C 
ENDBRANCH  25  28
ENDBRANCH   9  22
BRANCH   7  30
ATOM     30  C   UNL     1       2.898   2.933  17.874  0.00  0.00    +0.000 A 
ATOM     31  C   UNL     1       1.756   3.698  17.731  0.00  0.00    +0.000 A 
ATOM     32  C   UNL     1       0.721   3.308  18.632  0.00  0.00    +0.000 A 
ATOM     33  C   UNL     1       1.105   2.253  19.427  0.00  0.00    +0.000 A 
ATOM     34  S   UNL     1       2.667   1.695  19.028  0.00  0.00    +0.000 S 
ENDBRANCH   7  30
TORSDOF 7
ENDMDL
MODEL 7
REMARK VINA RESULT:      -6.2      6.239     10.030
REMARK  Name = 
REMARK  9 active torsions:
REMARK  status: ('A' for Active; 'I' for Inactive)
REMARK    1  A    between atoms: C_1  and  C_2
REMARK    2  A    between atoms: C_2  and  O_3
REMARK    3  A    between atoms: O_3  and  C_4
REMARK    4  A    between atoms: C_4  and  C_6
REMARK    5  A    between atoms: C_9  and  N_10
REMARK    6  A    between atoms: C_16  and  C_17
REMARK    7  A    between atoms: C_23  and  C_24
REMARK    8  A    between atoms: C_27  and  C_28
REMARK    9  A    between atoms: C_28  and  C_29
REMARK                            x       y       z     vdW  Elec       q    Type
REMARK                         _______ _______ _______ _____ _____    ______ ____
ROOT
ATOM      1  N   UNL     1       6.797   5.699  17.484  0.00  0.00    +0.000 N 
ATOM      2  C   UNL     1       6.995   5.054  16.254  0.00  0.00    +0.000 C 
ATOM      3  O   UNL     1       7.806   5.282  15.371  0.00  0.00    +0.000 OA
ATOM      4  C   UNL     1       6.007   4.040  16.246  0.00  0.00    +0.000 A 
ATOM      5  N   UNL     1       5.582   3.054  15.441  0.00  0.00    +0.000 N 
ATOM      6  N   UNL     1       4.468   2.459  15.935  0.00  0.00    +0.000 NA
ATOM      7  C   UNL     1       4.195   3.121  17.083  0.00  0.00    +0.000 A 
ATOM      8  C   UNL     1       5.180   4.092  17.333  0.00  0.00    +0.000 A 
ATOM      9  C   UNL     1       5.605   5.192  18.237  0.00  0.00    +0.000 C 
ATOM     10  H   UNL     1       5.956   2.745  14.549  0.00  0.00    +0.000 HD
ENDROOT
BRANCH   1  14
ATOM     11  C   UNL     1       8.511   9.411  18.468  0.00  0.00    +0.000 A 
ATOM     12  C   UNL     1       8.848   8.260  19.189  0.00  0.00    +0.000 A 
ATOM     13  C   UNL     1       8.267   7.034  18.868  0.00  0.00    +0.000 A 
ATOM     14  C   UNL     1       7.380   6.938  17.792  0.00  0.00    +0.000 A 
ATOM     15  C   UNL     1       7.069   8.073  17.040  0.00  0.00    +0.000 A 
ATOM     16  C   UNL     1       7.614   9.315  17.392  0.00  0.00    +0.000 A 
BRANCH  11  17
ATOM     17  C   UNL     1       9.064  10.703  18.955  0.00  0.00    +0.000 C 
ATOM     18  O   UNL     1       9.408  10.891  20.111  0.00  0.00    +0.000 OA
BRANCH  17  19
ATOM     19  O   UNL     1       8.977  11.645  17.984  0.00  0.00    +0.000 OA
BRANCH  19  21
ATOM     20  C   UNL     1      11.285  12.065  17.570  0.00  0.00    +0.000 C 
ATOM     21  C   UNL     1       9.979  12.669  18.057  0.00  0.00    +0.000 C 
ENDBRANCH  19  21
ENDBRANCH  17  19
ENDBRANCH  11  17
ENDBRANCH   1  14
BRANCH   9  22
ATOM     22  C   UNL     1       4.483   6.206  18.366  0.00  0.00    +0.000 A 
ATOM     23  C   UNL     1       3.681   6.168  19.521  0.00  0.00    +0.000 A 
ATOM     24  C   UNL     1       2.617   7.058  19.690  0.00  0.00    +0.000 A 
ATOM     25  C   UNL     1       2.321   8.006  18.707  0.00  0.00    +0.000 A 
ATOM     26  C   UNL     1       3.125   8.071  17.567  0.00  0.00    +0.000 A 
ATOM     27  C   UNL     1       4.204   7.196  17.407  0.00  0.00    +0.000 A 
BRANCH  25  28
ATOM     28  C   UNL     1       1.166   8.958  18.885  0.00  0.00    +0.000 C 
ATOM     29  C   UNL     1       1.403  10.283  18.177  0.00  0.00    +0.000 C 
ENDBRANCH  25  28
ENDBRANCH   9  22
BRANCH   7  30
ATOM     30  C   UNL     1       2.939   2.843  17.862  0.00  0.00    +0.000 A 
ATOM     31  C   UNL     1       1.771   3.565  17.714  0.00  0.00    +0.000 A 
ATOM     32  C   UNL     1       0.764   3.172  18.646  0.00  0.00    +0.000 A 
ATOM     33  C   UNL     1       1.196   2.157  19.468  0.00  0.00    +0.000 A 
ATOM     34  S   UNL     1       2.769   1.637  19.060  0.00  0.00    +0.000 S 
ENDBRANCH   7  30
TORSDOF 7
ENDMDL
MODEL 8
REMARK VINA RESULT:      -6.1      0.785      1.666
REMARK  Name = 
REMARK  9 active torsions:
REMARK  status: ('A' for Active; 'I' for Inactive)
REMARK    1  A    between atoms: C_1  and  C_2
REMARK    2  A    between atoms: C_2  and  O_3
REMARK    3  A    between atoms: O_3  and  C_4
REMARK    4  A    between atoms: C_4  and  C_6
REMARK    5  A    between atoms: C_9  and  N_10
REMARK    6  A    between atoms: C_16  and  C_17
REMARK    7  A    between atoms: C_23  and  C_24
REMARK    8  A    between atoms: C_27  and  C_28
REMARK    9  A    between atoms: C_28  and  C_29
REMARK                            x       y       z     vdW  Elec       q    Type
REMARK                         _______ _______ _______ _____ _____    ______ ____
ROOT
ATOM      1  N   UNL     1      -0.587  10.715  19.854  0.00  0.00    +0.000 N 
ATOM      2  C   UNL     1      -1.842  10.850  19.240  0.00  0.00    +0.000 C 
ATOM      3  O   UNL     1      -2.414  10.110  18.457  0.00  0.00    +0.000 OA
ATOM      4  C   UNL     1      -2.325  12.085  19.737  0.00  0.00    +0.000 A 
ATOM      5  N   UNL     1      -3.410  12.864  19.613  0.00  0.00    +0.000 N 
ATOM      6  N   UNL     1      -3.249  14.042  20.267  0.00  0.00    +0.000 NA
ATOM      7  C   UNL     1      -2.006  13.982  20.798  0.00  0.00    +0.000 A 
ATOM      8  C   UNL     1      -1.416  12.736  20.524  0.00  0.00    +0.000 A 
ATOM      9  C   UNL     1      -0.188  11.912  20.662  0.00  0.00    +0.000 C 
ATOM     10  H   UNL     1      -4.267  12.698  19.095  0.00  0.00    +0.000 HD
ENDROOT
BRANCH   1  14
ATOM     11  C   UNL     1       2.299   7.903  18.653  0.00  0.00    +0.000 A 
ATOM     12  C   UNL     1       1.871   7.957  19.984  0.00  0.00    +0.000 A 
ATOM     13  C   UNL     1       0.924   8.899  20.380  0.00  0.00    +0.000 A 
ATOM     14  C   UNL     1       0.361   9.766  19.440  0.00  0.00    +0.000 A 
ATOM     15  C   UNL     1       0.751   9.694  18.101  0.00  0.00    +0.000 A 
ATOM     16  C   UNL     1       1.739   8.781  17.711  0.00  0.00    +0.000 A 
BRANCH  11  17
ATOM     17  C   UNL     1       3.410   6.968  18.334  0.00  0.00    +0.000 C 
ATOM     18  O   UNL     1       3.743   6.049  19.065  0.00  0.00    +0.000 OA
BRANCH  17  19
ATOM     19  O   UNL     1       4.068   7.382  17.223  0.00  0.00    +0.000 OA
BRANCH  19  21
ATOM     20  C   UNL     1       5.283   5.976  15.732  0.00  0.00    +0.000 C 
ATOM     21  C   UNL     1       5.350   6.769  17.026  0.00  0.00    +0.000 C 
ENDBRANCH  19  21
ENDBRANCH  17  19
ENDBRANCH  11  17
ENDBRANCH   1  14
BRANCH   9  22
ATOM     22  C   UNL     1       0.997  12.669  20.092  0.00  0.00    +0.000 A 
ATOM     23  C   UNL     1       0.989  12.985  18.721  0.00  0.00    +0.000 A 
ATOM     24  C   UNL     1       2.061  13.659  18.129  0.00  0.00    +0.000 A 
ATOM     25  C   UNL     1       3.173  14.031  18.889  0.00  0.00    +0.000 A 
ATOM     26  C   UNL     1       3.183  13.745  20.257  0.00  0.00    +0.000 A 
ATOM     27  C   UNL     1       2.102  13.091  20.854  0.00  0.00    +0.000 A 
BRANCH  25  28
ATOM     28  C   UNL     1       4.334  14.749  18.249  0.00  0.00    +0.000 C 
ATOM     29  C   UNL     1       3.875  15.827  17.280  0.00  0.00    +0.000 C 
ENDBRANCH  25  28
ENDBRANCH   9  22
BRANCH   7  30
ATOM     30  C   UNL     1      -1.397  15.171  21.490  0.00  0.00    +0.000 A 
ATOM     31  C   UNL     1      -0.358  15.913  20.963  0.00  0.00    +0.000 A 
ATOM     32  C   UNL     1       0.107  16.918  21.864  0.00  0.00    +0.000 A 
ATOM     33  C   UNL     1      -0.599  16.912  23.045  0.00  0.00    +0.000 A 
ATOM     34  S   UNL     1      -1.857  15.760  23.026  0.00  0.00    +0.000 S 
ENDBRANCH   7  30
TORSDOF 7
ENDMDL
MODEL 9
REMARK VINA RESULT:      -5.9      0.828      1.025
REMARK  Name = 
REMARK  9 active torsions:
REMARK  status: ('A' for Active; 'I' for Inactive)
REMARK    1  A    between atoms: C_1  and  C_2
REMARK    2  A    between atoms: C_2  and  O_3
REMARK    3  A    between atoms: O_3  and  C_4
REMARK    4  A    between atoms: C_4  and  C_6
REMARK    5  A    between atoms: C_9  and  N_10
REMARK    6  A    between atoms: C_16  and  C_17
REMARK    7  A    between atoms: C_23  and  C_24
REMARK    8  A    between atoms: C_27  and  C_28
REMARK    9  A    between atoms: C_28  and  C_29
REMARK                            x       y       z     vdW  Elec       q    Type
REMARK                         _______ _______ _______ _____ _____    ______ ____
ROOT
ATOM      1  N   UNL     1      -0.687  10.567  19.657  0.00  0.00    +0.000 N 
ATOM      2  C   UNL     1      -1.886  10.611  18.930  0.00  0.00    +0.000 C 
ATOM      3  O   UNL     1      -2.311   9.855  18.072  0.00  0.00    +0.000 OA
ATOM      4  C   UNL     1      -2.528  11.776  19.417  0.00  0.00    +0.000 A 
ATOM      5  N   UNL     1      -3.667  12.457  19.215  0.00  0.00    +0.000 N 
ATOM      6  N   UNL     1      -3.679  13.617  19.918  0.00  0.00    +0.000 NA
ATOM      7  C   UNL     1      -2.490  13.650  20.564  0.00  0.00    +0.000 A 
ATOM      8  C   UNL     1      -1.763  12.474  20.308  0.00  0.00    +0.000 A 
ATOM      9  C   UNL     1      -0.480  11.761  20.537  0.00  0.00    +0.000 C 
ATOM     10  H   UNL     1      -4.452  12.234  18.612  0.00  0.00    +0.000 HD
ENDROOT
BRANCH   1  14
ATOM     11  C   UNL     1       2.471   8.015  18.562  0.00  0.00    +0.000 A 
ATOM     12  C   UNL     1       1.932   8.915  17.636  0.00  0.00    +0.000 A 
ATOM     13  C   UNL     1       0.876   9.750  18.000  0.00  0.00    +0.000 A 
ATOM     14  C   UNL     1       0.381   9.726  19.306  0.00  0.00    +0.000 A 
ATOM     15  C   UNL     1       0.939   8.860  20.249  0.00  0.00    +0.000 A 
ATOM     16  C   UNL     1       1.966   7.986  19.872  0.00  0.00    +0.000 A 
BRANCH  11  17
ATOM     17  C   UNL     1       3.498   7.062  18.063  0.00  0.00    +0.000 C 
ATOM     18  O   UNL     1       3.993   7.132  16.950  0.00  0.00    +0.000 OA
BRANCH  17  19
ATOM     19  O   UNL     1       3.671   6.053  18.952  0.00  0.00    +0.000 OA
BRANCH  19  21
ATOM     20  C   UNL     1       5.876   5.179  19.183  0.00  0.00    +0.000 C 
ATOM     21  C   UNL     1       4.532   5.000  18.496  0.00  0.00    +0.000 C 
ENDBRANCH  19  21
ENDBRANCH  17  19
ENDBRANCH  11  17
ENDBRANCH   1  14
BRANCH   9  22
ATOM     22  C   UNL     1       0.676  12.646  20.108  0.00  0.00    +0.000 A 
ATOM     23  C   UNL     1       1.788  12.751  20.964  0.00  0.00    +0.000 A 
ATOM     24  C   UNL     1       2.874  13.567  20.640  0.00  0.00    +0.000 A 
ATOM     25  C   UNL     1       2.879  14.306  19.453  0.00  0.00    +0.000 A 
ATOM     26  C   UNL     1       1.793  14.191  18.582  0.00  0.00    +0.000 A 
ATOM     27  C   UNL     1       0.715  13.357  18.895  0.00  0.00    +0.000 A 
BRANCH  25  28
ATOM     28  C   UNL     1       4.046  15.196  19.109  0.00  0.00    +0.000 C 
ATOM     29  C   UNL     1       4.185  15.401  17.609  0.00  0.00    +0.000 C 
ENDBRANCH  25  28
ENDBRANCH   9  22
BRANCH   7  30
ATOM     30  C   UNL     1      -2.064  14.859  21.348  0.00  0.00    +0.000 A 
ATOM     31  C   UNL     1      -2.369  16.156  20.982  0.00  0.00    +0.000 A 
ATOM     32  C   UNL     1      -1.756  17.123  21.833  0.00  0.00    +0.000 A 
ATOM     33  C   UNL     1      -1.009  16.531  22.826  0.00  0.00    +0.000 A 
ATOM     34  S   UNL     1      -1.119  14.829  22.771  0.00  0.00    +0.000 S 
ENDBRANCH   7  30
TORSDOF 7
ENDMDL
