MODEL 1
REMARK VINA RESULT:      -8.8      0.000      0.000
REMARK  Name = 
REMARK  11 active torsions:
REMARK  status: ('A' for Active; 'I' for Inactive)
REMARK    1  A    between atoms: C_1  and  O_2
REMARK    2  A    between atoms: O_2  and  C_3
REMARK    3  A    between atoms: C_6  and  S_7
REMARK    4  A    between atoms: S_7  and  N_10
REMARK    5  A    between atoms: N_10  and  C_11
REMARK    6  A    between atoms: N_10  and  C_24
REMARK    7  A    between atoms: C_11  and  C_12
REMARK    8  A    between atoms: C_20  and  C_21
REMARK    9  A    between atoms: C_20  and  C_22
REMARK   10  A    between atoms: C_30  and  O_31
REMARK   11  A    between atoms: O_31  and  C_32
REMARK                            x       y       z     vdW  Elec       q    Type
REMARK                         _______ _______ _______ _____ _____    ______ ____
ROOT
ATOM      1  N   UNL     1       4.274   5.560  18.534  0.00  0.00    +0.000 NA
ENDROOT
BRANCH   1   2
ATOM      2  C   UNL     1       3.605   4.205  18.346  0.00  0.00    +0.000 C 
ATOM      3  C   UNL     1       3.545   3.283  19.563  0.00  0.00    +0.000 C 
ATOM      4  C   UNL     1       2.563   2.190  19.148  0.00  0.00    +0.000 C 
ATOM      5  C   UNL     1       1.612   2.832  18.131  0.00  0.00    +0.000 C 
ATOM      6  C   UNL     1       2.154   4.246  17.872  0.00  0.00    +0.000 C 
ENDBRANCH   1   2
BRANCH   1   7
ATOM      7  S   UNL     1       5.994   5.449  18.307  0.00  0.00    +0.000 S 
ATOM      8  O   UNL     1       6.490   4.445  19.213  0.00  0.00    +0.000 OA
ATOM      9  O   UNL     1       6.541   6.796  18.296  0.00  0.00    +0.000 OA
BRANCH   7  13
ATOM     10  C   UNL     1       6.248   4.010  13.958  0.00  0.00    +0.000 A 
ATOM     11  C   UNL     1       5.307   3.499  14.889  0.00  0.00    +0.000 A 
ATOM     12  C   UNL     1       5.241   3.911  16.210  0.00  0.00    +0.000 A 
ATOM     13  C   UNL     1       6.141   4.861  16.647  0.00  0.00    +0.000 A 
ATOM     14  C   UNL     1       7.082   5.393  15.765  0.00  0.00    +0.000 A 
ATOM     15  C   UNL     1       7.161   4.978  14.406  0.00  0.00    +0.000 A 
BRANCH  10  17
ATOM     16  C   UNL     1       4.800   3.327  12.069  0.00  0.00    +0.000 C 
ATOM     17  O   UNL     1       6.001   3.371  12.788  0.00  0.00    +0.000 OA
ENDBRANCH  10  17
BRANCH  15  18
ATOM     18  O   UNL     1       8.198   5.639  13.828  0.00  0.00    +0.000 OA
ATOM     19  C   UNL     1       8.291   5.913  12.453  0.00  0.00    +0.000 C 
ENDBRANCH  15  18
ENDBRANCH   7  13
ENDBRANCH   1   7
BRANCH   1  20
ATOM     20  C   UNL     1       3.680   6.762  17.837  0.00  0.00    +0.000 C 
BRANCH  20  21
ATOM     21  C   UNL     1       2.447   7.461  18.450  0.00  0.00    +0.000 A 
ATOM     22  C   UNL     1       2.126   7.470  19.826  0.00  0.00    +0.000 A 
ATOM     23  C   UNL     1       1.338   8.522  20.416  0.00  0.00    +0.000 A 
ATOM     24  C   UNL     1       1.025   9.643  19.634  0.00  0.00    +0.000 A 
ATOM     25  C   UNL     1       1.474   9.636  18.310  0.00  0.00    +0.000 A 
ATOM     26  C   UNL     1       1.876   8.457  17.668  0.00  0.00    +0.000 A 
ATOM     27  C   UNL     1       2.203  10.836  17.900  0.00  0.00    +0.000 C 
ATOM     28  C   UNL     1       2.003  11.951  18.592  0.00  0.00    +0.000 C 
ATOM     29  C   UNL     1       0.783  12.065  19.476  0.00  0.00    +0.000 C 
ATOM     30  C   UNL     1       0.932  13.169  20.534  0.00  0.00    +0.000 C 
ATOM     31  C   UNL     1      -0.301  12.572  18.497  0.00  0.00    +0.000 C 
ATOM     32  O   UNL     1       0.489  10.804  20.175  0.00  0.00    +0.000 OA
ENDBRANCH  20  21
ENDBRANCH   1  20
TORSDOF 7
ENDMDL
MODEL 2
REMARK VINA RESULT:      -8.7      1.628      2.406
REMARK  Name = 
REMARK  11 active torsions:
REMARK  status: ('A' for Active; 'I' for Inactive)
REMARK    1  A    between atoms: C_1  and  O_2
REMARK    2  A    between atoms: O_2  and  C_3
REMARK    3  A    between atoms: C_6  and  S_7
REMARK    4  A    between atoms: S_7  and  N_10
REMARK    5  A    between atoms: N_10  and  C_11
REMARK    6  A    between atoms: N_10  and  C_24
REMARK    7  A    between atoms: C_11  and  C_12
REMARK    8  A    between atoms: C_20  and  C_21
REMARK    9  A    between atoms: C_20  and  C_22
REMARK   10  A    between atoms: C_30  and  O_31
REMARK   11  A    between atoms: O_31  and  C_32
REMARK                            x       y       z     vdW  Elec       q    Type
REMARK                         _______ _______ _______ _____ _____    ______ ____
ROOT
ATOM      1  N   UNL     1       3.473   4.800  18.869  0.00  0.00    +0.000 NA
ENDROOT
BRANCH   1   2
ATOM      2  C   UNL     1       2.554   4.290  19.971  0.00  0.00    +0.000 C 
ATOM      3  C   UNL     1       1.265   3.594  19.536  0.00  0.00    +0.000 C 
ATOM      4  C   UNL     1       0.752   2.938  20.817  0.00  0.00    +0.000 C 
ATOM      5  C   UNL     1       1.987   2.657  21.680  0.00  0.00    +0.000 C 
ATOM      6  C   UNL     1       3.178   3.289  20.940  0.00  0.00    +0.000 C 
ENDBRANCH   1   2
BRANCH   1   7
ATOM      7  S   UNL     1       3.585   3.657  17.564  0.00  0.00    +0.000 S 
ATOM      8  O   UNL     1       2.397   3.796  16.760  0.00  0.00    +0.000 OA
ATOM      9  O   UNL     1       3.980   2.371  18.116  0.00  0.00    +0.000 OA
BRANCH   7  13
ATOM     10  C   UNL     1       7.117   5.266  15.118  0.00  0.00    +0.000 A 
ATOM     11  C   UNL     1       6.113   4.428  14.568  0.00  0.00    +0.000 A 
ATOM     12  C   UNL     1       5.057   3.918  15.307  0.00  0.00    +0.000 A 
ATOM     13  C   UNL     1       4.981   4.234  16.648  0.00  0.00    +0.000 A 
ATOM     14  C   UNL     1       5.946   5.058  17.230  0.00  0.00    +0.000 A 
ATOM     15  C   UNL     1       7.035   5.587  16.482  0.00  0.00    +0.000 A 
BRANCH  10  17
ATOM     16  C   UNL     1       7.838   5.197  12.750  0.00  0.00    +0.000 C 
ATOM     17  O   UNL     1       7.963   5.554  14.098  0.00  0.00    +0.000 OA
ENDBRANCH  10  17
BRANCH  15  18
ATOM     18  O   UNL     1       7.815   6.302  17.334  0.00  0.00    +0.000 OA
ATOM     19  C   UNL     1       7.686   7.684  17.550  0.00  0.00    +0.000 C 
ENDBRANCH  15  18
ENDBRANCH   7  13
ENDBRANCH   1   7
BRANCH   1  20
ATOM     20  C   UNL     1       3.291   6.217  18.376  0.00  0.00    +0.000 C 
BRANCH  20  21
ATOM     21  C   UNL     1       2.163   7.087  18.972  0.00  0.00    +0.000 A 
ATOM     22  C   UNL     1       1.964   7.318  20.351  0.00  0.00    +0.000 A 
ATOM     23  C   UNL     1       1.298   8.500  20.836  0.00  0.00    +0.000 A 
ATOM     24  C   UNL     1       0.988   9.518  19.921  0.00  0.00    +0.000 A 
ATOM     25  C   UNL     1       1.319   9.286  18.582  0.00  0.00    +0.000 A 
ATOM     26  C   UNL     1       1.588   8.000  18.095  0.00  0.00    +0.000 A 
ATOM     27  C   UNL     1       2.083  10.357  17.942  0.00  0.00    +0.000 C 
ATOM     28  C   UNL     1       2.014  11.572  18.472  0.00  0.00    +0.000 C 
ATOM     29  C   UNL     1       0.885  11.902  19.422  0.00  0.00    +0.000 C 
ATOM     30  C   UNL     1       1.195  13.133  20.287  0.00  0.00    +0.000 C 
ATOM     31  C   UNL     1      -0.246  12.342  18.464  0.00  0.00    +0.000 C 
ATOM     32  O   UNL     1       0.576  10.781  20.322  0.00  0.00    +0.000 OA
ENDBRANCH  20  21
ENDBRANCH   1  20
TORSDOF 7
ENDMDL
MODEL 3
REMARK VINA RESULT:      -8.6      1.891      3.048
REMARK  Name = 
REMARK  11 active torsions:
REMARK  status: ('A' for Active; 'I' for Inactive)
REMARK    1  A    between atoms: C_1  and  O_2
REMARK    2  A    between atoms: O_2  and  C_3
REMARK    3  A    between atoms: C_6  and  S_7
REMARK    4  A    between atoms: S_7  and  N_10
REMARK    5  A    between atoms: N_10  and  C_11
REMARK    6  A    between atoms: N_10  and  C_24
REMARK    7  A    between atoms: C_11  and  C_12
REMARK    8  A    between atoms: C_20  and  C_21
REMARK    9  A    between atoms: C_20  and  C_22
REMARK   10  A    between atoms: C_30  and  O_31
REMARK   11  A    between atoms: O_31  and  C_32
REMARK                            x       y       z     vdW  Elec       q    Type
REMARK                         _______ _______ _______ _____ _____    ______ ____
ROOT
ATOM      1  N   UNL     1       3.101   4.703  18.689  0.00  0.00    +0.000 NA
ENDROOT
BRANCH   1   2
ATOM      2  C   UNL     1       2.617   4.177  20.034  0.00  0.00    +0.000 C 
ATOM      3  C   UNL     1       1.193   3.626  20.094  0.00  0.00    +0.000 C 
ATOM      4  C   UNL     1       1.134   2.908  21.441  0.00  0.00    +0.000 C 
ATOM      5  C   UNL     1       2.567   2.457  21.750  0.00  0.00    +0.000 C 
ATOM      6  C   UNL     1       3.450   3.051  20.641  0.00  0.00    +0.000 C 
ENDBRANCH   1   2
BRANCH   1   7
ATOM      7  S   UNL     1       3.521   3.400  17.618  0.00  0.00    +0.000 S 
ATOM      8  O   UNL     1       2.428   3.223  16.697  0.00  0.00    +0.000 OA
ATOM      9  O   UNL     1       4.023   2.295  18.418  0.00  0.00    +0.000 OA
BRANCH   7  13
ATOM     10  C   UNL     1       7.061   5.156  15.287  0.00  0.00    +0.000 A 
ATOM     11  C   UNL     1       6.112   4.276  14.706  0.00  0.00    +0.000 A 
ATOM     12  C   UNL     1       5.055   3.722  15.410  0.00  0.00    +0.000 A 
ATOM     13  C   UNL     1       4.921   4.035  16.747  0.00  0.00    +0.000 A 
ATOM     14  C   UNL     1       5.830   4.899  17.359  0.00  0.00    +0.000 A 
ATOM     15  C   UNL     1       6.920   5.474  16.647  0.00  0.00    +0.000 A 
BRANCH  10  17
ATOM     16  C   UNL     1       7.796   5.230  12.923  0.00  0.00    +0.000 C 
ATOM     17  O   UNL     1       7.927   5.479  14.295  0.00  0.00    +0.000 OA
ENDBRANCH  10  17
BRANCH  15  18
ATOM     18  O   UNL     1       7.641   6.223  17.522  0.00  0.00    +0.000 OA
ATOM     19  C   UNL     1       7.774   5.927  18.889  0.00  0.00    +0.000 C 
ENDBRANCH  15  18
ENDBRANCH   7  13
ENDBRANCH   1   7
BRANCH   1  20
ATOM     20  C   UNL     1       2.288   5.774  17.998  0.00  0.00    +0.000 C 
BRANCH  20  21
ATOM     21  C   UNL     1       2.422   7.241  18.459  0.00  0.00    +0.000 A 
ATOM     22  C   UNL     1       2.392   8.363  17.601  0.00  0.00    +0.000 A 
ATOM     23  C   UNL     1       1.982   9.664  18.064  0.00  0.00    +0.000 A 
ATOM     24  C   UNL     1       1.446   9.777  19.356  0.00  0.00    +0.000 A 
ATOM     25  C   UNL     1       1.387   8.608  20.120  0.00  0.00    +0.000 A 
ATOM     26  C   UNL     1       2.142   7.472  19.801  0.00  0.00    +0.000 A 
ATOM     27  C   UNL     1       0.080   8.327  20.717  0.00  0.00    +0.000 C 
ATOM     28  C   UNL     1      -0.761   9.342  20.877  0.00  0.00    +0.000 C 
ATOM     29  C   UNL     1      -0.231  10.757  20.831  0.00  0.00    +0.000 C 
ATOM     30  C   UNL     1      -1.341  11.785  20.563  0.00  0.00    +0.000 C 
ATOM     31  C   UNL     1       0.216  11.000  22.291  0.00  0.00    +0.000 C 
ATOM     32  O   UNL     1       0.803  10.925  19.799  0.00  0.00    +0.000 OA
ENDBRANCH  20  21
ENDBRANCH   1  20
TORSDOF 7
ENDMDL
MODEL 4
REMARK VINA RESULT:      -8.3      2.006      3.243
REMARK  Name = 
REMARK  11 active torsions:
REMARK  status: ('A' for Active; 'I' for Inactive)
REMARK    1  A    between atoms: C_1  and  O_2
REMARK    2  A    between atoms: O_2  and  C_3
REMARK    3  A    between atoms: C_6  and  S_7
REMARK    4  A    between atoms: S_7  and  N_10
REMARK    5  A    between atoms: N_10  and  C_11
REMARK    6  A    between atoms: N_10  and  C_24
REMARK    7  A    between atoms: C_11  and  C_12
REMARK    8  A    between atoms: C_20  and  C_21
REMARK    9  A    between atoms: C_20  and  C_22
REMARK   10  A    between atoms: C_30  and  O_31
REMARK   11  A    between atoms: O_31  and  C_32
REMARK                            x       y       z     vdW  Elec       q    Type
REMARK                         _______ _______ _______ _____ _____    ______ ____
ROOT
ATOM      1  N   UNL     1       2.667   4.315  18.906  0.00  0.00    +0.000 NA
ENDROOT
BRANCH   1   2
ATOM      2  C   UNL     1       2.262   3.267  19.933  0.00  0.00    +0.000 C 
ATOM      3  C   UNL     1       3.296   2.898  20.997  0.00  0.00    +0.000 C 
ATOM      4  C   UNL     1       2.497   2.100  22.025  0.00  0.00    +0.000 C 
ATOM      5  C   UNL     1       1.054   2.612  21.938  0.00  0.00    +0.000 C 
ATOM      6  C   UNL     1       1.020   3.596  20.758  0.00  0.00    +0.000 C 
ENDBRANCH   1   2
BRANCH   1   7
ATOM      7  S   UNL     1       3.365   3.578  17.495  0.00  0.00    +0.000 S 
ATOM      8  O   UNL     1       2.387   3.648  16.439  0.00  0.00    +0.000 OA
ATOM      9  O   UNL     1       3.964   2.314  17.889  0.00  0.00    +0.000 OA
BRANCH   7  13
ATOM     10  C   UNL     1       6.966   6.274  16.595  0.00  0.00    +0.000 A 
ATOM     11  C   UNL     1       6.205   6.372  17.788  0.00  0.00    +0.000 A 
ATOM     12  C   UNL     1       5.101   5.579  18.056  0.00  0.00    +0.000 A 
ATOM     13  C   UNL     1       4.716   4.650  17.111  0.00  0.00    +0.000 A 
ATOM     14  C   UNL     1       5.438   4.516  15.924  0.00  0.00    +0.000 A 
ATOM     15  C   UNL     1       6.573   5.326  15.637  0.00  0.00    +0.000 A 
BRANCH  10  17
ATOM     16  C   UNL     1       8.032   8.267  17.606  0.00  0.00    +0.000 C 
ATOM     17  O   UNL     1       7.949   7.201  16.702  0.00  0.00    +0.000 OA
ENDBRANCH  10  17
BRANCH  15  18
ATOM     18  O   UNL     1       7.022   4.990  14.400  0.00  0.00    +0.000 OA
ATOM     19  C   UNL     1       6.402   4.045  13.566  0.00  0.00    +0.000 C 
ENDBRANCH  15  18
ENDBRANCH   7  13
ENDBRANCH   1   7
BRANCH   1  20
ATOM     20  C   UNL     1       1.677   5.402  18.555  0.00  0.00    +0.000 C 
BRANCH  20  21
ATOM     21  C   UNL     1       2.123   6.879  18.609  0.00  0.00    +0.000 A 
ATOM     22  C   UNL     1       2.288   7.714  17.482  0.00  0.00    +0.000 A 
ATOM     23  C   UNL     1       2.169   9.147  17.573  0.00  0.00    +0.000 A 
ATOM     24  C   UNL     1       1.717   9.707  18.778  0.00  0.00    +0.000 A 
ATOM     25  C   UNL     1       1.451   8.820  19.825  0.00  0.00    +0.000 A 
ATOM     26  C   UNL     1       1.948   7.510  19.835  0.00  0.00    +0.000 A 
ATOM     27  C   UNL     1       0.139   8.983  20.453  0.00  0.00    +0.000 C 
ATOM     28  C   UNL     1      -0.471  10.154  20.321  0.00  0.00    +0.000 C 
ATOM     29  C   UNL     1       0.332  11.365  19.908  0.00  0.00    +0.000 C 
ATOM     30  C   UNL     1      -0.556  12.491  19.355  0.00  0.00    +0.000 C 
ATOM     31  C   UNL     1       0.875  11.890  21.257  0.00  0.00    +0.000 C 
ATOM     32  O   UNL     1       1.338  11.038  18.886  0.00  0.00    +0.000 OA
ENDBRANCH  20  21
ENDBRANCH   1  20
TORSDOF 7
ENDMDL
MODEL 5
REMARK VINA RESULT:      -8.2      1.551      2.408
REMARK  Name = 
REMARK  11 active torsions:
REMARK  status: ('A' for Active; 'I' for Inactive)
REMARK    1  A    between atoms: C_1  and  O_2
REMARK    2  A    between atoms: O_2  and  C_3
REMARK    3  A    between atoms: C_6  and  S_7
REMARK    4  A    between atoms: S_7  and  N_10
REMARK    5  A    between atoms: N_10  and  C_11
REMARK    6  A    between atoms: N_10  and  C_24
REMARK    7  A    between atoms: C_11  and  C_12
REMARK    8  A    between atoms: C_20  and  C_21
REMARK    9  A    between atoms: C_20  and  C_22
REMARK   10  A    between atoms: C_30  and  O_31
REMARK   11  A    between atoms: O_31  and  C_32
REMARK                            x       y       z     vdW  Elec       q    Type
REMARK                         _______ _______ _______ _____ _____    ______ ____
ROOT
ATOM      1  N   UNL     1       3.628   4.751  18.851  0.00  0.00    +0.000 NA
ENDROOT
BRANCH   1   2
ATOM      2  C   UNL     1       2.840   4.251  20.054  0.00  0.00    +0.000 C 
ATOM      3  C   UNL     1       1.431   3.719  19.790  0.00  0.00    +0.000 C 
ATOM      4  C   UNL     1       1.053   3.020  21.094  0.00  0.00    +0.000 C 
ATOM      5  C   UNL     1       2.368   2.554  21.728  0.00  0.00    +0.000 C 
ATOM      6  C   UNL     1       3.492   3.121  20.846  0.00  0.00    +0.000 C 
ENDBRANCH   1   2
BRANCH   1   7
ATOM      7  S   UNL     1       3.483   3.662  17.505  0.00  0.00    +0.000 S 
ATOM      8  O   UNL     1       2.205   3.903  16.885  0.00  0.00    +0.000 OA
ATOM      9  O   UNL     1       3.870   2.333  17.948  0.00  0.00    +0.000 OA
BRANCH   7  13
ATOM     10  C   UNL     1       6.910   4.927  14.729  0.00  0.00    +0.000 A 
ATOM     11  C   UNL     1       6.918   5.168  16.127  0.00  0.00    +0.000 A 
ATOM     12  C   UNL     1       5.876   4.811  16.968  0.00  0.00    +0.000 A 
ATOM     13  C   UNL     1       4.769   4.197  16.418  0.00  0.00    +0.000 A 
ATOM     14  C   UNL     1       4.720   3.938  15.047  0.00  0.00    +0.000 A 
ATOM     15  C   UNL     1       5.784   4.300  14.173  0.00  0.00    +0.000 A 
BRANCH  10  17
ATOM     16  C   UNL     1       8.421   5.725  12.937  0.00  0.00    +0.000 C 
ATOM     17  O   UNL     1       8.086   5.411  14.260  0.00  0.00    +0.000 OA
ENDBRANCH  10  17
BRANCH  15  18
ATOM     18  O   UNL     1       5.418   3.960  12.910  0.00  0.00    +0.000 OA
ATOM     19  C   UNL     1       6.065   2.980  12.138  0.00  0.00    +0.000 C 
ENDBRANCH  15  18
ENDBRANCH   7  13
ENDBRANCH   1   7
BRANCH   1  20
ATOM     20  C   UNL     1       3.473   6.197  18.438  0.00  0.00    +0.000 C 
BRANCH  20  21
ATOM     21  C   UNL     1       2.295   7.023  18.999  0.00  0.00    +0.000 A 
ATOM     22  C   UNL     1       2.048   7.249  20.371  0.00  0.00    +0.000 A 
ATOM     23  C   UNL     1       1.321   8.404  20.833  0.00  0.00    +0.000 A 
ATOM     24  C   UNL     1       0.997   9.406  19.906  0.00  0.00    +0.000 A 
ATOM     25  C   UNL     1       1.374   9.185  18.578  0.00  0.00    +0.000 A 
ATOM     26  C   UNL     1       1.709   7.910  18.103  0.00  0.00    +0.000 A 
ATOM     27  C   UNL     1       2.112  10.284  17.955  0.00  0.00    +0.000 C 
ATOM     28  C   UNL     1       1.980  11.497  18.480  0.00  0.00    +0.000 C 
ATOM     29  C   UNL     1       0.812  11.783  19.396  0.00  0.00    +0.000 C 
ATOM     30  C   UNL     1       1.048  13.028  20.265  0.00  0.00    +0.000 C 
ATOM     31  C   UNL     1      -0.308  12.175  18.405  0.00  0.00    +0.000 C 
ATOM     32  O   UNL     1       0.523  10.653  20.291  0.00  0.00    +0.000 OA
ENDBRANCH  20  21
ENDBRANCH   1  20
TORSDOF 7
ENDMDL
MODEL 6
REMARK VINA RESULT:      -8.1      1.596      2.533
REMARK  Name = 
REMARK  11 active torsions:
REMARK  status: ('A' for Active; 'I' for Inactive)
REMARK    1  A    between atoms: C_1  and  O_2
REMARK    2  A    between atoms: O_2  and  C_3
REMARK    3  A    between atoms: C_6  and  S_7
REMARK    4  A    between atoms: S_7  and  N_10
REMARK    5  A    between atoms: N_10  and  C_11
REMARK    6  A    between atoms: N_10  and  C_24
REMARK    7  A    between atoms: C_11  and  C_12
REMARK    8  A    between atoms: C_20  and  C_21
REMARK    9  A    between atoms: C_20  and  C_22
REMARK   10  A    between atoms: C_30  and  O_31
REMARK   11  A    between atoms: O_31  and  C_32
REMARK                            x       y       z     vdW  Elec       q    Type
REMARK                         _______ _______ _______ _____ _____    ______ ____
ROOT
ATOM      1  N   UNL     1       3.373   4.663  19.248  0.00  0.00    +0.000 NA
ENDROOT
BRANCH   1   2
ATOM      2  C   UNL     1       2.348   3.553  19.431  0.00  0.00    +0.000 C 
ATOM      3  C   UNL     1       1.126   3.868  20.292  0.00  0.00    +0.000 C 
ATOM      4  C   UNL     1       0.172   2.707  20.017  0.00  0.00    +0.000 C 
ATOM      5  C   UNL     1       0.499   2.211  18.604  0.00  0.00    +0.000 C 
ATOM      6  C   UNL     1       1.733   3.005  18.146  0.00  0.00    +0.000 C 
ENDBRANCH   1   2
BRANCH   1   7
ATOM      7  S   UNL     1       4.995   4.048  19.354  0.00  0.00    +0.000 S 
ATOM      8  O   UNL     1       4.909   2.618  19.516  0.00  0.00    +0.000 OA
ATOM      9  O   UNL     1       5.736   4.872  20.294  0.00  0.00    +0.000 OA
BRANCH   7  13
ATOM     10  C   UNL     1       6.597   5.062  15.177  0.00  0.00    +0.000 A 
ATOM     11  C   UNL     1       5.784   3.930  15.440  0.00  0.00    +0.000 A 
ATOM     12  C   UNL     1       5.317   3.604  16.703  0.00  0.00    +0.000 A 
ATOM     13  C   UNL     1       5.667   4.415  17.762  0.00  0.00    +0.000 A 
ATOM     14  C   UNL     1       6.463   5.542  17.549  0.00  0.00    +0.000 A 
ATOM     15  C   UNL     1       6.949   5.888  16.256  0.00  0.00    +0.000 A 
BRANCH  10  17
ATOM     16  C   UNL     1       6.522   4.039  12.923  0.00  0.00    +0.000 C 
ATOM     17  O   UNL     1       6.845   5.043  13.844  0.00  0.00    +0.000 OA
ENDBRANCH  10  17
BRANCH  15  18
ATOM     18  O   UNL     1       7.724   6.996  16.386  0.00  0.00    +0.000 OA
ATOM     19  C   UNL     1       7.782   7.786  17.546  0.00  0.00    +0.000 C 
ENDBRANCH  15  18
ENDBRANCH   7  13
ENDBRANCH   1   7
BRANCH   1  20
ATOM     20  C   UNL     1       3.199   5.623  18.094  0.00  0.00    +0.000 C 
BRANCH  20  21
ATOM     21  C   UNL     1       2.993   7.126  18.383  0.00  0.00    +0.000 A 
ATOM     22  C   UNL     1       2.568   8.080  17.432  0.00  0.00    +0.000 A 
ATOM     23  C   UNL     1       1.886   9.289  17.819  0.00  0.00    +0.000 A 
ATOM     24  C   UNL     1       1.494   9.437  19.159  0.00  0.00    +0.000 A 
ATOM     25  C   UNL     1       1.834   8.402  20.035  0.00  0.00    +0.000 A 
ATOM     26  C   UNL     1       2.821   7.458  19.722  0.00  0.00    +0.000 A 
ATOM     27  C   UNL     1       0.727   7.888  20.842  0.00  0.00    +0.000 C 
ATOM     28  C   UNL     1      -0.327   8.674  21.022  0.00  0.00    +0.000 C 
ATOM     29  C   UNL     1      -0.198  10.157  20.760  0.00  0.00    +0.000 C 
ATOM     30  C   UNL     1      -1.564  10.832  20.557  0.00  0.00    +0.000 C 
ATOM     31  C   UNL     1       0.335  10.696  22.107  0.00  0.00    +0.000 C 
ATOM     32  O   UNL     1       0.627  10.438  19.575  0.00  0.00    +0.000 OA
ENDBRANCH  20  21
ENDBRANCH   1  20
TORSDOF 7
ENDMDL
MODEL 7
REMARK VINA RESULT:      -8.0      4.428     10.695
REMARK  Name = 
REMARK  11 active torsions:
REMARK  status: ('A' for Active; 'I' for Inactive)
REMARK    1  A    between atoms: C_1  and  O_2
REMARK    2  A    between atoms: O_2  and  C_3
REMARK    3  A    between atoms: C_6  and  S_7
REMARK    4  A    between atoms: S_7  and  N_10
REMARK    5  A    between atoms: N_10  and  C_11
REMARK    6  A    between atoms: N_10  and  C_24
REMARK    7  A    between atoms: C_11  and  C_12
REMARK    8  A    between atoms: C_20  and  C_21
REMARK    9  A    between atoms: C_20  and  C_22
REMARK   10  A    between atoms: C_30  and  O_31
REMARK   11  A    between atoms: O_31  and  C_32
REMARK                            x       y       z     vdW  Elec       q    Type
REMARK                         _______ _______ _______ _____ _____    ______ ____
ROOT
ATOM      1  N   UNL     1       0.417  11.154  18.987  0.00  0.00    +0.000 NA
ENDROOT
BRANCH   1   2
ATOM      2  C   UNL     1       1.150  12.478  18.825  0.00  0.00    +0.000 C 
ATOM      3  C   UNL     1       1.570  13.203  20.104  0.00  0.00    +0.000 C 
ATOM      4  C   UNL     1       2.531  14.285  19.615  0.00  0.00    +0.000 C 
ATOM      5  C   UNL     1       3.163  13.746  18.326  0.00  0.00    +0.000 C 
ATOM      6  C   UNL     1       2.446  12.421  18.020  0.00  0.00    +0.000 C 
ENDBRANCH   1   2
BRANCH   1   7
ATOM      7  S   UNL     1      -1.278  11.326  18.642  0.00  0.00    +0.000 S 
ATOM      8  O   UNL     1      -1.802  10.013  18.369  0.00  0.00    +0.000 OA
ATOM      9  O   UNL     1      -1.443  12.419  17.698  0.00  0.00    +0.000 OA
BRANCH   7  13
ATOM     10  C   UNL     1      -2.878  12.956  22.621  0.00  0.00    +0.000 A 
ATOM     11  C   UNL     1      -1.757  12.091  22.534  0.00  0.00    +0.000 A 
ATOM     12  C   UNL     1      -1.283  11.575  21.339  0.00  0.00    +0.000 A 
ATOM     13  C   UNL     1      -1.939  11.912  20.173  0.00  0.00    +0.000 A 
ATOM     14  C   UNL     1      -3.044  12.764  20.211  0.00  0.00    +0.000 A 
ATOM     15  C   UNL     1      -3.541  13.300  21.432  0.00  0.00    +0.000 A 
BRANCH  10  17
ATOM     16  C   UNL     1      -2.687  14.424  24.606  0.00  0.00    +0.000 C 
ATOM     17  O   UNL     1      -3.029  13.242  23.938  0.00  0.00    +0.000 OA
ENDBRANCH  10  17
BRANCH  15  18
ATOM     18  O   UNL     1      -4.640  14.044  21.144  0.00  0.00    +0.000 OA
ATOM     19  C   UNL     1      -5.893  13.872  21.756  0.00  0.00    +0.000 C 
ENDBRANCH  15  18
ENDBRANCH   7  13
ENDBRANCH   1   7
BRANCH   1  20
ATOM     20  C   UNL     1       1.009   9.919  18.349  0.00  0.00    +0.000 C 
BRANCH  20  21
ATOM     21  C   UNL     1       1.678   8.851  19.242  0.00  0.00    +0.000 A 
ATOM     22  C   UNL     1       1.208   8.453  20.514  0.00  0.00    +0.000 A 
ATOM     23  C   UNL     1       1.496   7.150  21.057  0.00  0.00    +0.000 A 
ATOM     24  C   UNL     1       2.119   6.202  20.231  0.00  0.00    +0.000 A 
ATOM     25  C   UNL     1       2.453   6.614  18.937  0.00  0.00    +0.000 A 
ATOM     26  C   UNL     1       2.525   7.968  18.583  0.00  0.00    +0.000 A 
ATOM     27  C   UNL     1       1.995   5.725  17.869  0.00  0.00    +0.000 C 
ATOM     28  C   UNL     1       1.730   4.463  18.183  0.00  0.00    +0.000 C 
ATOM     29  C   UNL     1       2.274   3.890  19.472  0.00  0.00    +0.000 C 
ATOM     30  C   UNL     1       1.519   2.626  19.911  0.00  0.00    +0.000 C 
ATOM     31  C   UNL     1       3.685   3.409  19.061  0.00  0.00    +0.000 C 
ATOM     32  O   UNL     1       2.215   4.861  20.575  0.00  0.00    +0.000 OA
ENDBRANCH  20  21
ENDBRANCH   1  20
TORSDOF 7
ENDMDL
MODEL 8
REMARK VINA RESULT:      -8.0      1.997      3.404
REMARK  Name = 
REMARK  11 active torsions:
REMARK  status: ('A' for Active; 'I' for Inactive)
REMARK    1  A    between atoms: C_1  and  O_2
REMARK    2  A    between atoms: O_2  and  C_3
REMARK    3  A    between atoms: C_6  and  S_7
REMARK    4  A    between atoms: S_7  and  N_10
REMARK    5  A    between atoms: N_10  and  C_11
REMARK    6  A    between atoms: N_10  and  C_24
REMARK    7  A    between atoms: C_11  and  C_12
REMARK    8  A    between atoms: C_20  and  C_21
REMARK    9  A    between atoms: C_20  and  C_22
REMARK   10  A    between atoms: C_30  and  O_31
REMARK   11  A    between atoms: O_31  and  C_32
REMARK                            x       y       z     vdW  Elec       q    Type
REMARK                         _______ _______ _______ _____ _____    ______ ____
ROOT
ATOM      1  N   UNL     1       3.237   4.241  19.302  0.00  0.00    +0.000 NA
ENDROOT
BRANCH   1   2
ATOM      2  C   UNL     1       2.470   3.295  20.215  0.00  0.00    +0.000 C 
ATOM      3  C   UNL     1       2.294   3.723  21.671  0.00  0.00    +0.000 C 
ATOM      4  C   UNL     1       1.244   2.755  22.214  0.00  0.00    +0.000 C 
ATOM      5  C   UNL     1       0.384   2.339  21.015  0.00  0.00    +0.000 C 
ATOM      6  C   UNL     1       1.046   2.965  19.777  0.00  0.00    +0.000 C 
ENDBRANCH   1   2
BRANCH   1   7
ATOM      7  S   UNL     1       4.521   3.414  18.472  0.00  0.00    +0.000 S 
ATOM      8  O   UNL     1       3.938   2.710  17.359  0.00  0.00    +0.000 OA
ATOM      9  O   UNL     1       5.335   2.727  19.460  0.00  0.00    +0.000 OA
BRANCH   7  13
ATOM     10  C   UNL     1       7.249   6.773  16.947  0.00  0.00    +0.000 A 
ATOM     11  C   UNL     1       6.899   6.621  18.313  0.00  0.00    +0.000 A 
ATOM     12  C   UNL     1       6.056   5.624  18.778  0.00  0.00    +0.000 A 
ATOM     13  C   UNL     1       5.522   4.738  17.865  0.00  0.00    +0.000 A 
ATOM     14  C   UNL     1       5.842   4.848  16.511  0.00  0.00    +0.000 A 
ATOM     15  C   UNL     1       6.706   5.868  16.021  0.00  0.00    +0.000 A 
BRANCH  10  17
ATOM     16  C   UNL     1       8.318   8.800  17.885  0.00  0.00    +0.000 C 
ATOM     17  O   UNL     1       8.079   7.843  16.891  0.00  0.00    +0.000 OA
ENDBRANCH  10  17
BRANCH  15  18
ATOM     18  O   UNL     1       6.781   5.737  14.671  0.00  0.00    +0.000 OA
ATOM     19  C   UNL     1       6.890   4.507  14.002  0.00  0.00    +0.000 C 
ENDBRANCH  15  18
ENDBRANCH   7  13
ENDBRANCH   1   7
BRANCH   1  20
ATOM     20  C   UNL     1       2.453   5.151  18.383  0.00  0.00    +0.000 C 
BRANCH  20  21
ATOM     21  C   UNL     1       2.525   6.680  18.589  0.00  0.00    +0.000 A 
ATOM     22  C   UNL     1       2.284   7.642  17.584  0.00  0.00    +0.000 A 
ATOM     23  C   UNL     1       1.834   8.974  17.898  0.00  0.00    +0.000 A 
ATOM     24  C   UNL     1       1.473   9.264  19.223  0.00  0.00    +0.000 A 
ATOM     25  C   UNL     1       1.617   8.234  20.157  0.00  0.00    +0.000 A 
ATOM     26  C   UNL     1       2.414   7.110  19.907  0.00  0.00    +0.000 A 
ATOM     27  C   UNL     1       0.433   7.976  20.977  0.00  0.00    +0.000 C 
ATOM     28  C   UNL     1      -0.460   8.950  21.103  0.00  0.00    +0.000 C 
ATOM     29  C   UNL     1      -0.062  10.368  20.763  0.00  0.00    +0.000 C 
ATOM     30  C   UNL     1      -1.280  11.269  20.508  0.00  0.00    +0.000 C 
ATOM     31  C   UNL     1       0.559  10.873  22.086  0.00  0.00    +0.000 C 
ATOM     32  O   UNL     1       0.803  10.428  19.575  0.00  0.00    +0.000 OA
ENDBRANCH  20  21
ENDBRANCH   1  20
TORSDOF 7
ENDMDL
MODEL 9
REMARK VINA RESULT:      -8.0      1.291      1.758
REMARK  Name = 
REMARK  11 active torsions:
REMARK  status: ('A' for Active; 'I' for Inactive)
REMARK    1  A    between atoms: C_1  and  O_2
REMARK    2  A    between atoms: O_2  and  C_3
REMARK    3  A    between atoms: C_6  and  S_7
REMARK    4  A    between atoms: S_7  and  N_10
REMARK    5  A    between atoms: N_10  and  C_11
REMARK    6  A    between atoms: N_10  and  C_24
REMARK    7  A    between atoms: C_11  and  C_12
REMARK    8  A    between atoms: C_20  and  C_21
REMARK    9  A    between atoms: C_20  and  C_22
REMARK   10  A    between atoms: C_30  and  O_31
REMARK   11  A    between atoms: O_31  and  C_32
REMARK                            x       y       z     vdW  Elec       q    Type
REMARK                         _______ _______ _______ _____ _____    ______ ____
ROOT
ATOM      1  N   UNL     1       3.633   4.758  19.621  0.00  0.00    +0.000 NA
ENDROOT
BRANCH   1   2
ATOM      2  C   UNL     1       2.637   3.655  19.292  0.00  0.00    +0.000 C 
ATOM      3  C   UNL     1       1.607   3.304  20.365  0.00  0.00    +0.000 C 
ATOM      4  C   UNL     1       0.593   2.430  19.630  0.00  0.00    +0.000 C 
ATOM      5  C   UNL     1       0.635   2.868  18.161  0.00  0.00    +0.000 C 
ATOM      6  C   UNL     1       1.778   3.890  18.052  0.00  0.00    +0.000 C 
ENDBRANCH   1   2
BRANCH   1   7
ATOM      7  S   UNL     1       5.268   4.169  19.560  0.00  0.00    +0.000 S 
ATOM      8  O   UNL     1       5.223   2.739  19.729  0.00  0.00    +0.000 OA
ATOM      9  O   UNL     1       6.088   5.008  20.418  0.00  0.00    +0.000 OA
BRANCH   7  13
ATOM     10  C   UNL     1       6.418   5.211  15.242  0.00  0.00    +0.000 A 
ATOM     11  C   UNL     1       5.595   4.106  15.579  0.00  0.00    +0.000 A 
ATOM     12  C   UNL     1       5.264   3.770  16.881  0.00  0.00    +0.000 A 
ATOM     13  C   UNL     1       5.766   4.545  17.907  0.00  0.00    +0.000 A 
ATOM     14  C   UNL     1       6.577   5.644  17.622  0.00  0.00    +0.000 A 
ATOM     15  C   UNL     1       6.926   5.999  16.288  0.00  0.00    +0.000 A 
BRANCH  10  17
ATOM     16  C   UNL     1       6.433   4.114  13.022  0.00  0.00    +0.000 C 
ATOM     17  O   UNL     1       6.510   5.211  13.890  0.00  0.00    +0.000 OA
ENDBRANCH  10  17
BRANCH  15  18
ATOM     18  O   UNL     1       7.754   7.074  16.346  0.00  0.00    +0.000 OA
ATOM     19  C   UNL     1       7.821   7.961  17.433  0.00  0.00    +0.000 C 
ENDBRANCH  15  18
ENDBRANCH   7  13
ENDBRANCH   1   7
BRANCH   1  20
ATOM     20  C   UNL     1       3.480   6.096  18.936  0.00  0.00    +0.000 C 
BRANCH  20  21
ATOM     21  C   UNL     1       2.279   6.997  19.294  0.00  0.00    +0.000 A 
ATOM     22  C   UNL     1       1.891   7.342  20.608  0.00  0.00    +0.000 A 
ATOM     23  C   UNL     1       1.162   8.551  20.894  0.00  0.00    +0.000 A 
ATOM     24  C   UNL     1       0.978   9.482  19.861  0.00  0.00    +0.000 A 
ATOM     25  C   UNL     1       1.490   9.143  18.606  0.00  0.00    +0.000 A 
ATOM     26  C   UNL     1       1.828   7.825  18.272  0.00  0.00    +0.000 A 
ATOM     27  C   UNL     1       2.332  10.167  17.986  0.00  0.00    +0.000 C 
ATOM     28  C   UNL     1       2.188  11.421  18.396  0.00  0.00    +0.000 C 
ATOM     29  C   UNL     1       0.938  11.814  19.150  0.00  0.00    +0.000 C 
ATOM     30  C   UNL     1       1.123  13.119  19.941  0.00  0.00    +0.000 C 
ATOM     31  C   UNL     1      -0.052  12.155  18.012  0.00  0.00    +0.000 C 
ATOM     32  O   UNL     1       0.511  10.769  20.092  0.00  0.00    +0.000 OA
ENDBRANCH  20  21
ENDBRANCH   1  20
TORSDOF 7
ENDMDL
