MODEL 1
REMARK VINA RESULT:      -6.8      0.000      0.000
REMARK  Name = 
REMARK  3 active torsions:
REMARK  status: ('A' for Active; 'I' for Inactive)
REMARK    1  A    between atoms: N_1  and  C_2
REMARK    2  A    between atoms: C_5  and  N_6
REMARK    3  A    between atoms: N_6  and  C_7
REMARK                            x       y       z     vdW  Elec       q    Type
REMARK                         _______ _______ _______ _____ _____    ______ ____
ROOT
ATOM      1  C   UNL     1       6.703   4.875  15.468  0.00  0.00    +0.000 A 
ATOM      2  C   UNL     1       5.507   4.169  15.592  0.00  0.00    +0.000 A 
ATOM      3  C   UNL     1       4.981   3.866  16.851  0.00  0.00    +0.000 A 
ATOM      4  C   UNL     1       5.616   4.294  18.024  0.00  0.00    +0.000 A 
ATOM      5  C   UNL     1       6.787   5.057  17.888  0.00  0.00    +0.000 A 
ATOM      6 CL   UNL     1       7.610   5.667  19.285  0.00  0.00    +0.000 Cl
ATOM      7  C   UNL     1       7.310   5.364  16.625  0.00  0.00    +0.000 A 
ENDROOT
BRANCH   1   8
ATOM      8  N   UNL     1       7.149   5.277  14.205  0.00  0.00    +0.000 N 
ATOM      9  H   UNL     1       6.690   4.800  13.434  0.00  0.00    +0.000 HD
ATOM     10  H   UNL     1       8.161   5.281  14.103  0.00  0.00    +0.000 HD
ENDBRANCH   1   8
BRANCH   4  11
ATOM     11  N   UNL     1       5.082   3.976  19.292  0.00  0.00    +0.000 N 
ATOM     12  H   UNL     1       5.711   4.193  20.062  0.00  0.00    +0.000 HD
BRANCH  11  13
ATOM     13  C   UNL     1       3.739   3.856  19.698  0.00  0.00    +0.000 A 
ATOM     14  C   UNL     1       3.023   5.015  20.025  0.00  0.00    +0.000 A 
ATOM     15  C   UNL     1       1.697   4.939  20.461  0.00  0.00    +0.000 A 
ATOM     16  C   UNL     1       1.066   3.703  20.565  0.00  0.00    +0.000 A 
ATOM     17  C   UNL     1       1.764   2.541  20.244  0.00  0.00    +0.000 A 
ATOM     18  C   UNL     1       3.093   2.619  19.820  0.00  0.00    +0.000 A 
ENDBRANCH  11  13
ENDBRANCH   4  11
TORSDOF 3
ENDMDL
MODEL 2
REMARK VINA RESULT:      -6.8      0.383      1.287
REMARK  Name = 
REMARK  3 active torsions:
REMARK  status: ('A' for Active; 'I' for Inactive)
REMARK    1  A    between atoms: N_1  and  C_2
REMARK    2  A    between atoms: C_5  and  N_6
REMARK    3  A    between atoms: N_6  and  C_7
REMARK                            x       y       z     vdW  Elec       q    Type
REMARK                         _______ _______ _______ _____ _____    ______ ____
ROOT
ATOM      1  C   UNL     1       6.984   4.940  15.559  0.00  0.00    +0.000 A 
ATOM      2  C   UNL     1       5.877   4.094  15.521  0.00  0.00    +0.000 A 
ATOM      3  C   UNL     1       5.262   3.665  16.700  0.00  0.00    +0.000 A 
ATOM      4  C   UNL     1       5.712   4.100  17.953  0.00  0.00    +0.000 A 
ATOM      5  C   UNL     1       6.790   5.000  17.979  0.00  0.00    +0.000 A 
ATOM      6 CL   UNL     1       7.381   5.625  19.483  0.00  0.00    +0.000 Cl
ATOM      7  C   UNL     1       7.402   5.433  16.797  0.00  0.00    +0.000 A 
ENDROOT
BRANCH   1   8
ATOM      8  N   UNL     1       7.509   5.459  14.371  0.00  0.00    +0.000 N 
ATOM      9  H   UNL     1       8.524   5.495  14.351  0.00  0.00    +0.000 HD
ATOM     10  H   UNL     1       7.089   6.338  14.081  0.00  0.00    +0.000 HD
ENDBRANCH   1   8
BRANCH   4  11
ATOM     11  N   UNL     1       5.090   3.654  19.140  0.00  0.00    +0.000 N 
ATOM     12  H   UNL     1       5.750   3.409  19.875  0.00  0.00    +0.000 HD
BRANCH  11  13
ATOM     13  C   UNL     1       3.795   3.912  19.629  0.00  0.00    +0.000 A 
ATOM     14  C   UNL     1       2.952   2.831  19.918  0.00  0.00    +0.000 A 
ATOM     15  C   UNL     1       1.648   3.042  20.377  0.00  0.00    +0.000 A 
ATOM     16  C   UNL     1       1.175   4.338  20.563  0.00  0.00    +0.000 A 
ATOM     17  C   UNL     1       2.002   5.423  20.280  0.00  0.00    +0.000 A 
ATOM     18  C   UNL     1       3.300   5.209  19.810  0.00  0.00    +0.000 A 
ENDBRANCH  11  13
ENDBRANCH   4  11
TORSDOF 3
ENDMDL
MODEL 3
REMARK VINA RESULT:      -6.7      0.816      1.435
REMARK  Name = 
REMARK  3 active torsions:
REMARK  status: ('A' for Active; 'I' for Inactive)
REMARK    1  A    between atoms: N_1  and  C_2
REMARK    2  A    between atoms: C_5  and  N_6
REMARK    3  A    between atoms: N_6  and  C_7
REMARK                            x       y       z     vdW  Elec       q    Type
REMARK                         _______ _______ _______ _____ _____    ______ ____
ROOT
ATOM      1  C   UNL     1       6.699   5.191  15.789  0.00  0.00    +0.000 A 
ATOM      2  C   UNL     1       5.307   5.129  15.775  0.00  0.00    +0.000 A 
ATOM      3  C   UNL     1       4.575   5.179  16.965  0.00  0.00    +0.000 A 
ATOM      4  C   UNL     1       5.213   5.332  18.202  0.00  0.00    +0.000 A 
ATOM      5  C   UNL     1       6.613   5.455  18.201  0.00  0.00    +0.000 A 
ATOM      6 CL   UNL     1       7.478   5.695  19.682  0.00  0.00    +0.000 Cl
ATOM      7  C   UNL     1       7.344   5.410  17.008  0.00  0.00    +0.000 A 
ENDROOT
BRANCH   1   8
ATOM      8  N   UNL     1       7.408   5.266  14.585  0.00  0.00    +0.000 N 
ATOM      9  H   UNL     1       7.481   6.206  14.208  0.00  0.00    +0.000 HD
ATOM     10  H   UNL     1       7.107   4.595  13.883  0.00  0.00    +0.000 HD
ENDBRANCH   1   8
BRANCH   4  11
ATOM     11  N   UNL     1       4.467   5.373  19.401  0.00  0.00    +0.000 N 
ATOM     12  H   UNL     1       4.535   6.262  19.889  0.00  0.00    +0.000 HD
BRANCH  11  13
ATOM     13  C   UNL     1       3.341   4.619  19.785  0.00  0.00    +0.000 A 
ATOM     14  C   UNL     1       3.428   3.221  19.777  0.00  0.00    +0.000 A 
ATOM     15  C   UNL     1       2.325   2.433  20.123  0.00  0.00    +0.000 A 
ATOM     16  C   UNL     1       1.126   3.035  20.492  0.00  0.00    +0.000 A 
ATOM     17  C   UNL     1       1.025   4.424  20.505  0.00  0.00    +0.000 A 
ATOM     18  C   UNL     1       2.124   5.208  20.147  0.00  0.00    +0.000 A 
ENDBRANCH  11  13
ENDBRANCH   4  11
TORSDOF 3
ENDMDL
MODEL 4
REMARK VINA RESULT:      -6.7      1.752      2.093
REMARK  Name = 
REMARK  3 active torsions:
REMARK  status: ('A' for Active; 'I' for Inactive)
REMARK    1  A    between atoms: N_1  and  C_2
REMARK    2  A    between atoms: C_5  and  N_6
REMARK    3  A    between atoms: N_6  and  C_7
REMARK                            x       y       z     vdW  Elec       q    Type
REMARK                         _______ _______ _______ _____ _____    ______ ____
ROOT
ATOM      1  C   UNL     1       6.875   5.533  16.070  0.00  0.00    +0.000 A 
ATOM      2  C   UNL     1       7.074   4.557  17.046  0.00  0.00    +0.000 A 
ATOM      3  C   UNL     1       6.226   4.467  18.153  0.00  0.00    +0.000 A 
ATOM      4  C   UNL     1       5.128   5.326  18.298  0.00  0.00    +0.000 A 
ATOM      5  C   UNL     1       4.900   6.265  17.279  0.00  0.00    +0.000 A 
ATOM      6 CL   UNL     1       3.539   7.335  17.354  0.00  0.00    +0.000 Cl
ATOM      7  C   UNL     1       5.748   6.351  16.168  0.00  0.00    +0.000 A 
ENDROOT
BRANCH   1   8
ATOM      8  N   UNL     1       7.655   5.530  14.909  0.00  0.00    +0.000 N 
ATOM      9  H   UNL     1       7.163   5.856  14.082  0.00  0.00    +0.000 HD
ATOM     10  H   UNL     1       8.148   4.657  14.742  0.00  0.00    +0.000 HD
ENDBRANCH   1   8
BRANCH   4  11
ATOM     11  N   UNL     1       4.281   5.233  19.424  0.00  0.00    +0.000 N 
ATOM     12  H   UNL     1       4.332   6.045  20.035  0.00  0.00    +0.000 HD
BRANCH  11  13
ATOM     13  C   UNL     1       3.104   4.481  19.605  0.00  0.00    +0.000 A 
ATOM     14  C   UNL     1       2.596   3.749  18.524  0.00  0.00    +0.000 A 
ATOM     15  C   UNL     1       1.414   3.011  18.651  0.00  0.00    +0.000 A 
ATOM     16  C   UNL     1       0.733   2.989  19.865  0.00  0.00    +0.000 A 
ATOM     17  C   UNL     1       1.226   3.712  20.948  0.00  0.00    +0.000 A 
ATOM     18  C   UNL     1       2.401   4.457  20.815  0.00  0.00    +0.000 A 
ENDBRANCH  11  13
ENDBRANCH   4  11
TORSDOF 3
ENDMDL
MODEL 5
REMARK VINA RESULT:      -6.7      1.976      2.312
REMARK  Name = 
REMARK  3 active torsions:
REMARK  status: ('A' for Active; 'I' for Inactive)
REMARK    1  A    between atoms: N_1  and  C_2
REMARK    2  A    between atoms: C_5  and  N_6
REMARK    3  A    between atoms: N_6  and  C_7
REMARK                            x       y       z     vdW  Elec       q    Type
REMARK                         _______ _______ _______ _____ _____    ______ ____
ROOT
ATOM      1  C   UNL     1       6.298   5.298  16.022  0.00  0.00    +0.000 A 
ATOM      2  C   UNL     1       5.673   4.057  16.136  0.00  0.00    +0.000 A 
ATOM      3  C   UNL     1       4.427   3.937  16.757  0.00  0.00    +0.000 A 
ATOM      4  C   UNL     1       3.750   5.060  17.249  0.00  0.00    +0.000 A 
ATOM      5  C   UNL     1       4.359   6.314  17.075  0.00  0.00    +0.000 A 
ATOM      6 CL   UNL     1       3.571   7.760  17.612  0.00  0.00    +0.000 Cl
ATOM      7  C   UNL     1       5.606   6.434  16.448  0.00  0.00    +0.000 A 
ENDROOT
BRANCH   1   8
ATOM      8  N   UNL     1       7.483   5.421  15.289  0.00  0.00    +0.000 N 
ATOM      9  H   UNL     1       7.539   4.796  14.490  0.00  0.00    +0.000 HD
ATOM     10  H   UNL     1       8.327   5.393  15.856  0.00  0.00    +0.000 HD
ENDBRANCH   1   8
BRANCH   4  11
ATOM     11  N   UNL     1       2.495   4.928  17.883  0.00  0.00    +0.000 N 
ATOM     12  H   UNL     1       1.708   5.057  17.252  0.00  0.00    +0.000 HD
BRANCH  11  13
ATOM     13  C   UNL     1       2.150   4.231  19.057  0.00  0.00    +0.000 A 
ATOM     14  C   UNL     1       1.321   3.106  18.958  0.00  0.00    +0.000 A 
ATOM     15  C   UNL     1       0.929   2.402  20.101  0.00  0.00    +0.000 A 
ATOM     16  C   UNL     1       1.372   2.808  21.357  0.00  0.00    +0.000 A 
ATOM     17  C   UNL     1       2.196   3.924  21.471  0.00  0.00    +0.000 A 
ATOM     18  C   UNL     1       2.577   4.633  20.329  0.00  0.00    +0.000 A 
ENDBRANCH  11  13
ENDBRANCH   4  11
TORSDOF 3
ENDMDL
MODEL 6
REMARK VINA RESULT:      -6.7      1.803      2.020
REMARK  Name = 
REMARK  3 active torsions:
REMARK  status: ('A' for Active; 'I' for Inactive)
REMARK    1  A    between atoms: N_1  and  C_2
REMARK    2  A    between atoms: C_5  and  N_6
REMARK    3  A    between atoms: N_6  and  C_7
REMARK                            x       y       z     vdW  Elec       q    Type
REMARK                         _______ _______ _______ _____ _____    ______ ____
ROOT
ATOM      1  C   UNL     1       6.818   5.594  16.224  0.00  0.00    +0.000 A 
ATOM      2  C   UNL     1       6.980   4.586  17.174  0.00  0.00    +0.000 A 
ATOM      3  C   UNL     1       6.108   4.480  18.262  0.00  0.00    +0.000 A 
ATOM      4  C   UNL     1       5.025   5.356  18.412  0.00  0.00    +0.000 A 
ATOM      5  C   UNL     1       4.834   6.330  17.417  0.00  0.00    +0.000 A 
ATOM      6 CL   UNL     1       3.493   7.423  17.499  0.00  0.00    +0.000 Cl
ATOM      7  C   UNL     1       5.705   6.431  16.325  0.00  0.00    +0.000 A 
ENDROOT
BRANCH   1   8
ATOM      8  N   UNL     1       7.619   5.610  15.078  0.00  0.00    +0.000 N 
ATOM      9  H   UNL     1       8.599   5.410  15.258  0.00  0.00    +0.000 HD
ATOM     10  H   UNL     1       7.498   6.436  14.498  0.00  0.00    +0.000 HD
ENDBRANCH   1   8
BRANCH   4  11
ATOM     11  N   UNL     1       4.155   5.247  19.519  0.00  0.00    +0.000 N 
ATOM     12  H   UNL     1       4.193   6.049  20.143  0.00  0.00    +0.000 HD
BRANCH  11  13
ATOM     13  C   UNL     1       2.974   4.493  19.664  0.00  0.00    +0.000 A 
ATOM     14  C   UNL     1       2.497   4.225  20.953  0.00  0.00    +0.000 A 
ATOM     15  C   UNL     1       1.344   3.456  21.145  0.00  0.00    +0.000 A 
ATOM     16  C   UNL     1       0.650   2.955  20.047  0.00  0.00    +0.000 A 
ATOM     17  C   UNL     1       1.112   3.213  18.760  0.00  0.00    +0.000 A 
ATOM     18  C   UNL     1       2.270   3.972  18.572  0.00  0.00    +0.000 A 
ENDBRANCH  11  13
ENDBRANCH   4  11
TORSDOF 3
ENDMDL
MODEL 7
REMARK VINA RESULT:      -6.6      2.385      2.853
REMARK  Name = 
REMARK  3 active torsions:
REMARK  status: ('A' for Active; 'I' for Inactive)
REMARK    1  A    between atoms: N_1  and  C_2
REMARK    2  A    between atoms: C_5  and  N_6
REMARK    3  A    between atoms: N_6  and  C_7
REMARK                            x       y       z     vdW  Elec       q    Type
REMARK                         _______ _______ _______ _____ _____    ______ ____
ROOT
ATOM      1  C   UNL     1       7.477   6.648  18.320  0.00  0.00    +0.000 A 
ATOM      2  C   UNL     1       7.059   5.705  19.259  0.00  0.00    +0.000 A 
ATOM      3  C   UNL     1       6.195   4.668  18.897  0.00  0.00    +0.000 A 
ATOM      4  C   UNL     1       5.754   4.520  17.576  0.00  0.00    +0.000 A 
ATOM      5  C   UNL     1       6.228   5.438  16.625  0.00  0.00    +0.000 A 
ATOM      6 CL   UNL     1       5.770   5.300  14.960  0.00  0.00    +0.000 Cl
ATOM      7  C   UNL     1       7.098   6.474  16.988  0.00  0.00    +0.000 A 
ENDROOT
BRANCH   1   8
ATOM      8  N   UNL     1       8.438   7.603  18.668  0.00  0.00    +0.000 N 
ATOM      9  H   UNL     1       9.165   7.729  17.970  0.00  0.00    +0.000 HD
ATOM     10  H   UNL     1       8.821   7.485  19.603  0.00  0.00    +0.000 HD
ENDBRANCH   1   8
BRANCH   4  11
ATOM     11  N   UNL     1       4.873   3.474  17.220  0.00  0.00    +0.000 N 
ATOM     12  H   UNL     1       5.348   2.655  16.849  0.00  0.00    +0.000 HD
BRANCH  11  13
ATOM     13  C   UNL     1       3.576   3.192  17.691  0.00  0.00    +0.000 A 
ATOM     14  C   UNL     1       2.607   4.203  17.652  0.00  0.00    +0.000 A 
ATOM     15  C   UNL     1       1.314   3.975  18.135  0.00  0.00    +0.000 A 
ATOM     16  C   UNL     1       0.973   2.729  18.654  0.00  0.00    +0.000 A 
ATOM     17  C   UNL     1       1.926   1.715  18.699  0.00  0.00    +0.000 A 
ATOM     18  C   UNL     1       3.220   1.948  18.226  0.00  0.00    +0.000 A 
ENDBRANCH  11  13
ENDBRANCH   4  11
TORSDOF 3
ENDMDL
MODEL 8
REMARK VINA RESULT:      -6.5      2.432      5.865
REMARK  Name = 
REMARK  3 active torsions:
REMARK  status: ('A' for Active; 'I' for Inactive)
REMARK    1  A    between atoms: N_1  and  C_2
REMARK    2  A    between atoms: C_5  and  N_6
REMARK    3  A    between atoms: N_6  and  C_7
REMARK                            x       y       z     vdW  Elec       q    Type
REMARK                         _______ _______ _______ _____ _____    ______ ____
ROOT
ATOM      1  C   UNL     1       2.127   3.191  21.147  0.00  0.00    +0.000 A 
ATOM      2  C   UNL     1       3.079   2.467  20.431  0.00  0.00    +0.000 A 
ATOM      3  C   UNL     1       3.822   3.073  19.413  0.00  0.00    +0.000 A 
ATOM      4  C   UNL     1       3.663   4.431  19.108  0.00  0.00    +0.000 A 
ATOM      5  C   UNL     1       2.745   5.166  19.876  0.00  0.00    +0.000 A 
ATOM      6 CL   UNL     1       2.519   6.860  19.597  0.00  0.00    +0.000 Cl
ATOM      7  C   UNL     1       2.005   4.559  20.898  0.00  0.00    +0.000 A 
ENDROOT
BRANCH   1   8
ATOM      8  N   UNL     1       1.483   2.606  22.243  0.00  0.00    +0.000 N 
ATOM      9  H   UNL     1       1.990   1.825  22.649  0.00  0.00    +0.000 HD
ATOM     10  H   UNL     1       0.505   2.383  22.079  0.00  0.00    +0.000 HD
ENDBRANCH   1   8
BRANCH   4  11
ATOM     11  N   UNL     1       4.411   5.032  18.072  0.00  0.00    +0.000 N 
ATOM     12  H   UNL     1       3.854   5.266  17.254  0.00  0.00    +0.000 HD
BRANCH  11  13
ATOM     13  C   UNL     1       5.621   5.750  18.137  0.00  0.00    +0.000 A 
ATOM     14  C   UNL     1       5.807   6.841  17.278  0.00  0.00    +0.000 A 
ATOM     15  C   UNL     1       7.004   7.565  17.288  0.00  0.00    +0.000 A 
ATOM     16  C   UNL     1       8.025   7.212  18.166  0.00  0.00    +0.000 A 
ATOM     17  C   UNL     1       7.854   6.130  19.026  0.00  0.00    +0.000 A 
ATOM     18  C   UNL     1       6.662   5.402  19.006  0.00  0.00    +0.000 A 
ENDBRANCH  11  13
ENDBRANCH   4  11
TORSDOF 3
ENDMDL
MODEL 9
REMARK VINA RESULT:      -6.5      2.562      5.531
REMARK  Name = 
REMARK  3 active torsions:
REMARK  status: ('A' for Active; 'I' for Inactive)
REMARK    1  A    between atoms: N_1  and  C_2
REMARK    2  A    between atoms: C_5  and  N_6
REMARK    3  A    between atoms: N_6  and  C_7
REMARK                            x       y       z     vdW  Elec       q    Type
REMARK                         _______ _______ _______ _____ _____    ______ ____
ROOT
ATOM      1  C   UNL     1       1.564   3.066  18.417  0.00  0.00    +0.000 A 
ATOM      2  C   UNL     1       2.636   2.373  17.855  0.00  0.00    +0.000 A 
ATOM      3  C   UNL     1       3.723   3.059  17.307  0.00  0.00    +0.000 A 
ATOM      4  C   UNL     1       3.790   4.458  17.339  0.00  0.00    +0.000 A 
ATOM      5  C   UNL     1       2.734   5.145  17.962  0.00  0.00    +0.000 A 
ATOM      6 CL   UNL     1       2.758   6.872  18.088  0.00  0.00    +0.000 Cl
ATOM      7  C   UNL     1       1.648   4.456  18.515  0.00  0.00    +0.000 A 
ENDROOT
BRANCH   1   8
ATOM      8  N   UNL     1       0.545   2.366  19.072  0.00  0.00    +0.000 N 
ATOM      9  H   UNL     1      -0.349   2.397  18.593  0.00  0.00    +0.000 HD
ATOM     10  H   UNL     1       0.458   2.587  20.060  0.00  0.00    +0.000 HD
ENDBRANCH   1   8
BRANCH   4  11
ATOM     11  N   UNL     1       4.888   5.143  16.775  0.00  0.00    +0.000 N 
ATOM     12  H   UNL     1       4.696   5.522  15.850  0.00  0.00    +0.000 HD
BRANCH  11  13
ATOM     13  C   UNL     1       5.982   5.765  17.408  0.00  0.00    +0.000 A 
ATOM     14  C   UNL     1       6.560   5.146  18.523  0.00  0.00    +0.000 A 
ATOM     15  C   UNL     1       7.629   5.742  19.200  0.00  0.00    +0.000 A 
ATOM     16  C   UNL     1       8.139   6.961  18.761  0.00  0.00    +0.000 A 
ATOM     17  C   UNL     1       7.574   7.589  17.654  0.00  0.00    +0.000 A 
ATOM     18  C   UNL     1       6.499   6.996  16.987  0.00  0.00    +0.000 A 
ENDBRANCH  11  13
ENDBRANCH   4  11
TORSDOF 3
ENDMDL
