MODEL 1
REMARK VINA RESULT:      -8.2      0.000      0.000
REMARK  Name = 
REMARK  9 active torsions:
REMARK  status: ('A' for Active; 'I' for Inactive)
REMARK    1  A    between atoms: C_1  and  C_2
REMARK    2  A    between atoms: C_2  and  C_3
REMARK    3  A    between atoms: C_10  and  C_11
REMARK    4  A    between atoms: C_12  and  C_13
REMARK    5  A    between atoms: C_13  and  C_14
REMARK    6  A    between atoms: C_13  and  C_15
REMARK    7  A    between atoms: C_17  and  C_18
REMARK    8  A    between atoms: C_26  and  O_27
REMARK    9  A    between atoms: O_27  and  C_28
REMARK                            x       y       z     vdW  Elec       q    Type
REMARK                         _______ _______ _______ _____ _____    ______ ____
ROOT
ATOM      1  C   UNL     1       2.152   7.329  19.746  0.00  0.00    +0.000 C 
ATOM      2  C   UNL     1       1.516   8.193  20.317  0.00  0.00    +0.000 C 
ENDROOT
BRANCH   1  10
ATOM      3  C   UNL     1       2.765   4.961  19.726  0.00  0.00    +0.000 A 
ATOM      4  N   UNL     1       3.434   3.919  19.190  0.00  0.00    +0.000 NA
ATOM      5  C   UNL     1       4.175   4.170  18.103  0.00  0.00    +0.000 A 
ATOM      6  N   UNL     1       4.828   3.098  17.531  0.00  0.00    +0.000 N 
ATOM      7  N   UNL     1       4.285   5.356  17.493  0.00  0.00    +0.000 NA
ATOM      8  C   UNL     1       3.616   6.381  18.037  0.00  0.00    +0.000 A 
ATOM      9  N   UNL     1       3.672   7.604  17.357  0.00  0.00    +0.000 N 
ATOM     10  C   UNL     1       2.822   6.229  19.165  0.00  0.00    +0.000 A 
ATOM     11  H   UNL     1       4.353   2.243  17.786  0.00  0.00    +0.000 HD
ATOM     12  H   UNL     1       4.960   3.275  16.545  0.00  0.00    +0.000 HD
ATOM     13  H   UNL     1       4.382   7.568  16.633  0.00  0.00    +0.000 HD
ATOM     14  H   UNL     1       3.762   8.405  17.974  0.00  0.00    +0.000 HD
BRANCH   3  16
ATOM     15  C   UNL     1       1.237   3.328  20.887  0.00  0.00    +0.000 C 
ATOM     16  C   UNL     1       1.932   4.683  20.956  0.00  0.00    +0.000 C 
ENDBRANCH   3  16
ENDBRANCH   1  10
BRANCH   2  17
ATOM     17  C   UNL     1       0.637   9.037  21.134  0.00  0.00    +0.000 C 
ATOM     18  C   UNL     1       1.455   9.215  22.449  0.00  0.00    +0.000 C 
BRANCH  17  19
ATOM     19  C   UNL     1       0.220  10.308  20.380  0.00  0.00    +0.000 A 
ATOM     20  C   UNL     1      -0.882  10.165  19.478  0.00  0.00    +0.000 A 
ATOM     21  C   UNL     1      -1.332  11.177  18.611  0.00  0.00    +0.000 A 
ATOM     22  C   UNL     1      -0.752  12.431  18.732  0.00  0.00    +0.000 A 
ATOM     23  C   UNL     1       0.277  12.631  19.644  0.00  0.00    +0.000 A 
ATOM     24  C   UNL     1       0.774  11.601  20.472  0.00  0.00    +0.000 A 
BRANCH  21  25
ATOM     25  C   UNL     1      -2.320  10.898  17.553  0.00  0.00    +0.000 A 
ATOM     26  C   UNL     1      -3.543  11.578  17.523  0.00  0.00    +0.000 A 
ATOM     27  C   UNL     1      -4.428  11.337  16.488  0.00  0.00    +0.000 A 
ATOM     28  N   UNL     1      -4.184  10.475  15.483  0.00  0.00    +0.000 NA
ATOM     29  C   UNL     1      -3.000   9.828  15.514  0.00  0.00    +0.000 A 
ATOM     30  C   UNL     1      -2.052  10.003  16.510  0.00  0.00    +0.000 A 
ENDBRANCH  21  25
BRANCH  24  31
ATOM     31  O   UNL     1       1.795  12.133  21.212  0.00  0.00    +0.000 OA
ATOM     32  C   UNL     1       2.328  13.415  20.977  0.00  0.00    +0.000 C 
ENDBRANCH  24  31
ENDBRANCH  17  19
ENDBRANCH   2  17
TORSDOF 6
ENDMDL
MODEL 2
REMARK VINA RESULT:      -8.1      2.061      8.247
REMARK  Name = 
REMARK  9 active torsions:
REMARK  status: ('A' for Active; 'I' for Inactive)
REMARK    1  A    between atoms: C_1  and  C_2
REMARK    2  A    between atoms: C_2  and  C_3
REMARK    3  A    between atoms: C_10  and  C_11
REMARK    4  A    between atoms: C_12  and  C_13
REMARK    5  A    between atoms: C_13  and  C_14
REMARK    6  A    between atoms: C_13  and  C_15
REMARK    7  A    between atoms: C_17  and  C_18
REMARK    8  A    between atoms: C_26  and  O_27
REMARK    9  A    between atoms: O_27  and  C_28
REMARK                            x       y       z     vdW  Elec       q    Type
REMARK                         _______ _______ _______ _____ _____    ______ ____
ROOT
ATOM      1  C   UNL     1      -1.294  10.691  18.047  0.00  0.00    +0.000 C 
ATOM      2  C   UNL     1      -0.113  10.421  18.144  0.00  0.00    +0.000 C 
ENDROOT
BRANCH   1  10
ATOM      3  C   UNL     1      -3.365  11.780  18.759  0.00  0.00    +0.000 A 
ATOM      4  N   UNL     1      -4.655  12.118  18.548  0.00  0.00    +0.000 NA
ATOM      5  C   UNL     1      -5.203  11.723  17.392  0.00  0.00    +0.000 A 
ATOM      6  N   UNL     1      -6.509  12.100  17.160  0.00  0.00    +0.000 N 
ATOM      7  N   UNL     1      -4.574  11.048  16.423  0.00  0.00    +0.000 NA
ATOM      8  C   UNL     1      -3.294  10.718  16.647  0.00  0.00    +0.000 A 
ATOM      9  N   UNL     1      -2.615  10.078  15.603  0.00  0.00    +0.000 N 
ATOM     10  C   UNL     1      -2.633  11.077  17.813  0.00  0.00    +0.000 A 
ATOM     11  H   UNL     1      -6.723  12.920  17.711  0.00  0.00    +0.000 HD
ATOM     12  H   UNL     1      -6.666  12.161  16.163  0.00  0.00    +0.000 HD
ATOM     13  H   UNL     1      -3.271   9.791  14.885  0.00  0.00    +0.000 HD
ATOM     14  H   UNL     1      -2.005   9.331  15.918  0.00  0.00    +0.000 HD
BRANCH   3  16
ATOM     15  C   UNL     1      -3.460  13.424  20.667  0.00  0.00    +0.000 C 
ATOM     16  C   UNL     1      -2.744  12.220  20.065  0.00  0.00    +0.000 C 
ENDBRANCH   3  16
ENDBRANCH   1  10
BRANCH   2  17
ATOM     17  C   UNL     1       1.337  10.225  18.036  0.00  0.00    +0.000 C 
ATOM     18  C   UNL     1       1.908  11.552  18.623  0.00  0.00    +0.000 C 
BRANCH  17  19
ATOM     19  C   UNL     1       1.776   8.910  18.696  0.00  0.00    +0.000 A 
ATOM     20  C   UNL     1       2.708   8.119  17.952  0.00  0.00    +0.000 A 
ATOM     21  C   UNL     1       3.133   6.833  18.330  0.00  0.00    +0.000 A 
ATOM     22  C   UNL     1       2.721   6.357  19.565  0.00  0.00    +0.000 A 
ATOM     23  C   UNL     1       1.869   7.123  20.352  0.00  0.00    +0.000 A 
ATOM     24  C   UNL     1       1.390   8.388  19.948  0.00  0.00    +0.000 A 
BRANCH  21  25
ATOM     25  C   UNL     1       3.915   5.983  17.412  0.00  0.00    +0.000 A 
ATOM     26  C   UNL     1       4.747   6.557  16.445  0.00  0.00    +0.000 A 
ATOM     27  C   UNL     1       5.512   5.737  15.635  0.00  0.00    +0.000 A 
ATOM     28  N   UNL     1       5.509   4.393  15.719  0.00  0.00    +0.000 NA
ATOM     29  C   UNL     1       4.710   3.846  16.658  0.00  0.00    +0.000 A 
ATOM     30  C   UNL     1       3.908   4.586  17.514  0.00  0.00    +0.000 A 
ENDBRANCH  21  25
BRANCH  24  31
ATOM     31  O   UNL     1       0.557   8.839  20.935  0.00  0.00    +0.000 OA
ATOM     32  C   UNL     1       1.023   9.442  22.119  0.00  0.00    +0.000 C 
ENDBRANCH  24  31
ENDBRANCH  17  19
ENDBRANCH   2  17
TORSDOF 6
ENDMDL
MODEL 3
REMARK VINA RESULT:      -8.0      1.852      8.264
REMARK  Name = 
REMARK  9 active torsions:
REMARK  status: ('A' for Active; 'I' for Inactive)
REMARK    1  A    between atoms: C_1  and  C_2
REMARK    2  A    between atoms: C_2  and  C_3
REMARK    3  A    between atoms: C_10  and  C_11
REMARK    4  A    between atoms: C_12  and  C_13
REMARK    5  A    between atoms: C_13  and  C_14
REMARK    6  A    between atoms: C_13  and  C_15
REMARK    7  A    between atoms: C_17  and  C_18
REMARK    8  A    between atoms: C_26  and  O_27
REMARK    9  A    between atoms: O_27  and  C_28
REMARK                            x       y       z     vdW  Elec       q    Type
REMARK                         _______ _______ _______ _____ _____    ______ ____
ROOT
ATOM      1  C   UNL     1      -1.559  10.487  17.921  0.00  0.00    +0.000 C 
ATOM      2  C   UNL     1      -0.399  10.181  18.112  0.00  0.00    +0.000 C 
ENDROOT
BRANCH   1  10
ATOM      3  C   UNL     1      -3.537  10.686  16.495  0.00  0.00    +0.000 A 
ATOM      4  N   UNL     1      -4.766  11.182  16.243  0.00  0.00    +0.000 NA
ATOM      5  C   UNL     1      -5.297  11.986  17.173  0.00  0.00    +0.000 A 
ATOM      6  N   UNL     1      -6.569  12.462  16.935  0.00  0.00    +0.000 N 
ATOM      7  N   UNL     1      -4.723  12.315  18.336  0.00  0.00    +0.000 NA
ATOM      8  C   UNL     1      -3.502  11.817  18.571  0.00  0.00    +0.000 A 
ATOM      9  N   UNL     1      -2.932  12.101  19.819  0.00  0.00    +0.000 N 
ATOM     10  C   UNL     1      -2.862  10.976  17.671  0.00  0.00    +0.000 A 
ATOM     11  H   UNL     1      -7.044  11.841  16.294  0.00  0.00    +0.000 HD
ATOM     12  H   UNL     1      -7.025  12.651  17.817  0.00  0.00    +0.000 HD
ATOM     13  H   UNL     1      -3.474  12.815  20.295  0.00  0.00    +0.000 HD
ATOM     14  H   UNL     1      -1.941  12.309  19.771  0.00  0.00    +0.000 HD
BRANCH   3  16
ATOM     15  C   UNL     1      -3.459  10.087  14.048  0.00  0.00    +0.000 C 
ATOM     16  C   UNL     1      -2.933   9.782  15.445  0.00  0.00    +0.000 C 
ENDBRANCH   3  16
ENDBRANCH   1  10
BRANCH   2  17
ATOM     17  C   UNL     1       1.053  10.060  18.278  0.00  0.00    +0.000 C 
ATOM     18  C   UNL     1       1.479  11.513  18.650  0.00  0.00    +0.000 C 
BRANCH  17  19
ATOM     19  C   UNL     1       1.414   8.941  19.265  0.00  0.00    +0.000 A 
ATOM     20  C   UNL     1       2.135   7.833  18.716  0.00  0.00    +0.000 A 
ATOM     21  C   UNL     1       2.447   6.661  19.428  0.00  0.00    +0.000 A 
ATOM     22  C   UNL     1       2.150   6.633  20.782  0.00  0.00    +0.000 A 
ATOM     23  C   UNL     1       1.511   7.717  21.371  0.00  0.00    +0.000 A 
ATOM     24  C   UNL     1       1.139   8.870  20.646  0.00  0.00    +0.000 A 
BRANCH  21  25
ATOM     25  C   UNL     1       2.990   5.471  18.746  0.00  0.00    +0.000 A 
ATOM     26  C   UNL     1       4.259   4.980  19.073  0.00  0.00    +0.000 A 
ATOM     27  C   UNL     1       4.720   3.830  18.459  0.00  0.00    +0.000 A 
ATOM     28  N   UNL     1       4.011   3.135  17.549  0.00  0.00    +0.000 NA
ATOM     29  C   UNL     1       2.785   3.609  17.243  0.00  0.00    +0.000 A 
ATOM     30  C   UNL     1       2.240   4.753  17.805  0.00  0.00    +0.000 A 
ENDBRANCH  21  25
BRANCH  24  31
ATOM     31  O   UNL     1       0.507   9.712  21.521  0.00  0.00    +0.000 OA
ATOM     32  C   UNL     1      -0.365   9.259  22.529  0.00  0.00    +0.000 C 
ENDBRANCH  24  31
ENDBRANCH  17  19
ENDBRANCH   2  17
TORSDOF 6
ENDMDL
MODEL 4
REMARK VINA RESULT:      -8.0      1.026      2.288
REMARK  Name = 
REMARK  9 active torsions:
REMARK  status: ('A' for Active; 'I' for Inactive)
REMARK    1  A    between atoms: C_1  and  C_2
REMARK    2  A    between atoms: C_2  and  C_3
REMARK    3  A    between atoms: C_10  and  C_11
REMARK    4  A    between atoms: C_12  and  C_13
REMARK    5  A    between atoms: C_13  and  C_14
REMARK    6  A    between atoms: C_13  and  C_15
REMARK    7  A    between atoms: C_17  and  C_18
REMARK    8  A    between atoms: C_26  and  O_27
REMARK    9  A    between atoms: O_27  and  C_28
REMARK                            x       y       z     vdW  Elec       q    Type
REMARK                         _______ _______ _______ _____ _____    ______ ____
ROOT
ATOM      1  C   UNL     1       1.570   7.522  20.488  0.00  0.00    +0.000 C 
ATOM      2  C   UNL     1       0.831   8.274  21.094  0.00  0.00    +0.000 C 
ENDROOT
BRANCH   1  10
ATOM      3  C   UNL     1       2.951   7.232  18.490  0.00  0.00    +0.000 A 
ATOM      4  N   UNL     1       3.734   6.473  17.696  0.00  0.00    +0.000 NA
ATOM      5  C   UNL     1       3.958   5.214  18.092  0.00  0.00    +0.000 A 
ATOM      6  N   UNL     1       4.790   4.448  17.301  0.00  0.00    +0.000 N 
ATOM      7  N   UNL     1       3.493   4.657  19.217  0.00  0.00    +0.000 NA
ATOM      8  C   UNL     1       2.715   5.423  19.995  0.00  0.00    +0.000 A 
ATOM      9  N   UNL     1       2.290   4.866  21.207  0.00  0.00    +0.000 N 
ATOM     10  C   UNL     1       2.420   6.740  19.674  0.00  0.00    +0.000 A 
ATOM     11  H   UNL     1       5.393   5.057  16.765  0.00  0.00    +0.000 HD
ATOM     12  H   UNL     1       5.236   3.743  17.871  0.00  0.00    +0.000 HD
ATOM     13  H   UNL     1       2.493   3.872  21.224  0.00  0.00    +0.000 HD
ATOM     14  H   UNL     1       1.327   5.087  21.436  0.00  0.00    +0.000 HD
BRANCH   3  16
ATOM     15  C   UNL     1       1.289   8.835  17.480  0.00  0.00    +0.000 C 
ATOM     16  C   UNL     1       2.693   8.653  18.044  0.00  0.00    +0.000 C 
ENDBRANCH   3  16
ENDBRANCH   1  10
BRANCH   2  17
ATOM     17  C   UNL     1      -0.047   9.329  21.610  0.00  0.00    +0.000 C 
ATOM     18  C   UNL     1       0.566   9.632  23.011  0.00  0.00    +0.000 C 
BRANCH  17  19
ATOM     19  C   UNL     1      -0.164  10.497  20.620  0.00  0.00    +0.000 A 
ATOM     20  C   UNL     1      -1.207  10.387  19.647  0.00  0.00    +0.000 A 
ATOM     21  C   UNL     1      -1.397  11.290  18.584  0.00  0.00    +0.000 A 
ATOM     22  C   UNL     1      -0.601  12.425  18.556  0.00  0.00    +0.000 A 
ATOM     23  C   UNL     1       0.381  12.605  19.523  0.00  0.00    +0.000 A 
ATOM     24  C   UNL     1       0.616  11.670  20.555  0.00  0.00    +0.000 A 
BRANCH  21  25
ATOM     25  C   UNL     1      -2.343  11.001  17.491  0.00  0.00    +0.000 A 
ATOM     26  C   UNL     1      -2.034  10.046  16.516  0.00  0.00    +0.000 A 
ATOM     27  C   UNL     1      -2.963   9.754  15.534  0.00  0.00    +0.000 A 
ATOM     28  N   UNL     1      -4.174  10.339  15.455  0.00  0.00    +0.000 NA
ATOM     29  C   UNL     1      -4.469  11.253  16.402  0.00  0.00    +0.000 A 
ATOM     30  C   UNL     1      -3.602  11.611  17.424  0.00  0.00    +0.000 A 
ENDBRANCH  21  25
BRANCH  24  31
ATOM     31  O   UNL     1       1.665  12.141  21.297  0.00  0.00    +0.000 OA
ATOM     32  C   UNL     1       2.345  13.336  20.995  0.00  0.00    +0.000 C 
ENDBRANCH  24  31
ENDBRANCH  17  19
ENDBRANCH   2  17
TORSDOF 6
ENDMDL
MODEL 5
REMARK VINA RESULT:      -8.0      2.150      8.156
REMARK  Name = 
REMARK  9 active torsions:
REMARK  status: ('A' for Active; 'I' for Inactive)
REMARK    1  A    between atoms: C_1  and  C_2
REMARK    2  A    between atoms: C_2  and  C_3
REMARK    3  A    between atoms: C_10  and  C_11
REMARK    4  A    between atoms: C_12  and  C_13
REMARK    5  A    between atoms: C_13  and  C_14
REMARK    6  A    between atoms: C_13  and  C_15
REMARK    7  A    between atoms: C_17  and  C_18
REMARK    8  A    between atoms: C_26  and  O_27
REMARK    9  A    between atoms: O_27  and  C_28
REMARK                            x       y       z     vdW  Elec       q    Type
REMARK                         _______ _______ _______ _____ _____    ______ ____
ROOT
ATOM      1  C   UNL     1      -1.553  10.987  19.248  0.00  0.00    +0.000 C 
ATOM      2  C   UNL     1      -0.525  10.610  19.775  0.00  0.00    +0.000 C 
ENDROOT
BRANCH   1  10
ATOM      3  C   UNL     1      -3.142  10.860  17.392  0.00  0.00    +0.000 A 
ATOM      4  N   UNL     1      -4.323  11.184  16.824  0.00  0.00    +0.000 NA
ATOM      5  C   UNL     1      -5.144  11.964  17.537  0.00  0.00    +0.000 A 
ATOM      6  N   UNL     1      -6.367  12.264  16.973  0.00  0.00    +0.000 N 
ATOM      7  N   UNL     1      -4.904  12.425  18.771  0.00  0.00    +0.000 NA
ATOM      8  C   UNL     1      -3.727  12.097  19.321  0.00  0.00    +0.000 A 
ATOM      9  N   UNL     1      -3.507  12.517  20.639  0.00  0.00    +0.000 N 
ATOM     10  C   UNL     1      -2.804  11.295  18.665  0.00  0.00    +0.000 A 
ATOM     11  H   UNL     1      -6.604  11.555  16.294  0.00  0.00    +0.000 HD
ATOM     12  H   UNL     1      -7.038  12.442  17.708  0.00  0.00    +0.000 HD
ATOM     13  H   UNL     1      -4.221  13.182  20.916  0.00  0.00    +0.000 HD
ATOM     14  H   UNL     1      -2.561  12.844  20.805  0.00  0.00    +0.000 HD
BRANCH   3  16
ATOM     15  C   UNL     1      -2.699   9.781  15.159  0.00  0.00    +0.000 C 
ATOM     16  C   UNL     1      -2.211   9.982  16.588  0.00  0.00    +0.000 C 
ENDBRANCH   3  16
ENDBRANCH   1  10
BRANCH   2  17
ATOM     17  C   UNL     1       0.583   9.937  20.461  0.00  0.00    +0.000 C 
ATOM     18  C   UNL     1      -0.125   9.259  21.674  0.00  0.00    +0.000 C 
BRANCH  17  19
ATOM     19  C   UNL     1       1.369   9.032  19.502  0.00  0.00    +0.000 A 
ATOM     20  C   UNL     1       1.524   7.670  19.916  0.00  0.00    +0.000 A 
ATOM     21  C   UNL     1       2.311   6.722  19.237  0.00  0.00    +0.000 A 
ATOM     22  C   UNL     1       2.867   7.098  18.024  0.00  0.00    +0.000 A 
ATOM     23  C   UNL     1       2.684   8.392  17.551  0.00  0.00    +0.000 A 
ATOM     24  C   UNL     1       1.947   9.365  18.260  0.00  0.00    +0.000 A 
BRANCH  21  25
ATOM     25  C   UNL     1       2.610   5.407  19.833  0.00  0.00    +0.000 A 
ATOM     26  C   UNL     1       1.849   4.918  20.900  0.00  0.00    +0.000 A 
ATOM     27  C   UNL     1       2.115   3.658  21.403  0.00  0.00    +0.000 A 
ATOM     28  N   UNL     1       3.078   2.850  20.920  0.00  0.00    +0.000 NA
ATOM     29  C   UNL     1       3.805   3.324  19.887  0.00  0.00    +0.000 A 
ATOM     30  C   UNL     1       3.612   4.573  19.318  0.00  0.00    +0.000 A 
ENDBRANCH  21  25
BRANCH  24  31
ATOM     31  O   UNL     1       1.999  10.523  17.531  0.00  0.00    +0.000 OA
ATOM     32  C   UNL     1       2.523  11.727  18.039  0.00  0.00    +0.000 C 
ENDBRANCH  24  31
ENDBRANCH  17  19
ENDBRANCH   2  17
TORSDOF 6
ENDMDL
MODEL 6
REMARK VINA RESULT:      -7.9      2.046      7.989
REMARK  Name = 
REMARK  9 active torsions:
REMARK  status: ('A' for Active; 'I' for Inactive)
REMARK    1  A    between atoms: C_1  and  C_2
REMARK    2  A    between atoms: C_2  and  C_3
REMARK    3  A    between atoms: C_10  and  C_11
REMARK    4  A    between atoms: C_12  and  C_13
REMARK    5  A    between atoms: C_13  and  C_14
REMARK    6  A    between atoms: C_13  and  C_15
REMARK    7  A    between atoms: C_17  and  C_18
REMARK    8  A    between atoms: C_26  and  O_27
REMARK    9  A    between atoms: O_27  and  C_28
REMARK                            x       y       z     vdW  Elec       q    Type
REMARK                         _______ _______ _______ _____ _____    ______ ____
ROOT
ATOM      1  C   UNL     1      -1.522  11.437  18.381  0.00  0.00    +0.000 C 
ATOM      2  C   UNL     1      -0.315  11.300  18.402  0.00  0.00    +0.000 C 
ENDROOT
BRANCH   1  10
ATOM      3  C   UNL     1      -3.653  10.695  17.437  0.00  0.00    +0.000 A 
ATOM      4  N   UNL     1      -5.001  10.737  17.386  0.00  0.00    +0.000 NA
ATOM      5  C   UNL     1      -5.613  11.562  18.245  0.00  0.00    +0.000 A 
ATOM      6  N   UNL     1      -6.992  11.577  18.221  0.00  0.00    +0.000 N 
ATOM      7  N   UNL     1      -5.004  12.323  19.162  0.00  0.00    +0.000 NA
ATOM      8  C   UNL     1      -3.666  12.272  19.200  0.00  0.00    +0.000 A 
ATOM      9  N   UNL     1      -3.033  13.011  20.207  0.00  0.00    +0.000 N 
ATOM     10  C   UNL     1      -2.935  11.452  18.351  0.00  0.00    +0.000 A 
ATOM     11  H   UNL     1      -7.329  10.706  17.835  0.00  0.00    +0.000 HD
ATOM     12  H   UNL     1      -7.339  11.842  19.132  0.00  0.00    +0.000 HD
ATOM     13  H   UNL     1      -3.698  13.635  20.651  0.00  0.00    +0.000 HD
ATOM     14  H   UNL     1      -2.187  13.476  19.894  0.00  0.00    +0.000 HD
BRANCH   3  16
ATOM     15  C   UNL     1      -2.846  10.373  15.071  0.00  0.00    +0.000 C 
ATOM     16  C   UNL     1      -2.958   9.769  16.466  0.00  0.00    +0.000 C 
ENDBRANCH   3  16
ENDBRANCH   1  10
BRANCH   2  17
ATOM     17  C   UNL     1       1.091  10.879  18.423  0.00  0.00    +0.000 C 
ATOM     18  C   UNL     1       1.833  12.181  18.851  0.00  0.00    +0.000 C 
BRANCH  17  19
ATOM     19  C   UNL     1       1.289   9.630  19.293  0.00  0.00    +0.000 A 
ATOM     20  C   UNL     1       2.007   8.553  18.683  0.00  0.00    +0.000 A 
ATOM     21  C   UNL     1       2.185   7.287  19.270  0.00  0.00    +0.000 A 
ATOM     22  C   UNL     1       1.746   7.117  20.575  0.00  0.00    +0.000 A 
ATOM     23  C   UNL     1       1.104   8.161  21.230  0.00  0.00    +0.000 A 
ATOM     24  C   UNL     1       0.868   9.412  20.621  0.00  0.00    +0.000 A 
BRANCH  21  25
ATOM     25  C   UNL     1       2.735   6.155  18.502  0.00  0.00    +0.000 A 
ATOM     26  C   UNL     1       1.974   5.000  18.291  0.00  0.00    +0.000 A 
ATOM     27  C   UNL     1       2.493   3.977  17.520  0.00  0.00    +0.000 A 
ATOM     28  N   UNL     1       3.709   4.020  16.944  0.00  0.00    +0.000 NA
ATOM     29  C   UNL     1       4.436   5.139  17.145  0.00  0.00    +0.000 A 
ATOM     30  C   UNL     1       4.000   6.215  17.903  0.00  0.00    +0.000 A 
ENDBRANCH  21  25
BRANCH  24  31
ATOM     31  O   UNL     1       0.191  10.182  21.527  0.00  0.00    +0.000 OA
ATOM     32  C   UNL     1      -0.071   9.766  22.846  0.00  0.00    +0.000 C 
ENDBRANCH  24  31
ENDBRANCH  17  19
ENDBRANCH   2  17
TORSDOF 6
ENDMDL
MODEL 7
REMARK VINA RESULT:      -7.9      1.913      8.291
REMARK  Name = 
REMARK  9 active torsions:
REMARK  status: ('A' for Active; 'I' for Inactive)
REMARK    1  A    between atoms: C_1  and  C_2
REMARK    2  A    between atoms: C_2  and  C_3
REMARK    3  A    between atoms: C_10  and  C_11
REMARK    4  A    between atoms: C_12  and  C_13
REMARK    5  A    between atoms: C_13  and  C_14
REMARK    6  A    between atoms: C_13  and  C_15
REMARK    7  A    between atoms: C_17  and  C_18
REMARK    8  A    between atoms: C_26  and  O_27
REMARK    9  A    between atoms: O_27  and  C_28
REMARK                            x       y       z     vdW  Elec       q    Type
REMARK                         _______ _______ _______ _____ _____    ______ ____
ROOT
ATOM      1  C   UNL     1      -1.825  11.141  18.307  0.00  0.00    +0.000 C 
ATOM      2  C   UNL     1      -0.654  10.901  18.524  0.00  0.00    +0.000 C 
ENDROOT
BRANCH   1  10
ATOM      3  C   UNL     1      -3.605  11.369  16.645  0.00  0.00    +0.000 A 
ATOM      4  N   UNL     1      -4.852  11.747  16.295  0.00  0.00    +0.000 NA
ATOM      5  C   UNL     1      -5.616  12.279  17.257  0.00  0.00    +0.000 A 
ATOM      6  N   UNL     1      -6.904  12.631  16.909  0.00  0.00    +0.000 N 
ATOM      7  N   UNL     1      -5.257  12.442  18.536  0.00  0.00    +0.000 NA
ATOM      8  C   UNL     1      -4.015  12.063  18.869  0.00  0.00    +0.000 A 
ATOM      9  N   UNL     1      -3.665  12.164  20.221  0.00  0.00    +0.000 N 
ATOM     10  C   UNL     1      -3.143  11.503  17.946  0.00  0.00    +0.000 A 
ATOM     11  H   UNL     1      -7.190  12.094  16.102  0.00  0.00    +0.000 HD
ATOM     12  H   UNL     1      -7.495  12.583  17.727  0.00  0.00    +0.000 HD
ATOM     13  H   UNL     1      -4.367  12.697  20.723  0.00  0.00    +0.000 HD
ATOM     14  H   UNL     1      -2.719  12.500  20.368  0.00  0.00    +0.000 HD
BRANCH   3  16
ATOM     15  C   UNL     1      -3.532   9.881  14.613  0.00  0.00    +0.000 C 
ATOM     16  C   UNL     1      -2.738  10.772  15.561  0.00  0.00    +0.000 C 
ENDBRANCH   3  16
ENDBRANCH   1  10
BRANCH   2  17
ATOM     17  C   UNL     1       0.806  10.762  18.577  0.00  0.00    +0.000 C 
ATOM     18  C   UNL     1       1.254  12.097  19.244  0.00  0.00    +0.000 C 
BRANCH  17  19
ATOM     19  C   UNL     1       1.220   9.452  19.263  0.00  0.00    +0.000 A 
ATOM     20  C   UNL     1       2.131   8.626  18.531  0.00  0.00    +0.000 A 
ATOM     21  C   UNL     1       2.531   7.339  18.934  0.00  0.00    +0.000 A 
ATOM     22  C   UNL     1       2.115   6.898  20.181  0.00  0.00    +0.000 A 
ATOM     23  C   UNL     1       1.284   7.698  20.955  0.00  0.00    +0.000 A 
ATOM     24  C   UNL     1       0.830   8.965  20.527  0.00  0.00    +0.000 A 
BRANCH  21  25
ATOM     25  C   UNL     1       3.289   6.453  18.031  0.00  0.00    +0.000 A 
ATOM     26  C   UNL     1       4.315   6.964  17.228  0.00  0.00    +0.000 A 
ATOM     27  C   UNL     1       5.047   6.102  16.432  0.00  0.00    +0.000 A 
ATOM     28  N   UNL     1       4.835   4.774  16.380  0.00  0.00    +0.000 NA
ATOM     29  C   UNL     1       3.849   4.286  17.161  0.00  0.00    +0.000 A 
ATOM     30  C   UNL     1       3.062   5.072  17.989  0.00  0.00    +0.000 A 
ENDBRANCH  21  25
BRANCH  24  31
ATOM     31  O   UNL     1       0.012   9.455  21.509  0.00  0.00    +0.000 OA
ATOM     32  C   UNL     1       0.314   9.358  22.880  0.00  0.00    +0.000 C 
ENDBRANCH  24  31
ENDBRANCH  17  19
ENDBRANCH   2  17
TORSDOF 6
ENDMDL
MODEL 8
REMARK VINA RESULT:      -7.9      1.917      8.113
REMARK  Name = 
REMARK  9 active torsions:
REMARK  status: ('A' for Active; 'I' for Inactive)
REMARK    1  A    between atoms: C_1  and  C_2
REMARK    2  A    between atoms: C_2  and  C_3
REMARK    3  A    between atoms: C_10  and  C_11
REMARK    4  A    between atoms: C_12  and  C_13
REMARK    5  A    between atoms: C_13  and  C_14
REMARK    6  A    between atoms: C_13  and  C_15
REMARK    7  A    between atoms: C_17  and  C_18
REMARK    8  A    between atoms: C_26  and  O_27
REMARK    9  A    between atoms: O_27  and  C_28
REMARK                            x       y       z     vdW  Elec       q    Type
REMARK                         _______ _______ _______ _____ _____    ______ ____
ROOT
ATOM      1  C   UNL     1      -1.566  11.508  18.429  0.00  0.00    +0.000 C 
ATOM      2  C   UNL     1      -0.382  11.286  18.589  0.00  0.00    +0.000 C 
ENDROOT
BRANCH   1  10
ATOM      3  C   UNL     1      -3.847  12.105  19.078  0.00  0.00    +0.000 A 
ATOM      4  N   UNL     1      -5.158  12.247  18.791  0.00  0.00    +0.000 NA
ATOM      5  C   UNL     1      -5.541  11.948  17.543  0.00  0.00    +0.000 A 
ATOM      6  N   UNL     1      -6.874  12.129  17.238  0.00  0.00    +0.000 N 
ATOM      7  N   UNL     1      -4.731  11.548  16.556  0.00  0.00    +0.000 NA
ATOM      8  C   UNL     1      -3.432  11.410  16.856  0.00  0.00    +0.000 A 
ATOM      9  N   UNL     1      -2.573  11.064  15.805  0.00  0.00    +0.000 N 
ATOM     10  C   UNL     1      -2.933  11.692  18.120  0.00  0.00    +0.000 A 
ATOM     11  H   UNL     1      -7.273  12.805  17.874  0.00  0.00    +0.000 HD
ATOM     12  H   UNL     1      -6.967  12.315  16.249  0.00  0.00    +0.000 HD
ATOM     13  H   UNL     1      -3.113  10.784  14.993  0.00  0.00    +0.000 HD
ATOM     14  H   UNL     1      -1.862  10.392  16.071  0.00  0.00    +0.000 HD
BRANCH   3  16
ATOM     15  C   UNL     1      -4.011  13.749  20.981  0.00  0.00    +0.000 C 
ATOM     16  C   UNL     1      -3.413  12.438  20.487  0.00  0.00    +0.000 C 
ENDBRANCH   3  16
ENDBRANCH   1  10
BRANCH   2  17
ATOM     17  C   UNL     1       1.027  10.879  18.560  0.00  0.00    +0.000 C 
ATOM     18  C   UNL     1       1.768  12.177  19.005  0.00  0.00    +0.000 C 
BRANCH  17  19
ATOM     19  C   UNL     1       1.262   9.609  19.390  0.00  0.00    +0.000 A 
ATOM     20  C   UNL     1       2.017   8.576  18.749  0.00  0.00    +0.000 A 
ATOM     21  C   UNL     1       2.232   7.298  19.296  0.00  0.00    +0.000 A 
ATOM     22  C   UNL     1       1.793   7.071  20.591  0.00  0.00    +0.000 A 
ATOM     23  C   UNL     1       1.114   8.071  21.276  0.00  0.00    +0.000 A 
ATOM     24  C   UNL     1       0.842   9.335  20.708  0.00  0.00    +0.000 A 
BRANCH  21  25
ATOM     25  C   UNL     1       2.822   6.210  18.494  0.00  0.00    +0.000 A 
ATOM     26  C   UNL     1       2.170   4.977  18.378  0.00  0.00    +0.000 A 
ATOM     27  C   UNL     1       2.718   3.994  17.574  0.00  0.00    +0.000 A 
ATOM     28  N   UNL     1       3.861   4.149  16.879  0.00  0.00    +0.000 NA
ATOM     29  C   UNL     1       4.481   5.342  16.990  0.00  0.00    +0.000 A 
ATOM     30  C   UNL     1       4.009   6.386  17.771  0.00  0.00    +0.000 A 
ENDBRANCH  21  25
BRANCH  24  31
ATOM     31  O   UNL     1       0.135  10.052  21.635  0.00  0.00    +0.000 OA
ATOM     32  C   UNL     1      -0.168   9.561  22.919  0.00  0.00    +0.000 C 
ENDBRANCH  24  31
ENDBRANCH  17  19
ENDBRANCH   2  17
TORSDOF 6
ENDMDL
MODEL 9
REMARK VINA RESULT:      -7.7      3.905      6.782
REMARK  Name = 
REMARK  9 active torsions:
REMARK  status: ('A' for Active; 'I' for Inactive)
REMARK    1  A    between atoms: C_1  and  C_2
REMARK    2  A    between atoms: C_2  and  C_3
REMARK    3  A    between atoms: C_10  and  C_11
REMARK    4  A    between atoms: C_12  and  C_13
REMARK    5  A    between atoms: C_13  and  C_14
REMARK    6  A    between atoms: C_13  and  C_15
REMARK    7  A    between atoms: C_17  and  C_18
REMARK    8  A    between atoms: C_26  and  O_27
REMARK    9  A    between atoms: O_27  and  C_28
REMARK                            x       y       z     vdW  Elec       q    Type
REMARK                         _______ _______ _______ _____ _____    ______ ____
ROOT
ATOM      1  C   UNL     1       4.534   4.190  16.026  0.00  0.00    +0.000 C 
ATOM      2  C   UNL     1       3.614   3.775  16.704  0.00  0.00    +0.000 C 
ENDROOT
BRANCH   1  10
ATOM      3  C   UNL     1       6.692   5.336  15.941  0.00  0.00    +0.000 A 
ATOM      4  N   UNL     1       7.781   5.756  15.262  0.00  0.00    +0.000 NA
ATOM      5  C   UNL     1       7.839   5.448  13.960  0.00  0.00    +0.000 A 
ATOM      6  N   UNL     1       8.968   5.844  13.274  0.00  0.00    +0.000 N 
ATOM      7  N   UNL     1       6.925   4.739  13.287  0.00  0.00    +0.000 NA
ATOM      8  C   UNL     1       5.849   4.331  13.973  0.00  0.00    +0.000 A 
ATOM      9  N   UNL     1       4.930   3.527  13.288  0.00  0.00    +0.000 N 
ATOM     10  C   UNL     1       5.691   4.599  15.326  0.00  0.00    +0.000 A 
ATOM     11  H   UNL     1       9.730   5.965  13.927  0.00  0.00    +0.000 HD
ATOM     12  H   UNL     1       9.123   5.216  12.497  0.00  0.00    +0.000 HD
ATOM     13  H   UNL     1       5.136   3.531  12.294  0.00  0.00    +0.000 HD
ATOM     14  H   UNL     1       3.963   3.748  13.502  0.00  0.00    +0.000 HD
BRANCH   3  16
ATOM     15  C   UNL     1       7.394   6.958  17.737  0.00  0.00    +0.000 C 
ATOM     16  C   UNL     1       6.622   5.686  17.409  0.00  0.00    +0.000 C 
ENDBRANCH   3  16
ENDBRANCH   1  10
BRANCH   2  17
ATOM     17  C   UNL     1       2.690   3.151  17.657  0.00  0.00    +0.000 C 
ATOM     18  C   UNL     1       3.378   1.784  17.957  0.00  0.00    +0.000 C 
BRANCH  17  19
ATOM     19  C   UNL     1       2.402   4.076  18.848  0.00  0.00    +0.000 A 
ATOM     20  C   UNL     1       2.138   5.445  18.525  0.00  0.00    +0.000 A 
ATOM     21  C   UNL     1       1.973   6.466  19.479  0.00  0.00    +0.000 A 
ATOM     22  C   UNL     1       1.937   6.097  20.815  0.00  0.00    +0.000 A 
ATOM     23  C   UNL     1       2.121   4.766  21.169  0.00  0.00    +0.000 A 
ATOM     24  C   UNL     1       2.349   3.748  20.219  0.00  0.00    +0.000 A 
BRANCH  21  25
ATOM     25  C   UNL     1       1.928   7.885  19.083  0.00  0.00    +0.000 A 
ATOM     26  C   UNL     1       2.526   8.312  17.892  0.00  0.00    +0.000 A 
ATOM     27  C   UNL     1       2.421   9.639  17.517  0.00  0.00    +0.000 A 
ATOM     28  N   UNL     1       1.764  10.568  18.237  0.00  0.00    +0.000 NA
ATOM     29  C   UNL     1       1.184  10.149  19.381  0.00  0.00    +0.000 A 
ATOM     30  C   UNL     1       1.237   8.841  19.838  0.00  0.00    +0.000 A 
ENDBRANCH  21  25
BRANCH  24  31
ATOM     31  O   UNL     1       2.521   2.579  20.910  0.00  0.00    +0.000 OA
ATOM     32  C   UNL     1       1.715   2.206  22.002  0.00  0.00    +0.000 C 
ENDBRANCH  24  31
ENDBRANCH  17  19
ENDBRANCH   2  17
TORSDOF 6
ENDMDL
