MODEL 1
REMARK VINA RESULT:      -7.2      0.000      0.000
REMARK  Name = 
REMARK  12 active torsions:
REMARK  status: ('A' for Active; 'I' for Inactive)
REMARK    1  A    between atoms: C_1  and  C_2
REMARK    2  A    between atoms: C_4  and  C_5
REMARK    3  A    between atoms: C_5  and  C_6
REMARK    4  A    between atoms: C_6  and  C_7
REMARK    5  A    between atoms: C_7  and  C_8
REMARK    6  A    between atoms: C_8  and  C_9
REMARK    7  A    between atoms: C_9  and  C_10
REMARK    8  A    between atoms: C_10  and  C_11
REMARK    9  A    between atoms: C_11  and  O_12
REMARK   10  A    between atoms: O_12  and  C_13
REMARK   11  A    between atoms: C_16  and  C_17
REMARK   12  A    between atoms: N_19  and  N_20
REMARK                            x       y       z     vdW  Elec       q    Type
REMARK                         _______ _______ _______ _____ _____    ______ ____
ROOT
ATOM      1  O   UNL     1       2.914   5.703  19.960  0.00  0.00    +0.000 OA
ENDROOT
BRANCH   1   2
ATOM      2  C   UNL     1       2.400   6.898  19.531  0.00  0.00    +0.000 A 
ATOM      3  C   UNL     1       1.764   7.662  20.508  0.00  0.00    +0.000 A 
ATOM      4  C   UNL     1       1.185   8.889  20.178  0.00  0.00    +0.000 A 
ATOM      5  C   UNL     1       1.249   9.380  18.867  0.00  0.00    +0.000 A 
ATOM      6  C   UNL     1       1.907   8.622  17.893  0.00  0.00    +0.000 A 
ATOM      7  C   UNL     1       2.486   7.392  18.227  0.00  0.00    +0.000 A 
BRANCH   5   8
ATOM      8  C   UNL     1       0.584  10.683  18.569  0.00  0.00    +0.000 C 
ATOM      9  O   UNL     1       1.084  11.743  18.954  0.00  0.00    +0.000 OA
ATOM     10  N   UNL     1      -0.617  10.651  17.865  0.00  0.00    +0.000 N 
ATOM     11  H   UNL     1      -0.948   9.811  17.406  0.00  0.00    +0.000 HD
BRANCH  10  12
ATOM     12  N   UNL     1      -1.255  11.870  17.545  0.00  0.00    +0.000 NA
ATOM     13  H   UNL     1      -1.302  11.913  16.515  0.00  0.00    +0.000 HD
ATOM     14  H   UNL     1      -0.616  12.631  17.791  0.00  0.00    +0.000 HD
ENDBRANCH  10  12
ENDBRANCH   5   8
ENDBRANCH   1   2
BRANCH   1  15
ATOM     15  C   UNL     1       2.122   5.042  20.944  0.00  0.00    +0.000 C 
BRANCH  15  16
ATOM     16  C   UNL     1       0.918   4.377  20.283  0.00  0.00    +0.000 C 
BRANCH  16  17
ATOM     17  C   UNL     1       1.248   2.966  19.781  0.00  0.00    +0.000 C 
BRANCH  17  18
ATOM     18  C   UNL     1       1.419   2.918  18.263  0.00  0.00    +0.000 C 
BRANCH  18  19
ATOM     19  C   UNL     1       2.601   2.059  17.829  0.00  0.00    +0.000 C 
BRANCH  19  20
ATOM     20  C   UNL     1       3.902   2.798  18.146  0.00  0.00    +0.000 C 
BRANCH  20  21
ATOM     21  C   UNL     1       4.175   3.937  17.170  0.00  0.00    +0.000 C 
BRANCH  21  25
ATOM     22  C   UNL     1       7.900   7.273  18.153  0.00  0.00    +0.000 C 
ATOM     23  C   UNL     1       6.962   6.133  18.106  0.00  0.00    +0.000 A 
ATOM     24  C   UNL     1       5.823   5.975  17.287  0.00  0.00    +0.000 A 
ATOM     25  C   UNL     1       5.319   4.748  17.641  0.00  0.00    +0.000 A 
ATOM     26  O   UNL     1       6.103   4.203  18.608  0.00  0.00    +0.000 OA
ATOM     27  N   UNL     1       7.140   5.073  18.904  0.00  0.00    +0.000 NA
ENDBRANCH  21  25
ENDBRANCH  20  21
ENDBRANCH  19  20
ENDBRANCH  18  19
ENDBRANCH  17  18
ENDBRANCH  16  17
ENDBRANCH  15  16
ENDBRANCH   1  15
TORSDOF 11
ENDMDL
MODEL 2
REMARK VINA RESULT:      -6.9      2.543      6.581
REMARK  Name = 
REMARK  12 active torsions:
REMARK  status: ('A' for Active; 'I' for Inactive)
REMARK    1  A    between atoms: C_1  and  C_2
REMARK    2  A    between atoms: C_4  and  C_5
REMARK    3  A    between atoms: C_5  and  C_6
REMARK    4  A    between atoms: C_6  and  C_7
REMARK    5  A    between atoms: C_7  and  C_8
REMARK    6  A    between atoms: C_8  and  C_9
REMARK    7  A    between atoms: C_9  and  C_10
REMARK    8  A    between atoms: C_10  and  C_11
REMARK    9  A    between atoms: C_11  and  O_12
REMARK   10  A    between atoms: O_12  and  C_13
REMARK   11  A    between atoms: C_16  and  C_17
REMARK   12  A    between atoms: N_19  and  N_20
REMARK                            x       y       z     vdW  Elec       q    Type
REMARK                         _______ _______ _______ _____ _____    ______ ____
ROOT
ATOM      1  O   UNL     1       1.466   3.558  17.472  0.00  0.00    +0.000 OA
ENDROOT
BRANCH   1   2
ATOM      2  C   UNL     1       2.735   4.066  17.563  0.00  0.00    +0.000 A 
ATOM      3  C   UNL     1       2.818   5.454  17.668  0.00  0.00    +0.000 A 
ATOM      4  C   UNL     1       4.064   6.082  17.746  0.00  0.00    +0.000 A 
ATOM      5  C   UNL     1       5.246   5.329  17.738  0.00  0.00    +0.000 A 
ATOM      6  C   UNL     1       5.159   3.935  17.656  0.00  0.00    +0.000 A 
ATOM      7  C   UNL     1       3.909   3.309  17.577  0.00  0.00    +0.000 A 
BRANCH   5   8
ATOM      8  C   UNL     1       6.547   6.058  17.792  0.00  0.00    +0.000 C 
ATOM      9  O   UNL     1       7.506   5.583  18.408  0.00  0.00    +0.000 OA
ATOM     10  N   UNL     1       6.627   7.288  17.145  0.00  0.00    +0.000 N 
ATOM     11  H   UNL     1       5.909   7.607  16.506  0.00  0.00    +0.000 HD
BRANCH  10  12
ATOM     12  N   UNL     1       7.854   7.988  17.156  0.00  0.00    +0.000 NA
ATOM     13  H   UNL     1       8.541   7.382  16.683  0.00  0.00    +0.000 HD
ATOM     14  H   UNL     1       8.186   8.021  18.125  0.00  0.00    +0.000 HD
ENDBRANCH  10  12
ENDBRANCH   5   8
ENDBRANCH   1   2
BRANCH   1  15
ATOM     15  C   UNL     1       1.190   2.500  18.386  0.00  0.00    +0.000 C 
BRANCH  15  16
ATOM     16  C   UNL     1       0.764   3.073  19.735  0.00  0.00    +0.000 C 
BRANCH  16  17
ATOM     17  C   UNL     1       1.904   3.034  20.759  0.00  0.00    +0.000 C 
BRANCH  17  18
ATOM     18  C   UNL     1       2.275   4.429  21.263  0.00  0.00    +0.000 C 
BRANCH  18  19
ATOM     19  C   UNL     1       1.460   5.533  20.599  0.00  0.00    +0.000 C 
BRANCH  19  20
ATOM     20  C   UNL     1       2.102   6.886  20.907  0.00  0.00    +0.000 C 
BRANCH  20  21
ATOM     21  C   UNL     1       1.375   8.041  20.228  0.00  0.00    +0.000 C 
BRANCH  21  25
ATOM     22  C   UNL     1      -1.362  11.279  23.056  0.00  0.00    +0.000 C 
ATOM     23  C   UNL     1      -0.408  10.287  22.516  0.00  0.00    +0.000 A 
ATOM     24  C   UNL     1      -0.336   9.773  21.204  0.00  0.00    +0.000 A 
ATOM     25  C   UNL     1       0.718   8.896  21.241  0.00  0.00    +0.000 A 
ATOM     26  O   UNL     1       1.248   8.884  22.493  0.00  0.00    +0.000 OA
ATOM     27  N   UNL     1       0.540   9.760  23.299  0.00  0.00    +0.000 NA
ENDBRANCH  21  25
ENDBRANCH  20  21
ENDBRANCH  19  20
ENDBRANCH  18  19
ENDBRANCH  17  18
ENDBRANCH  16  17
ENDBRANCH  15  16
ENDBRANCH   1  15
TORSDOF 11
ENDMDL
MODEL 3
REMARK VINA RESULT:      -6.8      0.977      1.410
REMARK  Name = 
REMARK  12 active torsions:
REMARK  status: ('A' for Active; 'I' for Inactive)
REMARK    1  A    between atoms: C_1  and  C_2
REMARK    2  A    between atoms: C_4  and  C_5
REMARK    3  A    between atoms: C_5  and  C_6
REMARK    4  A    between atoms: C_6  and  C_7
REMARK    5  A    between atoms: C_7  and  C_8
REMARK    6  A    between atoms: C_8  and  C_9
REMARK    7  A    between atoms: C_9  and  C_10
REMARK    8  A    between atoms: C_10  and  C_11
REMARK    9  A    between atoms: C_11  and  O_12
REMARK   10  A    between atoms: O_12  and  C_13
REMARK   11  A    between atoms: C_16  and  C_17
REMARK   12  A    between atoms: N_19  and  N_20
REMARK                            x       y       z     vdW  Elec       q    Type
REMARK                         _______ _______ _______ _____ _____    ______ ____
ROOT
ATOM      1  O   UNL     1       2.708   6.447  20.004  0.00  0.00    +0.000 OA
ENDROOT
BRANCH   1   2
ATOM      2  C   UNL     1       2.162   7.635  19.595  0.00  0.00    +0.000 A 
ATOM      3  C   UNL     1       1.432   8.324  20.563  0.00  0.00    +0.000 A 
ATOM      4  C   UNL     1       0.814   9.537  20.250  0.00  0.00    +0.000 A 
ATOM      5  C   UNL     1       0.932  10.089  18.967  0.00  0.00    +0.000 A 
ATOM      6  C   UNL     1       1.685   9.408  18.005  0.00  0.00    +0.000 A 
ATOM      7  C   UNL     1       2.302   8.192  18.321  0.00  0.00    +0.000 A 
BRANCH   5   8
ATOM      8  C   UNL     1       0.223  11.372  18.684  0.00  0.00    +0.000 C 
ATOM      9  O   UNL     1       0.535  12.405  19.282  0.00  0.00    +0.000 OA
ATOM     10  N   UNL     1      -0.803  11.351  17.743  0.00  0.00    +0.000 N 
ATOM     11  H   UNL     1      -0.956  10.557  17.133  0.00  0.00    +0.000 HD
BRANCH  10  12
ATOM     12  N   UNL     1      -1.474  12.555  17.435  0.00  0.00    +0.000 NA
ATOM     13  H   UNL     1      -1.919  12.873  18.309  0.00  0.00    +0.000 HD
ATOM     14  H   UNL     1      -2.268  12.324  16.829  0.00  0.00    +0.000 HD
ENDBRANCH  10  12
ENDBRANCH   5   8
ENDBRANCH   1   2
BRANCH   1  15
ATOM     15  C   UNL     1       1.843   5.650  20.809  0.00  0.00    +0.000 C 
BRANCH  15  16
ATOM     16  C   UNL     1       2.486   4.293  21.080  0.00  0.00    +0.000 C 
BRANCH  16  17
ATOM     17  C   UNL     1       1.439   3.185  21.240  0.00  0.00    +0.000 C 
BRANCH  17  18
ATOM     18  C   UNL     1       0.633   2.963  19.960  0.00  0.00    +0.000 C 
BRANCH  18  19
ATOM     19  C   UNL     1       1.502   2.966  18.708  0.00  0.00    +0.000 C 
BRANCH  19  20
ATOM     20  C   UNL     1       2.488   1.799  18.778  0.00  0.00    +0.000 C 
BRANCH  20  21
ATOM     21  C   UNL     1       3.610   1.925  17.752  0.00  0.00    +0.000 C 
BRANCH  21  25
ATOM     22  C   UNL     1       5.909   6.473  17.668  0.00  0.00    +0.000 C 
ATOM     23  C   UNL     1       5.386   5.128  17.985  0.00  0.00    +0.000 A 
ATOM     24  C   UNL     1       4.512   4.329  17.215  0.00  0.00    +0.000 A 
ATOM     25  C   UNL     1       4.351   3.189  17.961  0.00  0.00    +0.000 A 
ATOM     26  O   UNL     1       5.080   3.292  19.104  0.00  0.00    +0.000 OA
ATOM     27  N   UNL     1       5.734   4.514  19.122  0.00  0.00    +0.000 NA
ENDBRANCH  21  25
ENDBRANCH  20  21
ENDBRANCH  19  20
ENDBRANCH  18  19
ENDBRANCH  17  18
ENDBRANCH  16  17
ENDBRANCH  15  16
ENDBRANCH   1  15
TORSDOF 11
ENDMDL
MODEL 4
REMARK VINA RESULT:      -6.7      2.154      2.637
REMARK  Name = 
REMARK  12 active torsions:
REMARK  status: ('A' for Active; 'I' for Inactive)
REMARK    1  A    between atoms: C_1  and  C_2
REMARK    2  A    between atoms: C_4  and  C_5
REMARK    3  A    between atoms: C_5  and  C_6
REMARK    4  A    between atoms: C_6  and  C_7
REMARK    5  A    between atoms: C_7  and  C_8
REMARK    6  A    between atoms: C_8  and  C_9
REMARK    7  A    between atoms: C_9  and  C_10
REMARK    8  A    between atoms: C_10  and  C_11
REMARK    9  A    between atoms: C_11  and  O_12
REMARK   10  A    between atoms: O_12  and  C_13
REMARK   11  A    between atoms: C_16  and  C_17
REMARK   12  A    between atoms: N_19  and  N_20
REMARK                            x       y       z     vdW  Elec       q    Type
REMARK                         _______ _______ _______ _____ _____    ______ ____
ROOT
ATOM      1  O   UNL     1       2.375   5.395  20.401  0.00  0.00    +0.000 OA
ENDROOT
BRANCH   1   2
ATOM      2  C   UNL     1       2.067   6.668  20.002  0.00  0.00    +0.000 A 
ATOM      3  C   UNL     1       2.523   7.025  18.733  0.00  0.00    +0.000 A 
ATOM      4  C   UNL     1       2.284   8.306  18.232  0.00  0.00    +0.000 A 
ATOM      5  C   UNL     1       1.568   9.246  18.985  0.00  0.00    +0.000 A 
ATOM      6  C   UNL     1       1.092   8.879  20.248  0.00  0.00    +0.000 A 
ATOM      7  C   UNL     1       1.334   7.594  20.748  0.00  0.00    +0.000 A 
BRANCH   5   8
ATOM      8  C   UNL     1       1.372  10.609  18.409  0.00  0.00    +0.000 C 
ATOM      9  O   UNL     1       2.322  11.224  17.917  0.00  0.00    +0.000 OA
ATOM     10  N   UNL     1       0.094  11.159  18.467  0.00  0.00    +0.000 N 
ATOM     11  H   UNL     1      -0.718  10.606  18.715  0.00  0.00    +0.000 HD
BRANCH  10  12
ATOM     12  N   UNL     1      -0.128  12.436  17.906  0.00  0.00    +0.000 NA
ATOM     13  H   UNL     1       0.642  13.038  18.236  0.00  0.00    +0.000 HD
ATOM     14  H   UNL     1      -0.957  12.836  18.356  0.00  0.00    +0.000 HD
ENDBRANCH  10  12
ENDBRANCH   5   8
ENDBRANCH   1   2
BRANCH   1  15
ATOM     15  C   UNL     1       1.246   4.539  20.556  0.00  0.00    +0.000 C 
BRANCH  15  16
ATOM     16  C   UNL     1       1.671   3.082  20.394  0.00  0.00    +0.000 C 
BRANCH  16  17
ATOM     17  C   UNL     1       2.770   2.920  19.337  0.00  0.00    +0.000 C 
BRANCH  17  18
ATOM     18  C   UNL     1       2.249   3.161  17.920  0.00  0.00    +0.000 C 
BRANCH  18  19
ATOM     19  C   UNL     1       3.190   4.020  17.083  0.00  0.00    +0.000 C 
BRANCH  19  20
ATOM     20  C   UNL     1       4.609   3.459  17.191  0.00  0.00    +0.000 C 
BRANCH  20  21
ATOM     21  C   UNL     1       5.672   4.550  17.105  0.00  0.00    +0.000 C 
BRANCH  21  25
ATOM     22  C   UNL     1       7.034   4.123  12.212  0.00  0.00    +0.000 C 
ATOM     23  C   UNL     1       6.862   4.486  13.634  0.00  0.00    +0.000 A 
ATOM     24  C   UNL     1       5.957   3.939  14.570  0.00  0.00    +0.000 A 
ATOM     25  C   UNL     1       6.213   4.626  15.729  0.00  0.00    +0.000 A 
ATOM     26  O   UNL     1       7.206   5.527  15.508  0.00  0.00    +0.000 OA
ATOM     27  N   UNL     1       7.617   5.442  14.188  0.00  0.00    +0.000 NA
ENDBRANCH  21  25
ENDBRANCH  20  21
ENDBRANCH  19  20
ENDBRANCH  18  19
ENDBRANCH  17  18
ENDBRANCH  16  17
ENDBRANCH  15  16
ENDBRANCH   1  15
TORSDOF 11
ENDMDL
MODEL 5
REMARK VINA RESULT:      -6.7      2.062      2.570
REMARK  Name = 
REMARK  12 active torsions:
REMARK  status: ('A' for Active; 'I' for Inactive)
REMARK    1  A    between atoms: C_1  and  C_2
REMARK    2  A    between atoms: C_4  and  C_5
REMARK    3  A    between atoms: C_5  and  C_6
REMARK    4  A    between atoms: C_6  and  C_7
REMARK    5  A    between atoms: C_7  and  C_8
REMARK    6  A    between atoms: C_8  and  C_9
REMARK    7  A    between atoms: C_9  and  C_10
REMARK    8  A    between atoms: C_10  and  C_11
REMARK    9  A    between atoms: C_11  and  O_12
REMARK   10  A    between atoms: O_12  and  C_13
REMARK   11  A    between atoms: C_16  and  C_17
REMARK   12  A    between atoms: N_19  and  N_20
REMARK                            x       y       z     vdW  Elec       q    Type
REMARK                         _______ _______ _______ _____ _____    ______ ____
ROOT
ATOM      1  O   UNL     1       2.382   5.383  20.460  0.00  0.00    +0.000 OA
ENDROOT
BRANCH   1   2
ATOM      2  C   UNL     1       2.141   6.613  19.905  0.00  0.00    +0.000 A 
ATOM      3  C   UNL     1       1.481   7.522  20.730  0.00  0.00    +0.000 A 
ATOM      4  C   UNL     1       1.165   8.800  20.261  0.00  0.00    +0.000 A 
ATOM      5  C   UNL     1       1.521   9.193  18.964  0.00  0.00    +0.000 A 
ATOM      6  C   UNL     1       2.203   8.286  18.146  0.00  0.00    +0.000 A 
ATOM      7  C   UNL     1       2.517   7.007  18.619  0.00  0.00    +0.000 A 
BRANCH   5   8
ATOM      8  C   UNL     1       1.128  10.559  18.509  0.00  0.00    +0.000 C 
ATOM      9  O   UNL     1       1.978  11.445  18.382  0.00  0.00    +0.000 OA
ATOM     10  N   UNL     1      -0.221  10.795  18.256  0.00  0.00    +0.000 N 
ATOM     11  H   UNL     1      -0.896  10.042  18.198  0.00  0.00    +0.000 HD
BRANCH  10  12
ATOM     12  N   UNL     1      -0.619  12.071  17.798  0.00  0.00    +0.000 NA
ATOM     13  H   UNL     1      -1.340  12.405  18.456  0.00  0.00    +0.000 HD
ATOM     14  H   UNL     1      -1.132  11.942  16.921  0.00  0.00    +0.000 HD
ENDBRANCH  10  12
ENDBRANCH   5   8
ENDBRANCH   1   2
BRANCH   1  15
ATOM     15  C   UNL     1       1.367   4.415  20.206  0.00  0.00    +0.000 C 
BRANCH  15  16
ATOM     16  C   UNL     1       1.854   3.409  19.168  0.00  0.00    +0.000 C 
BRANCH  16  17
ATOM     17  C   UNL     1       2.990   2.533  19.709  0.00  0.00    +0.000 C 
BRANCH  17  18
ATOM     18  C   UNL     1       4.366   3.147  19.449  0.00  0.00    +0.000 C 
BRANCH  18  19
ATOM     19  C   UNL     1       4.478   3.782  18.068  0.00  0.00    +0.000 C 
BRANCH  19  20
ATOM     20  C   UNL     1       5.622   4.796  18.074  0.00  0.00    +0.000 C 
BRANCH  20  21
ATOM     21  C   UNL     1       5.461   5.858  16.991  0.00  0.00    +0.000 C 
BRANCH  21  25
ATOM     22  C   UNL     1       6.588   3.706  12.510  0.00  0.00    +0.000 C 
ATOM     23  C   UNL     1       6.564   4.451  13.786  0.00  0.00    +0.000 A 
ATOM     24  C   UNL     1       5.500   4.569  14.706  0.00  0.00    +0.000 A 
ATOM     25  C   UNL     1       6.004   5.362  15.707  0.00  0.00    +0.000 A 
ATOM     26  O   UNL     1       7.287   5.697  15.410  0.00  0.00    +0.000 OA
ATOM     27  N   UNL     1       7.643   5.125  14.200  0.00  0.00    +0.000 NA
ENDBRANCH  21  25
ENDBRANCH  20  21
ENDBRANCH  19  20
ENDBRANCH  18  19
ENDBRANCH  17  18
ENDBRANCH  16  17
ENDBRANCH  15  16
ENDBRANCH   1  15
TORSDOF 11
ENDMDL
MODEL 6
REMARK VINA RESULT:      -6.6      1.919      6.510
REMARK  Name = 
REMARK  12 active torsions:
REMARK  status: ('A' for Active; 'I' for Inactive)
REMARK    1  A    between atoms: C_1  and  C_2
REMARK    2  A    between atoms: C_4  and  C_5
REMARK    3  A    between atoms: C_5  and  C_6
REMARK    4  A    between atoms: C_6  and  C_7
REMARK    5  A    between atoms: C_7  and  C_8
REMARK    6  A    between atoms: C_8  and  C_9
REMARK    7  A    between atoms: C_9  and  C_10
REMARK    8  A    between atoms: C_10  and  C_11
REMARK    9  A    between atoms: C_11  and  O_12
REMARK   10  A    between atoms: O_12  and  C_13
REMARK   11  A    between atoms: C_16  and  C_17
REMARK   12  A    between atoms: N_19  and  N_20
REMARK                            x       y       z     vdW  Elec       q    Type
REMARK                         _______ _______ _______ _____ _____    ______ ____
ROOT
ATOM      1  O   UNL     1       3.222   2.684  19.742  0.00  0.00    +0.000 OA
ENDROOT
BRANCH   1   2
ATOM      2  C   UNL     1       3.958   3.319  18.777  0.00  0.00    +0.000 A 
ATOM      3  C   UNL     1       5.051   4.050  19.242  0.00  0.00    +0.000 A 
ATOM      4  C   UNL     1       5.860   4.755  18.348  0.00  0.00    +0.000 A 
ATOM      5  C   UNL     1       5.599   4.724  16.971  0.00  0.00    +0.000 A 
ATOM      6  C   UNL     1       4.516   3.972  16.505  0.00  0.00    +0.000 A 
ATOM      7  C   UNL     1       3.706   3.268  17.404  0.00  0.00    +0.000 A 
BRANCH   5   8
ATOM      8  C   UNL     1       6.480   5.523  16.069  0.00  0.00    +0.000 C 
ATOM      9  O   UNL     1       6.581   6.744  16.213  0.00  0.00    +0.000 OA
ATOM     10  N   UNL     1       7.158   4.845  15.059  0.00  0.00    +0.000 N 
ATOM     11  H   UNL     1       7.212   3.834  15.033  0.00  0.00    +0.000 HD
BRANCH  10  12
ATOM     12  N   UNL     1       8.019   5.570  14.206  0.00  0.00    +0.000 NA
ATOM     13  H   UNL     1       8.022   5.073  13.303  0.00  0.00    +0.000 HD
ATOM     14  H   UNL     1       8.976   5.449  14.552  0.00  0.00    +0.000 HD
ENDBRANCH  10  12
ENDBRANCH   5   8
ENDBRANCH   1   2
BRANCH   1  15
ATOM     15  C   UNL     1       1.856   2.472  19.394  0.00  0.00    +0.000 C 
BRANCH  15  16
ATOM     16  C   UNL     1       0.975   3.509  20.085  0.00  0.00    +0.000 C 
BRANCH  16  17
ATOM     17  C   UNL     1       1.805   4.557  20.835  0.00  0.00    +0.000 C 
BRANCH  17  18
ATOM     18  C   UNL     1       1.379   5.985  20.490  0.00  0.00    +0.000 C 
BRANCH  18  19
ATOM     19  C   UNL     1       2.527   6.828  19.947  0.00  0.00    +0.000 C 
BRANCH  19  20
ATOM     20  C   UNL     1       2.514   6.766  18.419  0.00  0.00    +0.000 C 
BRANCH  20  21
ATOM     21  C   UNL     1       2.693   8.141  17.782  0.00  0.00    +0.000 C 
BRANCH  21  25
ATOM     22  C   UNL     1      -0.593  11.382  19.943  0.00  0.00    +0.000 C 
ATOM     23  C   UNL     1       0.127  10.415  19.088  0.00  0.00    +0.000 A 
ATOM     24  C   UNL     1       1.423   9.886  19.272  0.00  0.00    +0.000 A 
ATOM     25  C   UNL     1       1.599   9.043  18.204  0.00  0.00    +0.000 A 
ATOM     26  O   UNL     1       0.483   9.062  17.428  0.00  0.00    +0.000 OA
ATOM     27  N   UNL     1      -0.447   9.926  17.983  0.00  0.00    +0.000 NA
ENDBRANCH  21  25
ENDBRANCH  20  21
ENDBRANCH  19  20
ENDBRANCH  18  19
ENDBRANCH  17  18
ENDBRANCH  16  17
ENDBRANCH  15  16
ENDBRANCH   1  15
TORSDOF 11
ENDMDL
MODEL 7
REMARK VINA RESULT:      -6.6      2.016      6.663
REMARK  Name = 
REMARK  12 active torsions:
REMARK  status: ('A' for Active; 'I' for Inactive)
REMARK    1  A    between atoms: C_1  and  C_2
REMARK    2  A    between atoms: C_4  and  C_5
REMARK    3  A    between atoms: C_5  and  C_6
REMARK    4  A    between atoms: C_6  and  C_7
REMARK    5  A    between atoms: C_7  and  C_8
REMARK    6  A    between atoms: C_8  and  C_9
REMARK    7  A    between atoms: C_9  and  C_10
REMARK    8  A    between atoms: C_10  and  C_11
REMARK    9  A    between atoms: C_11  and  O_12
REMARK   10  A    between atoms: O_12  and  C_13
REMARK   11  A    between atoms: C_16  and  C_17
REMARK   12  A    between atoms: N_19  and  N_20
REMARK                            x       y       z     vdW  Elec       q    Type
REMARK                         _______ _______ _______ _____ _____    ______ ____
ROOT
ATOM      1  O   UNL     1       3.610   2.615  19.979  0.00  0.00    +0.000 OA
ENDROOT
BRANCH   1   2
ATOM      2  C   UNL     1       4.151   3.239  18.886  0.00  0.00    +0.000 A 
ATOM      3  C   UNL     1       5.368   3.882  19.105  0.00  0.00    +0.000 A 
ATOM      4  C   UNL     1       6.000   4.569  18.066  0.00  0.00    +0.000 A 
ATOM      5  C   UNL     1       5.432   4.606  16.785  0.00  0.00    +0.000 A 
ATOM      6  C   UNL     1       4.223   3.940  16.562  0.00  0.00    +0.000 A 
ATOM      7  C   UNL     1       3.591   3.254  17.606  0.00  0.00    +0.000 A 
BRANCH   5   8
ATOM      8  C   UNL     1       6.139   5.382  15.723  0.00  0.00    +0.000 C 
ATOM      9  O   UNL     1       5.715   6.486  15.368  0.00  0.00    +0.000 OA
ATOM     10  N   UNL     1       7.268   4.809  15.144  0.00  0.00    +0.000 N 
ATOM     11  H   UNL     1       7.715   3.989  15.537  0.00  0.00    +0.000 HD
BRANCH  10  12
ATOM     12  N   UNL     1       7.972   5.531  14.156  0.00  0.00    +0.000 NA
ATOM     13  H   UNL     1       7.265   5.883  13.493  0.00  0.00    +0.000 HD
ATOM     14  H   UNL     1       8.511   4.859  13.602  0.00  0.00    +0.000 HD
ENDBRANCH  10  12
ENDBRANCH   5   8
ENDBRANCH   1   2
BRANCH   1  15
ATOM     15  C   UNL     1       2.204   2.395  19.894  0.00  0.00    +0.000 C 
BRANCH  15  16
ATOM     16  C   UNL     1       1.476   3.286  20.898  0.00  0.00    +0.000 C 
BRANCH  16  17
ATOM     17  C   UNL     1       0.892   4.537  20.233  0.00  0.00    +0.000 C 
BRANCH  17  18
ATOM     18  C   UNL     1       1.782   5.765  20.430  0.00  0.00    +0.000 C 
BRANCH  18  19
ATOM     19  C   UNL     1       2.419   6.246  19.131  0.00  0.00    +0.000 C 
BRANCH  19  20
ATOM     20  C   UNL     1       2.463   7.775  19.130  0.00  0.00    +0.000 C 
BRANCH  20  21
ATOM     21  C   UNL     1       1.633   8.378  18.001  0.00  0.00    +0.000 C 
BRANCH  21  25
ATOM     22  C   UNL     1      -0.212  12.974  19.206  0.00  0.00    +0.000 C 
ATOM     23  C   UNL     1       0.592  11.810  18.778  0.00  0.00    +0.000 A 
ATOM     24  C   UNL     1       0.228  10.446  18.795  0.00  0.00    +0.000 A 
ATOM     25  C   UNL     1       1.328   9.796  18.295  0.00  0.00    +0.000 A 
ATOM     26  O   UNL     1       2.291  10.708  17.996  0.00  0.00    +0.000 OA
ATOM     27  N   UNL     1       1.830  11.978  18.299  0.00  0.00    +0.000 NA
ENDBRANCH  21  25
ENDBRANCH  20  21
ENDBRANCH  19  20
ENDBRANCH  18  19
ENDBRANCH  17  18
ENDBRANCH  16  17
ENDBRANCH  15  16
ENDBRANCH   1  15
TORSDOF 11
ENDMDL
MODEL 8
REMARK VINA RESULT:      -6.5      5.187      8.211
REMARK  Name = 
REMARK  12 active torsions:
REMARK  status: ('A' for Active; 'I' for Inactive)
REMARK    1  A    between atoms: C_1  and  C_2
REMARK    2  A    between atoms: C_4  and  C_5
REMARK    3  A    between atoms: C_5  and  C_6
REMARK    4  A    between atoms: C_6  and  C_7
REMARK    5  A    between atoms: C_7  and  C_8
REMARK    6  A    between atoms: C_8  and  C_9
REMARK    7  A    between atoms: C_9  and  C_10
REMARK    8  A    between atoms: C_10  and  C_11
REMARK    9  A    between atoms: C_11  and  O_12
REMARK   10  A    between atoms: O_12  and  C_13
REMARK   11  A    between atoms: C_16  and  C_17
REMARK   12  A    between atoms: N_19  and  N_20
REMARK                            x       y       z     vdW  Elec       q    Type
REMARK                         _______ _______ _______ _____ _____    ______ ____
ROOT
ATOM      1  O   UNL     1       5.170   6.054  16.081  0.00  0.00    +0.000 OA
ENDROOT
BRANCH   1   2
ATOM      2  C   UNL     1       4.484   5.201  16.904  0.00  0.00    +0.000 A 
ATOM      3  C   UNL     1       3.696   5.812  17.878  0.00  0.00    +0.000 A 
ATOM      4  C   UNL     1       2.969   5.038  18.786  0.00  0.00    +0.000 A 
ATOM      5  C   UNL     1       3.004   3.639  18.721  0.00  0.00    +0.000 A 
ATOM      6  C   UNL     1       3.777   3.028  17.728  0.00  0.00    +0.000 A 
ATOM      7  C   UNL     1       4.506   3.806  16.821  0.00  0.00    +0.000 A 
BRANCH   5   8
ATOM      8  C   UNL     1       2.232   2.866  19.737  0.00  0.00    +0.000 C 
ATOM      9  O   UNL     1       1.544   1.899  19.398  0.00  0.00    +0.000 OA
ATOM     10  N   UNL     1       2.303   3.287  21.063  0.00  0.00    +0.000 N 
ATOM     11  H   UNL     1       2.985   3.968  21.374  0.00  0.00    +0.000 HD
BRANCH  10  12
ATOM     12  N   UNL     1       1.604   2.559  22.050  0.00  0.00    +0.000 NA
ATOM     13  H   UNL     1       0.681   3.010  22.148  0.00  0.00    +0.000 HD
ATOM     14  H   UNL     1       2.057   2.739  22.951  0.00  0.00    +0.000 HD
ENDBRANCH  10  12
ENDBRANCH   5   8
ENDBRANCH   1   2
BRANCH   1  15
ATOM     15  C   UNL     1       5.967   7.017  16.766  0.00  0.00    +0.000 C 
BRANCH  15  16
ATOM     16  C   UNL     1       7.254   6.367  17.267  0.00  0.00    +0.000 C 
BRANCH  16  17
ATOM     17  C   UNL     1       8.007   7.271  18.249  0.00  0.00    +0.000 C 
BRANCH  17  18
ATOM     18  C   UNL     1       7.954   8.742  17.836  0.00  0.00    +0.000 C 
BRANCH  18  19
ATOM     19  C   UNL     1       8.886   9.621  18.662  0.00  0.00    +0.000 C 
BRANCH  19  20
ATOM     20  C   UNL     1       8.967  11.008  18.022  0.00  0.00    +0.000 C 
BRANCH  20  21
ATOM     21  C   UNL     1      10.403  11.507  17.899  0.00  0.00    +0.000 C 
BRANCH  21  25
ATOM     22  C   UNL     1       9.648  16.547  17.921  0.00  0.00    +0.000 C 
ATOM     23  C   UNL     1      10.183  15.170  17.933  0.00  0.00    +0.000 A 
ATOM     24  C   UNL     1       9.462  13.955  17.917  0.00  0.00    +0.000 A 
ATOM     25  C   UNL     1      10.433  12.986  17.937  0.00  0.00    +0.000 A 
ATOM     26  O   UNL     1      11.657  13.576  17.962  0.00  0.00    +0.000 OA
ATOM     27  N   UNL     1      11.503  14.953  17.960  0.00  0.00    +0.000 NA
ENDBRANCH  21  25
ENDBRANCH  20  21
ENDBRANCH  19  20
ENDBRANCH  18  19
ENDBRANCH  17  18
ENDBRANCH  16  17
ENDBRANCH  15  16
ENDBRANCH   1  15
TORSDOF 11
ENDMDL
MODEL 9
REMARK VINA RESULT:      -6.4      5.346      7.972
REMARK  Name = 
REMARK  12 active torsions:
REMARK  status: ('A' for Active; 'I' for Inactive)
REMARK    1  A    between atoms: C_1  and  C_2
REMARK    2  A    between atoms: C_4  and  C_5
REMARK    3  A    between atoms: C_5  and  C_6
REMARK    4  A    between atoms: C_6  and  C_7
REMARK    5  A    between atoms: C_7  and  C_8
REMARK    6  A    between atoms: C_8  and  C_9
REMARK    7  A    between atoms: C_9  and  C_10
REMARK    8  A    between atoms: C_10  and  C_11
REMARK    9  A    between atoms: C_11  and  O_12
REMARK   10  A    between atoms: O_12  and  C_13
REMARK   11  A    between atoms: C_16  and  C_17
REMARK   12  A    between atoms: N_19  and  N_20
REMARK                            x       y       z     vdW  Elec       q    Type
REMARK                         _______ _______ _______ _____ _____    ______ ____
ROOT
ATOM      1  O   UNL     1       8.798   9.092  18.967  0.00  0.00    +0.000 OA
ENDROOT
BRANCH   1   2
ATOM      2  C   UNL     1       9.343  10.314  19.257  0.00  0.00    +0.000 A 
ATOM      3  C   UNL     1       9.750  11.065  18.155  0.00  0.00    +0.000 A 
ATOM      4  C   UNL     1      10.338  12.319  18.333  0.00  0.00    +0.000 A 
ATOM      5  C   UNL     1      10.513  12.850  19.619  0.00  0.00    +0.000 A 
ATOM      6  C   UNL     1      10.084  12.105  20.722  0.00  0.00    +0.000 A 
ATOM      7  C   UNL     1       9.495  10.848  20.539  0.00  0.00    +0.000 A 
BRANCH   5   8
ATOM      8  C   UNL     1      11.177  14.180  19.748  0.00  0.00    +0.000 C 
ATOM      9  O   UNL     1      12.331  14.346  19.343  0.00  0.00    +0.000 OA
ATOM     10  N   UNL     1      10.458  15.207  20.354  0.00  0.00    +0.000 N 
ATOM     11  H   UNL     1       9.465  15.131  20.539  0.00  0.00    +0.000 HD
BRANCH  10  12
ATOM     12  N   UNL     1      11.050  16.485  20.466  0.00  0.00    +0.000 NA
ATOM     13  H   UNL     1      11.189  16.654  21.474  0.00  0.00    +0.000 HD
ATOM     14  H   UNL     1      10.347  17.180  20.198  0.00  0.00    +0.000 HD
ENDBRANCH  10  12
ENDBRANCH   5   8
ENDBRANCH   1   2
BRANCH   1  15
ATOM     15  C   UNL     1       8.044   9.057  17.757  0.00  0.00    +0.000 C 
BRANCH  15  16
ATOM     16  C   UNL     1       7.450   7.666  17.554  0.00  0.00    +0.000 C 
BRANCH  16  17
ATOM     17  C   UNL     1       7.980   6.661  18.582  0.00  0.00    +0.000 C 
BRANCH  17  18
ATOM     18  C   UNL     1       7.502   5.236  18.298  0.00  0.00    +0.000 C 
BRANCH  18  19
ATOM     19  C   UNL     1       7.125   5.021  16.837  0.00  0.00    +0.000 C 
BRANCH  19  20
ATOM     20  C   UNL     1       5.752   4.351  16.766  0.00  0.00    +0.000 C 
BRANCH  20  21
ATOM     21  C   UNL     1       4.611   5.361  16.829  0.00  0.00    +0.000 C 
BRANCH  21  25
ATOM     22  C   UNL     1       0.974   3.947  20.109  0.00  0.00    +0.000 C 
ATOM     23  C   UNL     1       2.173   4.477  19.426  0.00  0.00    +0.000 A 
ATOM     24  C   UNL     1       2.505   4.390  18.056  0.00  0.00    +0.000 A 
ATOM     25  C   UNL     1       3.709   5.040  17.958  0.00  0.00    +0.000 A 
ATOM     26  O   UNL     1       4.078   5.489  19.187  0.00  0.00    +0.000 OA
ATOM     27  N   UNL     1       3.112   5.135  20.114  0.00  0.00    +0.000 NA
ENDBRANCH  21  25
ENDBRANCH  20  21
ENDBRANCH  19  20
ENDBRANCH  18  19
ENDBRANCH  17  18
ENDBRANCH  16  17
ENDBRANCH  15  16
ENDBRANCH   1  15
TORSDOF 11
ENDMDL
