MODEL 1
REMARK VINA RESULT:      -7.7      0.000      0.000
REMARK  Name = 
REMARK  12 active torsions:
REMARK  status: ('A' for Active; 'I' for Inactive)
REMARK    1  A    between atoms: C_1  and  C_2
REMARK    2  A    between atoms: C_2  and  C_3
REMARK    3  A    between atoms: C_2  and  C_4
REMARK    4  A    between atoms: C_4  and  C_5
REMARK    5  A    between atoms: C_5  and  C_6
REMARK    6  A    between atoms: C_5  and  C_10
REMARK    7  A    between atoms: N_8  and  O_9
REMARK    8  A    between atoms: N_12  and  C_13
REMARK    9  A    between atoms: C_13  and  C_14
REMARK   10  A    between atoms: C_13  and  C_15
REMARK   11  A    between atoms: N_17  and  C_18
REMARK   12  A    between atoms: C_18  and  C_19
REMARK                            x       y       z     vdW  Elec       q    Type
REMARK                         _______ _______ _______ _____ _____    ______ ____
ROOT
ATOM      1  C   UNL     1       4.618   4.454  17.552  0.00  0.00    +0.000 C 
ATOM      2  O   UNL     1       4.633   3.861  16.477  0.00  0.00    +0.000 OA
ATOM      3  N   UNL     1       5.390   5.565  17.825  0.00  0.00    +0.000 N 
ATOM      4  H   UNL     1       5.100   6.132  18.615  0.00  0.00    +0.000 HD
ENDROOT
BRANCH   3   5
ATOM      5  C   UNL     1       6.197   6.262  16.812  0.00  0.00    +0.000 C 
ATOM      6  C   UNL     1       7.033   7.403  17.387  0.00  0.00    +0.000 C 
BRANCH   5   7
ATOM      7  C   UNL     1       7.037   5.279  15.951  0.00  0.00    +0.000 C 
ATOM      8  O   UNL     1       7.872   4.520  16.438  0.00  0.00    +0.000 OA
ATOM      9  N   UNL     1       6.714   5.265  14.608  0.00  0.00    +0.000 N 
ATOM     10  H   UNL     1       6.017   5.897  14.243  0.00  0.00    +0.000 HD
BRANCH   9  11
ATOM     11  C   UNL     1       7.429   4.460  13.636  0.00  0.00    +0.000 C 
BRANCH  11  12
ATOM     12  C   UNL     1       6.466   3.719  12.739  0.00  0.00    +0.000 A 
ATOM     13  C   UNL     1       5.127   4.132  12.653  0.00  0.00    +0.000 A 
ATOM     14  C   UNL     1       4.227   3.455  11.828  0.00  0.00    +0.000 A 
ATOM     15  C   UNL     1       4.653   2.364  11.074  0.00  0.00    +0.000 A 
ATOM     16  C   UNL     1       5.983   1.950  11.141  0.00  0.00    +0.000 A 
ATOM     17  C   UNL     1       6.886   2.625  11.969  0.00  0.00    +0.000 A 
ENDBRANCH  11  12
ENDBRANCH   9  11
ENDBRANCH   5   7
ENDBRANCH   3   5
BRANCH   1  18
ATOM     18  C   UNL     1       3.721   3.954  18.678  0.00  0.00    +0.000 C 
BRANCH  18  19
ATOM     19  C   UNL     1       4.076   2.517  18.996  0.00  0.00    +0.000 C 
ATOM     20  O   UNL     1       3.527   1.556  18.468  0.00  0.00    +0.000 OA
ATOM     21  N   UNL     1       5.104   2.372  19.898  0.00  0.00    +0.000 N 
ATOM     22  H   UNL     1       5.457   3.109  20.496  0.00  0.00    +0.000 HD
BRANCH  21  23
ATOM     23  O   UNL     1       5.442   1.048  20.252  0.00  0.00    +0.000 OA
ATOM     24  H   UNL     1       5.886   1.167  21.119  0.00  0.00    +0.000 HD
ENDBRANCH  21  23
ENDBRANCH  18  19
BRANCH  18  25
ATOM     25  C   UNL     1       2.232   4.150  18.332  0.00  0.00    +0.000 C 
BRANCH  25  27
ATOM     26  C   UNL     1       0.795   3.109  20.187  0.00  0.00    +0.000 C 
ATOM     27  C   UNL     1       1.302   4.399  19.540  0.00  0.00    +0.000 C 
ATOM     28  C   UNL     1       2.029   5.236  20.600  0.00  0.00    +0.000 C 
ENDBRANCH  25  27
ENDBRANCH  18  25
ENDBRANCH   1  18
TORSDOF 9
ENDMDL
MODEL 2
REMARK VINA RESULT:      -7.7      4.080      8.474
REMARK  Name = 
REMARK  12 active torsions:
REMARK  status: ('A' for Active; 'I' for Inactive)
REMARK    1  A    between atoms: C_1  and  C_2
REMARK    2  A    between atoms: C_2  and  C_3
REMARK    3  A    between atoms: C_2  and  C_4
REMARK    4  A    between atoms: C_4  and  C_5
REMARK    5  A    between atoms: C_5  and  C_6
REMARK    6  A    between atoms: C_5  and  C_10
REMARK    7  A    between atoms: N_8  and  O_9
REMARK    8  A    between atoms: N_12  and  C_13
REMARK    9  A    between atoms: C_13  and  C_14
REMARK   10  A    between atoms: C_13  and  C_15
REMARK   11  A    between atoms: N_17  and  C_18
REMARK   12  A    between atoms: C_18  and  C_19
REMARK                            x       y       z     vdW  Elec       q    Type
REMARK                         _______ _______ _______ _____ _____    ______ ____
ROOT
ATOM      1  C   UNL     1       4.194   5.239  18.558  0.00  0.00    +0.000 C 
ATOM      2  O   UNL     1       5.000   5.559  19.426  0.00  0.00    +0.000 OA
ATOM      3  N   UNL     1       3.054   5.962  18.266  0.00  0.00    +0.000 N 
ATOM      4  H   UNL     1       2.620   5.776  17.368  0.00  0.00    +0.000 HD
ENDROOT
BRANCH   3   5
ATOM      5  C   UNL     1       2.757   7.279  18.849  0.00  0.00    +0.000 C 
ATOM      6  C   UNL     1       2.120   8.248  17.857  0.00  0.00    +0.000 C 
BRANCH   5   7
ATOM      7  C   UNL     1       1.956   7.168  20.175  0.00  0.00    +0.000 C 
ATOM      8  O   UNL     1       1.642   6.087  20.671  0.00  0.00    +0.000 OA
ATOM      9  N   UNL     1       1.696   8.374  20.797  0.00  0.00    +0.000 N 
ATOM     10  H   UNL     1       1.976   9.243  20.365  0.00  0.00    +0.000 HD
BRANCH   9  11
ATOM     11  C   UNL     1       0.909   8.479  22.011  0.00  0.00    +0.000 C 
BRANCH  11  12
ATOM     12  C   UNL     1       0.042   9.715  21.983  0.00  0.00    +0.000 A 
ATOM     13  C   UNL     1      -0.068  10.470  20.805  0.00  0.00    +0.000 A 
ATOM     14  C   UNL     1      -0.867  11.615  20.766  0.00  0.00    +0.000 A 
ATOM     15  C   UNL     1      -1.569  12.016  21.900  0.00  0.00    +0.000 A 
ATOM     16  C   UNL     1      -1.478  11.269  23.075  0.00  0.00    +0.000 A 
ATOM     17  C   UNL     1      -0.677  10.123  23.116  0.00  0.00    +0.000 A 
ENDBRANCH  11  12
ENDBRANCH   9  11
ENDBRANCH   5   7
ENDBRANCH   3   5
BRANCH   1  18
ATOM     18  C   UNL     1       4.422   3.970  17.744  0.00  0.00    +0.000 C 
BRANCH  18  19
ATOM     19  C   UNL     1       5.527   4.218  16.739  0.00  0.00    +0.000 C 
ATOM     20  O   UNL     1       5.320   4.401  15.543  0.00  0.00    +0.000 OA
ATOM     21  N   UNL     1       6.790   4.267  17.281  0.00  0.00    +0.000 N 
ATOM     22  H   UNL     1       7.033   3.940  18.209  0.00  0.00    +0.000 HD
BRANCH  21  23
ATOM     23  O   UNL     1       7.853   4.457  16.373  0.00  0.00    +0.000 OA
ATOM     24  H   UNL     1       8.617   4.614  16.969  0.00  0.00    +0.000 HD
ENDBRANCH  21  23
ENDBRANCH  18  19
BRANCH  18  25
ATOM     25  C   UNL     1       3.113   3.479  17.099  0.00  0.00    +0.000 C 
BRANCH  25  27
ATOM     26  C   UNL     1       3.488   1.428  18.596  0.00  0.00    +0.000 C 
ATOM     27  C   UNL     1       2.495   2.217  17.741  0.00  0.00    +0.000 C 
ATOM     28  C   UNL     1       1.289   2.603  18.607  0.00  0.00    +0.000 C 
ENDBRANCH  25  27
ENDBRANCH  18  25
ENDBRANCH   1  18
TORSDOF 9
ENDMDL
MODEL 3
REMARK VINA RESULT:      -7.6      3.609      5.677
REMARK  Name = 
REMARK  12 active torsions:
REMARK  status: ('A' for Active; 'I' for Inactive)
REMARK    1  A    between atoms: C_1  and  C_2
REMARK    2  A    between atoms: C_2  and  C_3
REMARK    3  A    between atoms: C_2  and  C_4
REMARK    4  A    between atoms: C_4  and  C_5
REMARK    5  A    between atoms: C_5  and  C_6
REMARK    6  A    between atoms: C_5  and  C_10
REMARK    7  A    between atoms: N_8  and  O_9
REMARK    8  A    between atoms: N_12  and  C_13
REMARK    9  A    between atoms: C_13  and  C_14
REMARK   10  A    between atoms: C_13  and  C_15
REMARK   11  A    between atoms: N_17  and  C_18
REMARK   12  A    between atoms: C_18  and  C_19
REMARK                            x       y       z     vdW  Elec       q    Type
REMARK                         _______ _______ _______ _____ _____    ______ ____
ROOT
ATOM      1  C   UNL     1       4.696   3.583  18.607  0.00  0.00    +0.000 C 
ATOM      2  O   UNL     1       4.573   3.406  17.399  0.00  0.00    +0.000 OA
ATOM      3  N   UNL     1       5.617   4.446  19.166  0.00  0.00    +0.000 N 
ATOM      4  H   UNL     1       5.448   4.727  20.126  0.00  0.00    +0.000 HD
ENDROOT
BRANCH   3   5
ATOM      5  C   UNL     1       6.445   5.370  18.376  0.00  0.00    +0.000 C 
ATOM      6  C   UNL     1       7.531   4.665  17.567  0.00  0.00    +0.000 C 
BRANCH   5   7
ATOM      7  C   UNL     1       5.589   6.337  17.514  0.00  0.00    +0.000 C 
ATOM      8  O   UNL     1       5.981   6.790  16.440  0.00  0.00    +0.000 OA
ATOM      9  N   UNL     1       4.322   6.583  18.006  0.00  0.00    +0.000 N 
ATOM     10  H   UNL     1       4.030   6.187  18.888  0.00  0.00    +0.000 HD
BRANCH   9  11
ATOM     11  C   UNL     1       3.399   7.507  17.374  0.00  0.00    +0.000 C 
BRANCH  11  12
ATOM     12  C   UNL     1       2.454   8.101  18.391  0.00  0.00    +0.000 A 
ATOM     13  C   UNL     1       2.284   7.482  19.639  0.00  0.00    +0.000 A 
ATOM     14  C   UNL     1       1.413   8.022  20.587  0.00  0.00    +0.000 A 
ATOM     15  C   UNL     1       0.707   9.189  20.304  0.00  0.00    +0.000 A 
ATOM     16  C   UNL     1       0.874   9.821  19.072  0.00  0.00    +0.000 A 
ATOM     17  C   UNL     1       1.744   9.281  18.120  0.00  0.00    +0.000 A 
ENDBRANCH  11  12
ENDBRANCH   9  11
ENDBRANCH   5   7
ENDBRANCH   3   5
BRANCH   1  18
ATOM     18  C   UNL     1       3.809   2.812  19.579  0.00  0.00    +0.000 C 
BRANCH  18  19
ATOM     19  C   UNL     1       4.613   1.690  20.201  0.00  0.00    +0.000 C 
ATOM     20  O   UNL     1       5.022   1.717  21.357  0.00  0.00    +0.000 OA
ATOM     21  N   UNL     1       4.812   0.608  19.376  0.00  0.00    +0.000 N 
ATOM     22  H   UNL     1       4.666   0.611  18.374  0.00  0.00    +0.000 HD
BRANCH  21  23
ATOM     23  O   UNL     1       5.590  -0.445  19.903  0.00  0.00    +0.000 OA
ATOM     24  H   UNL     1       6.312   0.035  20.364  0.00  0.00    +0.000 HD
ENDBRANCH  21  23
ENDBRANCH  18  19
BRANCH  18  25
ATOM     25  C   UNL     1       2.519   2.327  18.889  0.00  0.00    +0.000 C 
BRANCH  25  27
ATOM     26  C   UNL     1       1.221   3.970  20.373  0.00  0.00    +0.000 C 
ATOM     27  C   UNL     1       1.309   3.278  19.012  0.00  0.00    +0.000 C 
ATOM     28  C   UNL     1       1.365   4.346  17.912  0.00  0.00    +0.000 C 
ENDBRANCH  25  27
ENDBRANCH  18  25
ENDBRANCH   1  18
TORSDOF 9
ENDMDL
MODEL 4
REMARK VINA RESULT:      -7.5      2.487      7.237
REMARK  Name = 
REMARK  12 active torsions:
REMARK  status: ('A' for Active; 'I' for Inactive)
REMARK    1  A    between atoms: C_1  and  C_2
REMARK    2  A    between atoms: C_2  and  C_3
REMARK    3  A    between atoms: C_2  and  C_4
REMARK    4  A    between atoms: C_4  and  C_5
REMARK    5  A    between atoms: C_5  and  C_6
REMARK    6  A    between atoms: C_5  and  C_10
REMARK    7  A    between atoms: N_8  and  O_9
REMARK    8  A    between atoms: N_12  and  C_13
REMARK    9  A    between atoms: C_13  and  C_14
REMARK   10  A    between atoms: C_13  and  C_15
REMARK   11  A    between atoms: N_17  and  C_18
REMARK   12  A    between atoms: C_18  and  C_19
REMARK                            x       y       z     vdW  Elec       q    Type
REMARK                         _______ _______ _______ _____ _____    ______ ____
ROOT
ATOM      1  C   UNL     1       5.044   4.418  16.647  0.00  0.00    +0.000 C 
ATOM      2  O   UNL     1       4.118   4.581  15.857  0.00  0.00    +0.000 OA
ATOM      3  N   UNL     1       4.927   3.721  17.832  0.00  0.00    +0.000 N 
ATOM      4  H   UNL     1       5.792   3.408  18.259  0.00  0.00    +0.000 HD
ENDROOT
BRANCH   3   5
ATOM      5  C   UNL     1       3.727   2.958  18.209  0.00  0.00    +0.000 C 
ATOM      6  C   UNL     1       3.981   1.458  18.334  0.00  0.00    +0.000 C 
BRANCH   5   7
ATOM      7  C   UNL     1       3.021   3.552  19.459  0.00  0.00    +0.000 C 
ATOM      8  O   UNL     1       2.663   2.860  20.409  0.00  0.00    +0.000 OA
ATOM      9  N   UNL     1       2.902   4.929  19.456  0.00  0.00    +0.000 N 
ATOM     10  H   UNL     1       3.215   5.468  18.661  0.00  0.00    +0.000 HD
BRANCH   9  11
ATOM     11  C   UNL     1       2.218   5.661  20.505  0.00  0.00    +0.000 C 
BRANCH  11  12
ATOM     12  C   UNL     1       1.881   7.061  20.052  0.00  0.00    +0.000 A 
ATOM     13  C   UNL     1       1.242   7.949  20.931  0.00  0.00    +0.000 A 
ATOM     14  C   UNL     1       0.924   9.246  20.524  0.00  0.00    +0.000 A 
ATOM     15  C   UNL     1       1.247   9.674  19.238  0.00  0.00    +0.000 A 
ATOM     16  C   UNL     1       1.893   8.806  18.358  0.00  0.00    +0.000 A 
ATOM     17  C   UNL     1       2.209   7.506  18.763  0.00  0.00    +0.000 A 
ENDBRANCH  11  12
ENDBRANCH   9  11
ENDBRANCH   5   7
ENDBRANCH   3   5
BRANCH   1  18
ATOM     18  C   UNL     1       6.412   5.019  16.342  0.00  0.00    +0.000 C 
BRANCH  18  19
ATOM     19  C   UNL     1       6.816   4.642  14.932  0.00  0.00    +0.000 C 
ATOM     20  O   UNL     1       7.608   5.298  14.262  0.00  0.00    +0.000 OA
ATOM     21  N   UNL     1       6.257   3.473  14.473  0.00  0.00    +0.000 N 
ATOM     22  H   UNL     1       5.467   3.004  14.900  0.00  0.00    +0.000 HD
BRANCH  21  23
ATOM     23  O   UNL     1       6.576   3.106  13.148  0.00  0.00    +0.000 OA
ATOM     24  H   UNL     1       6.666   3.976  12.703  0.00  0.00    +0.000 HD
ENDBRANCH  21  23
ENDBRANCH  18  19
BRANCH  18  25
ATOM     25  C   UNL     1       7.450   4.605  17.403  0.00  0.00    +0.000 C 
BRANCH  25  27
ATOM     26  C   UNL     1       7.595   7.138  17.787  0.00  0.00    +0.000 C 
ATOM     27  C   UNL     1       7.954   5.747  18.312  0.00  0.00    +0.000 C 
ATOM     28  C   UNL     1       7.384   5.585  19.727  0.00  0.00    +0.000 C 
ENDBRANCH  25  27
ENDBRANCH  18  25
ENDBRANCH   1  18
TORSDOF 9
ENDMDL
MODEL 5
REMARK VINA RESULT:      -7.5      2.806      7.413
REMARK  Name = 
REMARK  12 active torsions:
REMARK  status: ('A' for Active; 'I' for Inactive)
REMARK    1  A    between atoms: C_1  and  C_2
REMARK    2  A    between atoms: C_2  and  C_3
REMARK    3  A    between atoms: C_2  and  C_4
REMARK    4  A    between atoms: C_4  and  C_5
REMARK    5  A    between atoms: C_5  and  C_6
REMARK    6  A    between atoms: C_5  and  C_10
REMARK    7  A    between atoms: N_8  and  O_9
REMARK    8  A    between atoms: N_12  and  C_13
REMARK    9  A    between atoms: C_13  and  C_14
REMARK   10  A    between atoms: C_13  and  C_15
REMARK   11  A    between atoms: N_17  and  C_18
REMARK   12  A    between atoms: C_18  and  C_19
REMARK                            x       y       z     vdW  Elec       q    Type
REMARK                         _______ _______ _______ _____ _____    ______ ____
ROOT
ATOM      1  C   UNL     1       5.272   4.091  17.386  0.00  0.00    +0.000 C 
ATOM      2  O   UNL     1       5.771   3.720  18.445  0.00  0.00    +0.000 OA
ATOM      3  N   UNL     1       3.952   3.875  17.044  0.00  0.00    +0.000 N 
ATOM      4  H   UNL     1       3.578   4.455  16.300  0.00  0.00    +0.000 HD
ENDROOT
BRANCH   3   5
ATOM      5  C   UNL     1       2.954   3.319  17.971  0.00  0.00    +0.000 C 
ATOM      6  C   UNL     1       3.167   1.837  18.267  0.00  0.00    +0.000 C 
BRANCH   5   7
ATOM      7  C   UNL     1       2.809   4.172  19.260  0.00  0.00    +0.000 C 
ATOM      8  O   UNL     1       3.111   3.747  20.373  0.00  0.00    +0.000 OA
ATOM      9  N   UNL     1       2.393   5.473  19.050  0.00  0.00    +0.000 N 
ATOM     10  H   UNL     1       2.160   5.791  18.120  0.00  0.00    +0.000 HD
BRANCH   9  11
ATOM     11  C   UNL     1       2.140   6.403  20.134  0.00  0.00    +0.000 C 
BRANCH  11  12
ATOM     12  C   UNL     1       1.838   7.782  19.599  0.00  0.00    +0.000 A 
ATOM     13  C   UNL     1       1.183   8.722  20.410  0.00  0.00    +0.000 A 
ATOM     14  C   UNL     1       0.897  10.001  19.927  0.00  0.00    +0.000 A 
ATOM     15  C   UNL     1       1.268  10.359  18.633  0.00  0.00    +0.000 A 
ATOM     16  C   UNL     1       1.930   9.439  17.820  0.00  0.00    +0.000 A 
ATOM     17  C   UNL     1       2.215   8.157  18.301  0.00  0.00    +0.000 A 
ENDBRANCH  11  12
ENDBRANCH   9  11
ENDBRANCH   5   7
ENDBRANCH   3   5
BRANCH   1  18
ATOM     18  C   UNL     1       6.130   4.822  16.361  0.00  0.00    +0.000 C 
BRANCH  18  19
ATOM     19  C   UNL     1       6.280   6.270  16.780  0.00  0.00    +0.000 C 
ATOM     20  O   UNL     1       5.339   6.962  17.153  0.00  0.00    +0.000 OA
ATOM     21  N   UNL     1       7.573   6.739  16.754  0.00  0.00    +0.000 N 
ATOM     22  H   UNL     1       8.343   6.281  16.283  0.00  0.00    +0.000 HD
BRANCH  21  23
ATOM     23  O   UNL     1       7.752   8.095  17.100  0.00  0.00    +0.000 OA
ATOM     24  H   UNL     1       7.454   8.117  18.035  0.00  0.00    +0.000 HD
ENDBRANCH  21  23
ENDBRANCH  18  19
BRANCH  18  25
ATOM     25  C   UNL     1       5.560   4.658  14.939  0.00  0.00    +0.000 C 
BRANCH  25  27
ATOM     26  C   UNL     1       5.828   3.468  12.680  0.00  0.00    +0.000 C 
ATOM     27  C   UNL     1       6.535   4.051  13.905  0.00  0.00    +0.000 C 
ATOM     28  C   UNL     1       7.541   5.113  13.443  0.00  0.00    +0.000 C 
ENDBRANCH  25  27
ENDBRANCH  18  25
ENDBRANCH   1  18
TORSDOF 9
ENDMDL
MODEL 6
REMARK VINA RESULT:      -7.4      2.494      7.409
REMARK  Name = 
REMARK  12 active torsions:
REMARK  status: ('A' for Active; 'I' for Inactive)
REMARK    1  A    between atoms: C_1  and  C_2
REMARK    2  A    between atoms: C_2  and  C_3
REMARK    3  A    between atoms: C_2  and  C_4
REMARK    4  A    between atoms: C_4  and  C_5
REMARK    5  A    between atoms: C_5  and  C_6
REMARK    6  A    between atoms: C_5  and  C_10
REMARK    7  A    between atoms: N_8  and  O_9
REMARK    8  A    between atoms: N_12  and  C_13
REMARK    9  A    between atoms: C_13  and  C_14
REMARK   10  A    between atoms: C_13  and  C_15
REMARK   11  A    between atoms: N_17  and  C_18
REMARK   12  A    between atoms: C_18  and  C_19
REMARK                            x       y       z     vdW  Elec       q    Type
REMARK                         _______ _______ _______ _____ _____    ______ ____
ROOT
ATOM      1  C   UNL     1       6.290   4.756  15.285  0.00  0.00    +0.000 C 
ATOM      2  O   UNL     1       5.731   5.849  15.273  0.00  0.00    +0.000 OA
ATOM      3  N   UNL     1       6.749   4.142  16.433  0.00  0.00    +0.000 N 
ATOM      4  H   UNL     1       6.930   3.146  16.369  0.00  0.00    +0.000 HD
ENDROOT
BRANCH   3   5
ATOM      5  C   UNL     1       6.481   4.649  17.787  0.00  0.00    +0.000 C 
ATOM      6  C   UNL     1       6.961   6.082  18.001  0.00  0.00    +0.000 C 
BRANCH   5   7
ATOM      7  C   UNL     1       5.000   4.445  18.208  0.00  0.00    +0.000 C 
ATOM      8  O   UNL     1       4.386   3.403  17.990  0.00  0.00    +0.000 OA
ATOM      9  N   UNL     1       4.451   5.495  18.920  0.00  0.00    +0.000 N 
ATOM     10  H   UNL     1       4.987   6.334  19.088  0.00  0.00    +0.000 HD
BRANCH   9  11
ATOM     11  C   UNL     1       3.065   5.516  19.346  0.00  0.00    +0.000 C 
BRANCH  11  12
ATOM     12  C   UNL     1       2.482   6.902  19.208  0.00  0.00    +0.000 A 
ATOM     13  C   UNL     1       2.593   7.594  17.992  0.00  0.00    +0.000 A 
ATOM     14  C   UNL     1       2.059   8.876  17.851  0.00  0.00    +0.000 A 
ATOM     15  C   UNL     1       1.402   9.480  18.920  0.00  0.00    +0.000 A 
ATOM     16  C   UNL     1       1.273   8.801  20.132  0.00  0.00    +0.000 A 
ATOM     17  C   UNL     1       1.810   7.517  20.274  0.00  0.00    +0.000 A 
ENDBRANCH  11  12
ENDBRANCH   9  11
ENDBRANCH   5   7
ENDBRANCH   3   5
BRANCH   1  18
ATOM     18  C   UNL     1       6.522   4.012  13.975  0.00  0.00    +0.000 C 
BRANCH  18  19
ATOM     19  C   UNL     1       7.476   4.811  13.112  0.00  0.00    +0.000 C 
ATOM     20  O   UNL     1       7.473   4.765  11.886  0.00  0.00    +0.000 OA
ATOM     21  N   UNL     1       8.325   5.634  13.814  0.00  0.00    +0.000 N 
ATOM     22  H   UNL     1       8.497   5.571  14.810  0.00  0.00    +0.000 HD
BRANCH  21  23
ATOM     23  O   UNL     1       9.257   6.367  13.051  0.00  0.00    +0.000 OA
ATOM     24  H   UNL     1       8.863   6.343  12.152  0.00  0.00    +0.000 HD
ENDBRANCH  21  23
ENDBRANCH  18  19
BRANCH  18  25
ATOM     25  C   UNL     1       5.188   3.694  13.272  0.00  0.00    +0.000 C 
BRANCH  25  27
ATOM     26  C   UNL     1       5.801   1.803  11.649  0.00  0.00    +0.000 C 
ATOM     27  C   UNL     1       5.311   3.244  11.799  0.00  0.00    +0.000 C 
ATOM     28  C   UNL     1       3.958   3.387  11.090  0.00  0.00    +0.000 C 
ENDBRANCH  25  27
ENDBRANCH  18  25
ENDBRANCH   1  18
TORSDOF 9
ENDMDL
MODEL 7
REMARK VINA RESULT:      -7.4      2.259      6.952
REMARK  Name = 
REMARK  12 active torsions:
REMARK  status: ('A' for Active; 'I' for Inactive)
REMARK    1  A    between atoms: C_1  and  C_2
REMARK    2  A    between atoms: C_2  and  C_3
REMARK    3  A    between atoms: C_2  and  C_4
REMARK    4  A    between atoms: C_4  and  C_5
REMARK    5  A    between atoms: C_5  and  C_6
REMARK    6  A    between atoms: C_5  and  C_10
REMARK    7  A    between atoms: N_8  and  O_9
REMARK    8  A    between atoms: N_12  and  C_13
REMARK    9  A    between atoms: C_13  and  C_14
REMARK   10  A    between atoms: C_13  and  C_15
REMARK   11  A    between atoms: N_17  and  C_18
REMARK   12  A    between atoms: C_18  and  C_19
REMARK                            x       y       z     vdW  Elec       q    Type
REMARK                         _______ _______ _______ _____ _____    ______ ____
ROOT
ATOM      1  C   UNL     1       5.121   3.978  16.486  0.00  0.00    +0.000 C 
ATOM      2  O   UNL     1       4.212   4.502  15.849  0.00  0.00    +0.000 OA
ATOM      3  N   UNL     1       4.917   3.092  17.524  0.00  0.00    +0.000 N 
ATOM      4  H   UNL     1       5.709   2.513  17.785  0.00  0.00    +0.000 HD
ENDROOT
BRANCH   3   5
ATOM      5  C   UNL     1       3.597   2.551  17.883  0.00  0.00    +0.000 C 
ATOM      6  C   UNL     1       3.668   1.181  18.551  0.00  0.00    +0.000 C 
BRANCH   5   7
ATOM      7  C   UNL     1       2.746   3.568  18.691  0.00  0.00    +0.000 C 
ATOM      8  O   UNL     1       1.518   3.591  18.640  0.00  0.00    +0.000 OA
ATOM      9  N   UNL     1       3.470   4.388  19.535  0.00  0.00    +0.000 N 
ATOM     10  H   UNL     1       4.478   4.336  19.557  0.00  0.00    +0.000 HD
BRANCH   9  11
ATOM     11  C   UNL     1       2.859   5.441  20.323  0.00  0.00    +0.000 C 
BRANCH  11  12
ATOM     12  C   UNL     1       2.636   6.678  19.487  0.00  0.00    +0.000 A 
ATOM     13  C   UNL     1       1.802   7.704  19.959  0.00  0.00    +0.000 A 
ATOM     14  C   UNL     1       1.587   8.853  19.195  0.00  0.00    +0.000 A 
ATOM     15  C   UNL     1       2.206   8.994  17.956  0.00  0.00    +0.000 A 
ATOM     16  C   UNL     1       3.046   7.988  17.479  0.00  0.00    +0.000 A 
ATOM     17  C   UNL     1       3.261   6.836  18.242  0.00  0.00    +0.000 A 
ENDBRANCH  11  12
ENDBRANCH   9  11
ENDBRANCH   5   7
ENDBRANCH   3   5
BRANCH   1  18
ATOM     18  C   UNL     1       6.570   4.311  16.149  0.00  0.00    +0.000 C 
BRANCH  18  19
ATOM     19  C   UNL     1       7.213   4.989  17.341  0.00  0.00    +0.000 C 
ATOM     20  O   UNL     1       7.553   4.387  18.354  0.00  0.00    +0.000 OA
ATOM     21  N   UNL     1       7.431   6.337  17.179  0.00  0.00    +0.000 N 
ATOM     22  H   UNL     1       7.006   6.908  16.458  0.00  0.00    +0.000 HD
BRANCH  21  23
ATOM     23  O   UNL     1       7.992   7.016  18.282  0.00  0.00    +0.000 OA
ATOM     24  H   UNL     1       7.905   7.957  18.019  0.00  0.00    +0.000 HD
ENDBRANCH  21  23
ENDBRANCH  18  19
BRANCH  18  25
ATOM     25  C   UNL     1       6.664   5.141  14.854  0.00  0.00    +0.000 C 
BRANCH  25  27
ATOM     26  C   UNL     1       5.961   3.661  12.878  0.00  0.00    +0.000 C 
ATOM     27  C   UNL     1       7.115   4.357  13.601  0.00  0.00    +0.000 C 
ATOM     28  C   UNL     1       7.826   5.298  12.620  0.00  0.00    +0.000 C 
ENDBRANCH  25  27
ENDBRANCH  18  25
ENDBRANCH   1  18
TORSDOF 9
ENDMDL
MODEL 8
REMARK VINA RESULT:      -7.4      2.106      7.298
REMARK  Name = 
REMARK  12 active torsions:
REMARK  status: ('A' for Active; 'I' for Inactive)
REMARK    1  A    between atoms: C_1  and  C_2
REMARK    2  A    between atoms: C_2  and  C_3
REMARK    3  A    between atoms: C_2  and  C_4
REMARK    4  A    between atoms: C_4  and  C_5
REMARK    5  A    between atoms: C_5  and  C_6
REMARK    6  A    between atoms: C_5  and  C_10
REMARK    7  A    between atoms: N_8  and  O_9
REMARK    8  A    between atoms: N_12  and  C_13
REMARK    9  A    between atoms: C_13  and  C_14
REMARK   10  A    between atoms: C_13  and  C_15
REMARK   11  A    between atoms: N_17  and  C_18
REMARK   12  A    between atoms: C_18  and  C_19
REMARK                            x       y       z     vdW  Elec       q    Type
REMARK                         _______ _______ _______ _____ _____    ______ ____
ROOT
ATOM      1  C   UNL     1       6.142   4.191  14.891  0.00  0.00    +0.000 C 
ATOM      2  O   UNL     1       6.852   3.569  15.676  0.00  0.00    +0.000 OA
ATOM      3  N   UNL     1       5.190   5.111  15.283  0.00  0.00    +0.000 N 
ATOM      4  H   UNL     1       4.870   5.759  14.570  0.00  0.00    +0.000 HD
ENDROOT
BRANCH   3   5
ATOM      5  C   UNL     1       5.027   5.569  16.670  0.00  0.00    +0.000 C 
ATOM      6  C   UNL     1       5.296   7.061  16.848  0.00  0.00    +0.000 C 
BRANCH   5   7
ATOM      7  C   UNL     1       3.667   5.130  17.279  0.00  0.00    +0.000 C 
ATOM      8  O   UNL     1       2.943   5.899  17.908  0.00  0.00    +0.000 OA
ATOM      9  N   UNL     1       3.295   3.831  16.987  0.00  0.00    +0.000 N 
ATOM     10  H   UNL     1       3.912   3.229  16.461  0.00  0.00    +0.000 HD
BRANCH   9  11
ATOM     11  C   UNL     1       2.091   3.221  17.517  0.00  0.00    +0.000 C 
BRANCH  11  12
ATOM     12  C   UNL     1       2.189   3.047  19.013  0.00  0.00    +0.000 A 
ATOM     13  C   UNL     1       1.112   3.410  19.835  0.00  0.00    +0.000 A 
ATOM     14  C   UNL     1       1.190   3.255  21.221  0.00  0.00    +0.000 A 
ATOM     15  C   UNL     1       2.342   2.729  21.801  0.00  0.00    +0.000 A 
ATOM     16  C   UNL     1       3.417   2.353  20.995  0.00  0.00    +0.000 A 
ATOM     17  C   UNL     1       3.340   2.510  19.608  0.00  0.00    +0.000 A 
ENDBRANCH  11  12
ENDBRANCH   9  11
ENDBRANCH   5   7
ENDBRANCH   3   5
BRANCH   1  18
ATOM     18  C   UNL     1       6.280   3.949  13.392  0.00  0.00    +0.000 C 
BRANCH  18  19
ATOM     19  C   UNL     1       7.405   4.808  12.853  0.00  0.00    +0.000 C 
ATOM     20  O   UNL     1       7.626   4.952  11.655  0.00  0.00    +0.000 OA
ATOM     21  N   UNL     1       8.139   5.457  13.819  0.00  0.00    +0.000 N 
ATOM     22  H   UNL     1       8.123   5.229  14.806  0.00  0.00    +0.000 HD
BRANCH  21  23
ATOM     23  O   UNL     1       9.222   6.236  13.361  0.00  0.00    +0.000 OA
ATOM     24  H   UNL     1       9.982   5.852  13.850  0.00  0.00    +0.000 HD
ENDBRANCH  21  23
ENDBRANCH  18  19
BRANCH  18  25
ATOM     25  C   UNL     1       4.941   4.176  12.666  0.00  0.00    +0.000 C 
BRANCH  25  27
ATOM     26  C   UNL     1       3.639   3.403  10.593  0.00  0.00    +0.000 C 
ATOM     27  C   UNL     1       4.434   2.980  11.829  0.00  0.00    +0.000 C 
ATOM     28  C   UNL     1       5.616   2.107  11.389  0.00  0.00    +0.000 C 
ENDBRANCH  25  27
ENDBRANCH  18  25
ENDBRANCH   1  18
TORSDOF 9
ENDMDL
MODEL 9
REMARK VINA RESULT:      -7.3      1.320      1.459
REMARK  Name = 
REMARK  12 active torsions:
REMARK  status: ('A' for Active; 'I' for Inactive)
REMARK    1  A    between atoms: C_1  and  C_2
REMARK    2  A    between atoms: C_2  and  C_3
REMARK    3  A    between atoms: C_2  and  C_4
REMARK    4  A    between atoms: C_4  and  C_5
REMARK    5  A    between atoms: C_5  and  C_6
REMARK    6  A    between atoms: C_5  and  C_10
REMARK    7  A    between atoms: N_8  and  O_9
REMARK    8  A    between atoms: N_12  and  C_13
REMARK    9  A    between atoms: C_13  and  C_14
REMARK   10  A    between atoms: C_13  and  C_15
REMARK   11  A    between atoms: N_17  and  C_18
REMARK   12  A    between atoms: C_18  and  C_19
REMARK                            x       y       z     vdW  Elec       q    Type
REMARK                         _______ _______ _______ _____ _____    ______ ____
ROOT
ATOM      1  C   UNL     1       4.328   4.929  18.303  0.00  0.00    +0.000 C 
ATOM      2  O   UNL     1       4.190   6.136  18.478  0.00  0.00    +0.000 OA
ATOM      3  N   UNL     1       5.361   4.373  17.576  0.00  0.00    +0.000 N 
ATOM      4  H   UNL     1       5.541   3.386  17.729  0.00  0.00    +0.000 HD
ENDROOT
BRANCH   3   5
ATOM      5  C   UNL     1       6.501   5.148  17.063  0.00  0.00    +0.000 C 
ATOM      6  C   UNL     1       7.851   4.494  17.346  0.00  0.00    +0.000 C 
BRANCH   5   7
ATOM      7  C   UNL     1       6.325   5.534  15.569  0.00  0.00    +0.000 C 
ATOM      8  O   UNL     1       5.420   6.268  15.176  0.00  0.00    +0.000 OA
ATOM      9  N   UNL     1       7.312   5.057  14.728  0.00  0.00    +0.000 N 
ATOM     10  H   UNL     1       8.046   4.462  15.086  0.00  0.00    +0.000 HD
BRANCH   9  11
ATOM     11  C   UNL     1       7.287   5.260  13.292  0.00  0.00    +0.000 C 
BRANCH  11  12
ATOM     12  C   UNL     1       6.695   4.062  12.590  0.00  0.00    +0.000 A 
ATOM     13  C   UNL     1       5.303   3.887  12.552  0.00  0.00    +0.000 A 
ATOM     14  C   UNL     1       4.742   2.784  11.906  0.00  0.00    +0.000 A 
ATOM     15  C   UNL     1       5.563   1.845  11.285  0.00  0.00    +0.000 A 
ATOM     16  C   UNL     1       6.948   2.012  11.305  0.00  0.00    +0.000 A 
ATOM     17  C   UNL     1       7.511   3.116  11.954  0.00  0.00    +0.000 A 
ENDBRANCH  11  12
ENDBRANCH   9  11
ENDBRANCH   5   7
ENDBRANCH   3   5
BRANCH   1  18
ATOM     18  C   UNL     1       3.312   3.958  18.895  0.00  0.00    +0.000 C 
BRANCH  18  19
ATOM     19  C   UNL     1       3.509   2.592  18.271  0.00  0.00    +0.000 C 
ATOM     20  O   UNL     1       3.114   2.304  17.146  0.00  0.00    +0.000 OA
ATOM     21  N   UNL     1       4.211   1.706  19.053  0.00  0.00    +0.000 N 
ATOM     22  H   UNL     1       4.390   1.825  20.043  0.00  0.00    +0.000 HD
BRANCH  21  23
ATOM     23  O   UNL     1       4.383   0.408  18.526  0.00  0.00    +0.000 OA
ATOM     24  H   UNL     1       3.510  -0.007  18.695  0.00  0.00    +0.000 HD
ENDBRANCH  21  23
ENDBRANCH  18  19
BRANCH  18  25
ATOM     25  C   UNL     1       1.876   4.494  18.744  0.00  0.00    +0.000 C 
BRANCH  25  27
ATOM     26  C   UNL     1       1.270   3.399  20.984  0.00  0.00    +0.000 C 
ATOM     27  C   UNL     1       1.070   4.599  20.057  0.00  0.00    +0.000 C 
ATOM     28  C   UNL     1       1.452   5.880  20.809  0.00  0.00    +0.000 C 
ENDBRANCH  25  27
ENDBRANCH  18  25
ENDBRANCH   1  18
TORSDOF 9
ENDMDL
