MODEL 1
REMARK VINA RESULT:      -5.9      0.000      0.000
REMARK  Name = 
REMARK  8 active torsions:
REMARK  status: ('A' for Active; 'I' for Inactive)
REMARK    1  A    between atoms: C_1  and  S_2
REMARK    2  A    between atoms: S_2  and  C_3
REMARK    3  A    between atoms: C_6  and  N_7
REMARK    4  A    between atoms: C_8  and  S_9
REMARK    5  A    between atoms: N_10  and  C_11
REMARK    6  A    between atoms: C_11  and  C_12
REMARK    7  A    between atoms: C_12  and  C_13
REMARK    8  A    between atoms: C_13  and  N_14
REMARK                            x       y       z     vdW  Elec       q    Type
REMARK                         _______ _______ _______ _____ _____    ______ ____
ROOT
ATOM      1  N   UNL     1       2.038   5.717  20.944  0.00  0.00    +0.000 N 
ATOM      2  C   UNL     1       1.877   4.467  20.403  0.00  0.00    +0.000 C 
ATOM      3  N   UNL     1       1.463   4.209  19.216  0.00  0.00    +0.000 NA
ATOM      4  H   UNL     1       2.293   5.738  21.921  0.00  0.00    +0.000 HD
ENDROOT
BRANCH   1   8
ATOM      5  C   UNL     1       1.284   9.587  19.378  0.00  0.00    +0.000 A 
ATOM      6  C   UNL     1       1.994   8.661  18.618  0.00  0.00    +0.000 A 
ATOM      7  C   UNL     1       2.233   7.374  19.113  0.00  0.00    +0.000 A 
ATOM      8  C   UNL     1       1.779   6.978  20.376  0.00  0.00    +0.000 A 
ATOM      9  C   UNL     1       1.078   7.927  21.135  0.00  0.00    +0.000 A 
ATOM     10  C   UNL     1       0.835   9.218  20.646  0.00  0.00    +0.000 A 
BRANCH   5  12
ATOM     11  C   UNL     1      -0.835  11.044  18.468  0.00  0.00    +0.000 C 
ATOM     12  S   UNL     1       0.945  11.220  18.760  0.00  0.00    +0.000 S 
ENDBRANCH   5  12
ENDBRANCH   1   8
BRANCH   2  13
ATOM     13  S   UNL     1       2.332   3.201  21.543  0.00  0.00    +0.000 S 
ATOM     14  H   UNL     1       1.279   2.409  21.311  0.00  0.00    +0.000 HD
ENDBRANCH   2  13
BRANCH   3  15
ATOM     15  C   UNL     1       1.332   2.860  18.693  0.00  0.00    +0.000 C 
BRANCH  15  16
ATOM     16  C   UNL     1       2.306   2.711  17.523  0.00  0.00    +0.000 C 
BRANCH  16  17
ATOM     17  C   UNL     1       3.750   2.568  17.999  0.00  0.00    +0.000 C 
BRANCH  17  18
ATOM     18  N   UNL     1       4.462   3.832  17.991  0.00  0.00    +0.000 N 
ATOM     19  C   UNL     1       4.507   4.729  16.963  0.00  0.00    +0.000 A 
ATOM     20  C   UNL     1       5.330   5.737  17.409  0.00  0.00    +0.000 A 
ATOM     21  N   UNL     1       5.785   5.469  18.675  0.00  0.00    +0.000 NA
ATOM     22  C   UNL     1       5.250   4.312  18.998  0.00  0.00    +0.000 A 
ENDBRANCH  17  18
ENDBRANCH  16  17
ENDBRANCH  15  16
ENDBRANCH   3  15
TORSDOF 7
ENDMDL
MODEL 2
REMARK VINA RESULT:      -5.9      2.005      3.203
REMARK  Name = 
REMARK  8 active torsions:
REMARK  status: ('A' for Active; 'I' for Inactive)
REMARK    1  A    between atoms: C_1  and  S_2
REMARK    2  A    between atoms: S_2  and  C_3
REMARK    3  A    between atoms: C_6  and  N_7
REMARK    4  A    between atoms: C_8  and  S_9
REMARK    5  A    between atoms: N_10  and  C_11
REMARK    6  A    between atoms: C_11  and  C_12
REMARK    7  A    between atoms: C_12  and  C_13
REMARK    8  A    between atoms: C_13  and  N_14
REMARK                            x       y       z     vdW  Elec       q    Type
REMARK                         _______ _______ _______ _____ _____    ______ ____
ROOT
ATOM      1  N   UNL     1       3.007   5.459  19.040  0.00  0.00    +0.000 N 
ATOM      2  C   UNL     1       4.319   5.068  19.129  0.00  0.00    +0.000 C 
ATOM      3  N   UNL     1       5.331   5.851  19.226  0.00  0.00    +0.000 NA
ATOM      4  H   UNL     1       2.341   4.715  18.884  0.00  0.00    +0.000 HD
ENDROOT
BRANCH   1   8
ATOM      5  C   UNL     1       1.413   9.390  19.090  0.00  0.00    +0.000 A 
ATOM      6  C   UNL     1       1.987   8.893  17.923  0.00  0.00    +0.000 A 
ATOM      7  C   UNL     1       2.500   7.591  17.885  0.00  0.00    +0.000 A 
ATOM      8  C   UNL     1       2.459   6.755  19.006  0.00  0.00    +0.000 A 
ATOM      9  C   UNL     1       1.890   7.276  20.179  0.00  0.00    +0.000 A 
ATOM     10  C   UNL     1       1.376   8.579  20.223  0.00  0.00    +0.000 A 
BRANCH   5  12
ATOM     11  C   UNL     1      -1.029  10.604  19.179  0.00  0.00    +0.000 C 
ATOM     12  S   UNL     1       0.732  11.033  19.154  0.00  0.00    +0.000 S 
ENDBRANCH   5  12
ENDBRANCH   1   8
BRANCH   2  13
ATOM     13  S   UNL     1       4.476   3.313  19.114  0.00  0.00    +0.000 S 
ATOM     14  H   UNL     1       5.572   3.270  18.346  0.00  0.00    +0.000 HD
ENDBRANCH   2  13
BRANCH   3  15
ATOM     15  C   UNL     1       6.699   5.374  19.338  0.00  0.00    +0.000 C 
BRANCH  15  16
ATOM     16  C   UNL     1       7.573   6.233  18.423  0.00  0.00    +0.000 C 
BRANCH  16  17
ATOM     17  C   UNL     1       6.779   6.811  17.253  0.00  0.00    +0.000 C 
BRANCH  17  18
ATOM     18  N   UNL     1       6.435   5.805  16.268  0.00  0.00    +0.000 N 
ATOM     19  C   UNL     1       5.326   5.798  15.471  0.00  0.00    +0.000 A 
ATOM     20  C   UNL     1       5.422   4.634  14.743  0.00  0.00    +0.000 A 
ATOM     21  N   UNL     1       6.554   3.940  15.083  0.00  0.00    +0.000 NA
ATOM     22  C   UNL     1       7.142   4.666  16.007  0.00  0.00    +0.000 A 
ENDBRANCH  17  18
ENDBRANCH  16  17
ENDBRANCH  15  16
ENDBRANCH   3  15
TORSDOF 7
ENDMDL
MODEL 3
REMARK VINA RESULT:      -5.8      2.103      3.181
REMARK  Name = 
REMARK  8 active torsions:
REMARK  status: ('A' for Active; 'I' for Inactive)
REMARK    1  A    between atoms: C_1  and  S_2
REMARK    2  A    between atoms: S_2  and  C_3
REMARK    3  A    between atoms: C_6  and  N_7
REMARK    4  A    between atoms: C_8  and  S_9
REMARK    5  A    between atoms: N_10  and  C_11
REMARK    6  A    between atoms: C_11  and  C_12
REMARK    7  A    between atoms: C_12  and  C_13
REMARK    8  A    between atoms: C_13  and  N_14
REMARK                            x       y       z     vdW  Elec       q    Type
REMARK                         _______ _______ _______ _____ _____    ______ ____
ROOT
ATOM      1  N   UNL     1       3.067   5.399  19.135  0.00  0.00    +0.000 N 
ATOM      2  C   UNL     1       4.369   5.004  19.311  0.00  0.00    +0.000 C 
ATOM      3  N   UNL     1       5.374   5.782  19.480  0.00  0.00    +0.000 NA
ATOM      4  H   UNL     1       2.412   4.657  18.931  0.00  0.00    +0.000 HD
ENDROOT
BRANCH   1   8
ATOM      5  C   UNL     1       1.491   9.336  19.096  0.00  0.00    +0.000 A 
ATOM      6  C   UNL     1       2.089   8.822  17.949  0.00  0.00    +0.000 A 
ATOM      7  C   UNL     1       2.597   7.517  17.941  0.00  0.00    +0.000 A 
ATOM      8  C   UNL     1       2.526   6.696  19.072  0.00  0.00    +0.000 A 
ATOM      9  C   UNL     1       1.933   7.235  20.224  0.00  0.00    +0.000 A 
ATOM     10  C   UNL     1       1.423   8.541  20.239  0.00  0.00    +0.000 A 
BRANCH   5  12
ATOM     11  C   UNL     1       2.161  11.850  18.274  0.00  0.00    +0.000 C 
ATOM     12  S   UNL     1       0.815  10.983  19.123  0.00  0.00    +0.000 S 
ENDBRANCH   5  12
ENDBRANCH   1   8
BRANCH   2  13
ATOM     13  S   UNL     1       4.523   3.247  19.298  0.00  0.00    +0.000 S 
ATOM     14  H   UNL     1       5.640   3.193  20.034  0.00  0.00    +0.000 HD
ENDBRANCH   2  13
BRANCH   3  15
ATOM     15  C   UNL     1       6.730   5.302  19.682  0.00  0.00    +0.000 C 
BRANCH  15  16
ATOM     16  C   UNL     1       7.556   5.691  18.455  0.00  0.00    +0.000 C 
BRANCH  16  17
ATOM     17  C   UNL     1       7.621   4.561  17.429  0.00  0.00    +0.000 C 
BRANCH  17  18
ATOM     18  N   UNL     1       6.722   4.776  16.312  0.00  0.00    +0.000 N 
ATOM     19  C   UNL     1       6.385   3.862  15.355  0.00  0.00    +0.000 A 
ATOM     20  C   UNL     1       5.548   4.539  14.499  0.00  0.00    +0.000 A 
ATOM     21  N   UNL     1       5.375   5.835  14.911  0.00  0.00    +0.000 NA
ATOM     22  C   UNL     1       6.097   5.951  16.003  0.00  0.00    +0.000 A 
ENDBRANCH  17  18
ENDBRANCH  16  17
ENDBRANCH  15  16
ENDBRANCH   3  15
TORSDOF 7
ENDMDL
MODEL 4
REMARK VINA RESULT:      -5.8      1.760      2.600
REMARK  Name = 
REMARK  8 active torsions:
REMARK  status: ('A' for Active; 'I' for Inactive)
REMARK    1  A    between atoms: C_1  and  S_2
REMARK    2  A    between atoms: S_2  and  C_3
REMARK    3  A    between atoms: C_6  and  N_7
REMARK    4  A    between atoms: C_8  and  S_9
REMARK    5  A    between atoms: N_10  and  C_11
REMARK    6  A    between atoms: C_11  and  C_12
REMARK    7  A    between atoms: C_12  and  C_13
REMARK    8  A    between atoms: C_13  and  N_14
REMARK                            x       y       z     vdW  Elec       q    Type
REMARK                         _______ _______ _______ _____ _____    ______ ____
ROOT
ATOM      1  N   UNL     1       2.905   5.310  19.630  0.00  0.00    +0.000 N 
ATOM      2  C   UNL     1       3.566   4.475  18.766  0.00  0.00    +0.000 C 
ATOM      3  N   UNL     1       3.874   4.743  17.550  0.00  0.00    +0.000 NA
ATOM      4  H   UNL     1       2.668   4.909  20.527  0.00  0.00    +0.000 HD
ENDROOT
BRANCH   1   8
ATOM      5  C   UNL     1       1.421   9.250  19.114  0.00  0.00    +0.000 A 
ATOM      6  C   UNL     1       1.980   8.577  18.031  0.00  0.00    +0.000 A 
ATOM      7  C   UNL     1       2.456   7.268  18.182  0.00  0.00    +0.000 A 
ATOM      8  C   UNL     1       2.393   6.602  19.411  0.00  0.00    +0.000 A 
ATOM      9  C   UNL     1       1.840   7.301  20.495  0.00  0.00    +0.000 A 
ATOM     10  C   UNL     1       1.363   8.611  20.351  0.00  0.00    +0.000 A 
BRANCH   5  12
ATOM     11  C   UNL     1      -0.685  10.749  19.988  0.00  0.00    +0.000 C 
ATOM     12  S   UNL     1       0.786  10.904  18.942  0.00  0.00    +0.000 S 
ENDBRANCH   5  12
ENDBRANCH   1   8
BRANCH   2  13
ATOM     13  S   UNL     1       3.983   2.943  19.533  0.00  0.00    +0.000 S 
ATOM     14  H   UNL     1       2.906   2.270  19.111  0.00  0.00    +0.000 HD
ENDBRANCH   2  13
BRANCH   3  15
ATOM     15  C   UNL     1       4.595   3.822  16.688  0.00  0.00    +0.000 C 
BRANCH  15  16
ATOM     16  C   UNL     1       5.353   4.645  15.647  0.00  0.00    +0.000 C 
BRANCH  16  17
ATOM     17  C   UNL     1       6.865   4.586  15.863  0.00  0.00    +0.000 C 
BRANCH  17  18
ATOM     18  N   UNL     1       7.291   5.374  17.004  0.00  0.00    +0.000 N 
ATOM     19  C   UNL     1       7.623   4.897  18.239  0.00  0.00    +0.000 A 
ATOM     20  C   UNL     1       7.916   6.016  18.983  0.00  0.00    +0.000 A 
ATOM     21  N   UNL     1       7.766   7.153  18.231  0.00  0.00    +0.000 NA
ATOM     22  C   UNL     1       7.384   6.736  17.045  0.00  0.00    +0.000 A 
ENDBRANCH  17  18
ENDBRANCH  16  17
ENDBRANCH  15  16
ENDBRANCH   3  15
TORSDOF 7
ENDMDL
MODEL 5
REMARK VINA RESULT:      -5.8      1.946      2.990
REMARK  Name = 
REMARK  8 active torsions:
REMARK  status: ('A' for Active; 'I' for Inactive)
REMARK    1  A    between atoms: C_1  and  S_2
REMARK    2  A    between atoms: S_2  and  C_3
REMARK    3  A    between atoms: C_6  and  N_7
REMARK    4  A    between atoms: C_8  and  S_9
REMARK    5  A    between atoms: N_10  and  C_11
REMARK    6  A    between atoms: C_11  and  C_12
REMARK    7  A    between atoms: C_12  and  C_13
REMARK    8  A    between atoms: C_13  and  N_14
REMARK                            x       y       z     vdW  Elec       q    Type
REMARK                         _______ _______ _______ _____ _____    ______ ____
ROOT
ATOM      1  N   UNL     1       3.432   6.957  19.448  0.00  0.00    +0.000 N 
ATOM      2  C   UNL     1       3.706   5.812  18.744  0.00  0.00    +0.000 C 
ATOM      3  N   UNL     1       3.009   5.340  17.776  0.00  0.00    +0.000 NA
ATOM      4  H   UNL     1       4.040   7.138  20.235  0.00  0.00    +0.000 HD
ENDROOT
BRANCH   1   8
ATOM      5  C   UNL     1       0.220   9.716  19.200  0.00  0.00    +0.000 A 
ATOM      6  C   UNL     1       1.001   9.463  18.075  0.00  0.00    +0.000 A 
ATOM      7  C   UNL     1       2.053   8.541  18.136  0.00  0.00    +0.000 A 
ATOM      8  C   UNL     1       2.356   7.852  19.316  0.00  0.00    +0.000 A 
ATOM      9  C   UNL     1       1.568   8.129  20.444  0.00  0.00    +0.000 A 
ATOM     10  C   UNL     1       0.514   9.052  20.390  0.00  0.00    +0.000 A 
BRANCH   5  12
ATOM     11  C   UNL     1      -0.792  11.786  20.661  0.00  0.00    +0.000 C 
ATOM     12  S   UNL     1      -1.138  10.864  19.139  0.00  0.00    +0.000 S 
ENDBRANCH   5  12
ENDBRANCH   1   8
BRANCH   2  13
ATOM     13  S   UNL     1       5.182   5.035  19.315  0.00  0.00    +0.000 S 
ATOM     14  H   UNL     1       5.721   4.837  18.106  0.00  0.00    +0.000 HD
ENDBRANCH   2  13
BRANCH   3  15
ATOM     15  C   UNL     1       3.362   4.129  17.055  0.00  0.00    +0.000 C 
BRANCH  15  16
ATOM     16  C   UNL     1       2.326   3.058  17.395  0.00  0.00    +0.000 C 
BRANCH  16  17
ATOM     17  C   UNL     1       2.859   2.051  18.413  0.00  0.00    +0.000 C 
BRANCH  17  18
ATOM     18  N   UNL     1       2.451   2.366  19.768  0.00  0.00    +0.000 N 
ATOM     19  C   UNL     1       1.199   2.735  20.170  0.00  0.00    +0.000 A 
ATOM     20  C   UNL     1       1.316   2.965  21.521  0.00  0.00    +0.000 A 
ATOM     21  N   UNL     1       2.603   2.749  21.942  0.00  0.00    +0.000 NA
ATOM     22  C   UNL     1       3.265   2.394  20.863  0.00  0.00    +0.000 A 
ENDBRANCH  17  18
ENDBRANCH  16  17
ENDBRANCH  15  16
ENDBRANCH   3  15
TORSDOF 7
ENDMDL
MODEL 6
REMARK VINA RESULT:      -5.8      1.624      1.911
REMARK  Name = 
REMARK  8 active torsions:
REMARK  status: ('A' for Active; 'I' for Inactive)
REMARK    1  A    between atoms: C_1  and  S_2
REMARK    2  A    between atoms: S_2  and  C_3
REMARK    3  A    between atoms: C_6  and  N_7
REMARK    4  A    between atoms: C_8  and  S_9
REMARK    5  A    between atoms: N_10  and  C_11
REMARK    6  A    between atoms: C_11  and  C_12
REMARK    7  A    between atoms: C_12  and  C_13
REMARK    8  A    between atoms: C_13  and  N_14
REMARK                            x       y       z     vdW  Elec       q    Type
REMARK                         _______ _______ _______ _____ _____    ______ ____
ROOT
ATOM      1  N   UNL     1       2.257   5.828  20.469  0.00  0.00    +0.000 N 
ATOM      2  C   UNL     1       2.457   4.697  19.718  0.00  0.00    +0.000 C 
ATOM      3  N   UNL     1       2.362   4.617  18.441  0.00  0.00    +0.000 NA
ATOM      4  H   UNL     1       2.290   5.696  21.470  0.00  0.00    +0.000 HD
ENDROOT
BRANCH   1   8
ATOM      5  C   UNL     1       1.181   9.783  19.377  0.00  0.00    +0.000 A 
ATOM      6  C   UNL     1       1.849   8.973  18.463  0.00  0.00    +0.000 A 
ATOM      7  C   UNL     1       2.194   7.659  18.802  0.00  0.00    +0.000 A 
ATOM      8  C   UNL     1       1.887   7.122  20.057  0.00  0.00    +0.000 A 
ATOM      9  C   UNL     1       1.227   7.956  20.972  0.00  0.00    +0.000 A 
ATOM     10  C   UNL     1       0.880   9.273  20.639  0.00  0.00    +0.000 A 
BRANCH   5  12
ATOM     11  C   UNL     1      -1.005  11.137  18.464  0.00  0.00    +0.000 C 
ATOM     12  S   UNL     1       0.710  11.448  18.960  0.00  0.00    +0.000 S 
ENDBRANCH   5  12
ENDBRANCH   1   8
BRANCH   2  13
ATOM     13  S   UNL     1       2.895   3.318  20.725  0.00  0.00    +0.000 S 
ATOM     14  H   UNL     1       4.189   3.635  20.854  0.00  0.00    +0.000 HD
ENDBRANCH   2  13
BRANCH   3  15
ATOM     15  C   UNL     1       2.607   3.392  17.700  0.00  0.00    +0.000 C 
BRANCH  15  16
ATOM     16  C   UNL     1       4.052   3.423  17.201  0.00  0.00    +0.000 C 
BRANCH  16  17
ATOM     17  C   UNL     1       4.538   4.850  16.949  0.00  0.00    +0.000 C 
BRANCH  17  18
ATOM     18  N   UNL     1       5.592   4.907  15.955  0.00  0.00    +0.000 N 
ATOM     19  C   UNL     1       5.549   4.377  14.697  0.00  0.00    +0.000 A 
ATOM     20  C   UNL     1       6.785   4.649  14.157  0.00  0.00    +0.000 A 
ATOM     21  N   UNL     1       7.571   5.322  15.056  0.00  0.00    +0.000 NA
ATOM     22  C   UNL     1       6.829   5.459  16.132  0.00  0.00    +0.000 A 
ENDBRANCH  17  18
ENDBRANCH  16  17
ENDBRANCH  15  16
ENDBRANCH   3  15
TORSDOF 7
ENDMDL
MODEL 7
REMARK VINA RESULT:      -5.7      4.132      7.364
REMARK  Name = 
REMARK  8 active torsions:
REMARK  status: ('A' for Active; 'I' for Inactive)
REMARK    1  A    between atoms: C_1  and  S_2
REMARK    2  A    between atoms: S_2  and  C_3
REMARK    3  A    between atoms: C_6  and  N_7
REMARK    4  A    between atoms: C_8  and  S_9
REMARK    5  A    between atoms: N_10  and  C_11
REMARK    6  A    between atoms: C_11  and  C_12
REMARK    7  A    between atoms: C_12  and  C_13
REMARK    8  A    between atoms: C_13  and  N_14
REMARK                            x       y       z     vdW  Elec       q    Type
REMARK                         _______ _______ _______ _____ _____    ______ ____
ROOT
ATOM      1  N   UNL     1       7.317   5.985  15.769  0.00  0.00    +0.000 N 
ATOM      2  C   UNL     1       6.977   5.943  17.097  0.00  0.00    +0.000 C 
ATOM      3  N   UNL     1       6.223   5.067  17.653  0.00  0.00    +0.000 NA
ATOM      4  H   UNL     1       7.852   6.792  15.483  0.00  0.00    +0.000 HD
ENDROOT
BRANCH   1   8
ATOM      5  C   UNL     1       5.983   3.475  12.620  0.00  0.00    +0.000 A 
ATOM      6  C   UNL     1       7.199   4.143  12.502  0.00  0.00    +0.000 A 
ATOM      7  C   UNL     1       7.661   4.960  13.541  0.00  0.00    +0.000 A 
ATOM      8  C   UNL     1       6.925   5.135  14.718  0.00  0.00    +0.000 A 
ATOM      9  C   UNL     1       5.696   4.466  14.815  0.00  0.00    +0.000 A 
ATOM     10  C   UNL     1       5.227   3.647  13.778  0.00  0.00    +0.000 A 
BRANCH   5  12
ATOM     11  C   UNL     1       3.792   3.216  11.015  0.00  0.00    +0.000 C 
ATOM     12  S   UNL     1       5.387   2.411  11.324  0.00  0.00    +0.000 S 
ENDBRANCH   5  12
ENDBRANCH   1   8
BRANCH   2  13
ATOM     13  S   UNL     1       7.727   7.258  18.002  0.00  0.00    +0.000 S 
ATOM     14  H   UNL     1       6.590   7.757  18.503  0.00  0.00    +0.000 HD
ENDBRANCH   2  13
BRANCH   3  15
ATOM     15  C   UNL     1       5.916   5.065  19.073  0.00  0.00    +0.000 C 
BRANCH  15  16
ATOM     16  C   UNL     1       4.459   5.499  19.241  0.00  0.00    +0.000 C 
BRANCH  16  17
ATOM     17  C   UNL     1       3.598   5.078  18.052  0.00  0.00    +0.000 C 
BRANCH  17  18
ATOM     18  N   UNL     1       2.781   3.916  18.345  0.00  0.00    +0.000 N 
ATOM     19  C   UNL     1       1.473   3.925  18.741  0.00  0.00    +0.000 A 
ATOM     20  C   UNL     1       1.154   2.601  18.934  0.00  0.00    +0.000 A 
ATOM     21  N   UNL     1       2.233   1.797  18.670  0.00  0.00    +0.000 NA
ATOM     22  C   UNL     1       3.200   2.617  18.322  0.00  0.00    +0.000 A 
ENDBRANCH  17  18
ENDBRANCH  16  17
ENDBRANCH  15  16
ENDBRANCH   3  15
TORSDOF 7
ENDMDL
MODEL 8
REMARK VINA RESULT:      -5.7      2.344      3.750
REMARK  Name = 
REMARK  8 active torsions:
REMARK  status: ('A' for Active; 'I' for Inactive)
REMARK    1  A    between atoms: C_1  and  S_2
REMARK    2  A    between atoms: S_2  and  C_3
REMARK    3  A    between atoms: C_6  and  N_7
REMARK    4  A    between atoms: C_8  and  S_9
REMARK    5  A    between atoms: N_10  and  C_11
REMARK    6  A    between atoms: C_11  and  C_12
REMARK    7  A    between atoms: C_12  and  C_13
REMARK    8  A    between atoms: C_13  and  N_14
REMARK                            x       y       z     vdW  Elec       q    Type
REMARK                         _______ _______ _______ _____ _____    ______ ____
ROOT
ATOM      1  N   UNL     1       4.207   6.862  17.058  0.00  0.00    +0.000 N 
ATOM      2  C   UNL     1       4.559   5.557  16.824  0.00  0.00    +0.000 C 
ATOM      3  N   UNL     1       4.033   4.526  17.378  0.00  0.00    +0.000 NA
ATOM      4  H   UNL     1       4.782   7.555  16.599  0.00  0.00    +0.000 HD
ENDROOT
BRANCH   1   8
ATOM      5  C   UNL     1       1.403   8.399  19.845  0.00  0.00    +0.000 A 
ATOM      6  C   UNL     1       1.637   9.082  18.655  0.00  0.00    +0.000 A 
ATOM      7  C   UNL     1       2.546   8.576  17.717  0.00  0.00    +0.000 A 
ATOM      8  C   UNL     1       3.246   7.386  17.941  0.00  0.00    +0.000 A 
ATOM      9  C   UNL     1       3.008   6.718  19.152  0.00  0.00    +0.000 A 
ATOM     10  C   UNL     1       2.101   7.218  20.096  0.00  0.00    +0.000 A 
BRANCH   5  12
ATOM     11  C   UNL     1      -0.537  10.307  20.042  0.00  0.00    +0.000 C 
ATOM     12  S   UNL     1       0.235   9.007  21.042  0.00  0.00    +0.000 S 
ENDBRANCH   5  12
ENDBRANCH   1   8
BRANCH   2  13
ATOM     13  S   UNL     1       5.845   5.435  15.624  0.00  0.00    +0.000 S 
ATOM     14  H   UNL     1       5.045   5.195  14.577  0.00  0.00    +0.000 HD
ENDBRANCH   2  13
BRANCH   3  15
ATOM     15  C   UNL     1       4.436   3.164  17.073  0.00  0.00    +0.000 C 
BRANCH  15  16
ATOM     16  C   UNL     1       3.457   2.216  17.768  0.00  0.00    +0.000 C 
BRANCH  16  17
ATOM     17  C   UNL     1       2.229   2.953  18.298  0.00  0.00    +0.000 C 
BRANCH  17  18
ATOM     18  N   UNL     1       2.111   2.863  19.741  0.00  0.00    +0.000 N 
ATOM     19  C   UNL     1       0.969   3.031  20.471  0.00  0.00    +0.000 A 
ATOM     20  C   UNL     1       1.365   2.893  21.781  0.00  0.00    +0.000 A 
ATOM     21  N   UNL     1       2.713   2.650  21.859  0.00  0.00    +0.000 NA
ATOM     22  C   UNL     1       3.136   2.643  20.615  0.00  0.00    +0.000 A 
ENDBRANCH  17  18
ENDBRANCH  16  17
ENDBRANCH  15  16
ENDBRANCH   3  15
TORSDOF 7
ENDMDL
MODEL 9
REMARK VINA RESULT:      -5.7      1.055      1.743
REMARK  Name = 
REMARK  8 active torsions:
REMARK  status: ('A' for Active; 'I' for Inactive)
REMARK    1  A    between atoms: C_1  and  S_2
REMARK    2  A    between atoms: S_2  and  C_3
REMARK    3  A    between atoms: C_6  and  N_7
REMARK    4  A    between atoms: C_8  and  S_9
REMARK    5  A    between atoms: N_10  and  C_11
REMARK    6  A    between atoms: C_11  and  C_12
REMARK    7  A    between atoms: C_12  and  C_13
REMARK    8  A    between atoms: C_13  and  N_14
REMARK                            x       y       z     vdW  Elec       q    Type
REMARK                         _______ _______ _______ _____ _____    ______ ____
ROOT
ATOM      1  N   UNL     1       1.998   5.849  20.846  0.00  0.00    +0.000 N 
ATOM      2  C   UNL     1       2.171   4.722  20.082  0.00  0.00    +0.000 C 
ATOM      3  N   UNL     1       2.144   4.672  18.801  0.00  0.00    +0.000 NA
ATOM      4  H   UNL     1       1.965   5.696  21.844  0.00  0.00    +0.000 HD
ENDROOT
BRANCH   1   8
ATOM      5  C   UNL     1       1.173   9.780  19.482  0.00  0.00    +0.000 A 
ATOM      6  C   UNL     1       0.713   9.372  20.731  0.00  0.00    +0.000 A 
ATOM      7  C   UNL     1       0.994   8.084  21.203  0.00  0.00    +0.000 A 
ATOM      8  C   UNL     1       1.733   7.171  20.444  0.00  0.00    +0.000 A 
ATOM      9  C   UNL     1       2.177   7.593  19.181  0.00  0.00    +0.000 A 
ATOM     10  C   UNL     1       1.899   8.880  18.703  0.00  0.00    +0.000 A 
BRANCH   5  12
ATOM     11  C   UNL     1       0.817  12.305  20.453  0.00  0.00    +0.000 C 
ATOM     12  S   UNL     1       0.851  11.420  18.871  0.00  0.00    +0.000 S 
ENDBRANCH   5  12
ENDBRANCH   1   8
BRANCH   2  13
ATOM     13  S   UNL     1       2.464   3.299  21.081  0.00  0.00    +0.000 S 
ATOM     14  H   UNL     1       3.687   3.035  20.605  0.00  0.00    +0.000 HD
ENDBRANCH   2  13
BRANCH   3  15
ATOM     15  C   UNL     1       2.355   3.448  18.047  0.00  0.00    +0.000 C 
BRANCH  15  16
ATOM     16  C   UNL     1       3.803   3.441  17.555  0.00  0.00    +0.000 C 
BRANCH  16  17
ATOM     17  C   UNL     1       4.284   4.841  17.178  0.00  0.00    +0.000 C 
BRANCH  17  18
ATOM     18  N   UNL     1       5.455   5.244  17.932  0.00  0.00    +0.000 N 
ATOM     19  C   UNL     1       6.481   6.023  17.479  0.00  0.00    +0.000 A 
ATOM     20  C   UNL     1       7.365   6.091  18.531  0.00  0.00    +0.000 A 
ATOM     21  N   UNL     1       6.901   5.372  19.603  0.00  0.00    +0.000 NA
ATOM     22  C   UNL     1       5.751   4.869  19.211  0.00  0.00    +0.000 A 
ENDBRANCH  17  18
ENDBRANCH  16  17
ENDBRANCH  15  16
ENDBRANCH   3  15
TORSDOF 7
ENDMDL
