MODEL 1
REMARK VINA RESULT:      -8.3      0.000      0.000
REMARK  Name = 
REMARK  11 active torsions:
REMARK  status: ('A' for Active; 'I' for Inactive)
REMARK    1  A    between atoms: C_1  and  C_2
REMARK    2  A    between atoms: C_2  and  C_3
REMARK    3  A    between atoms: C_2  and  C_5
REMARK    4  A    between atoms: C_10  and  C_11
REMARK    5  A    between atoms: C_11  and  N_12
REMARK    6  A    between atoms: C_16  and  C_17
REMARK    7  A    between atoms: C_19  and  N_20
REMARK    8  A    between atoms: N_20  and  C_21
REMARK    9  A    between atoms: C_23  and  O_24
REMARK   10  A    between atoms: C_25  and  C_26
REMARK   11  A    between atoms: C_25  and  C_27
REMARK                            x       y       z     vdW  Elec       q    Type
REMARK                         _______ _______ _______ _____ _____    ______ ____
ROOT
ATOM      1  N   UNL     1       1.355   6.766  21.216  0.00  0.00    +0.000 N 
ATOM      2  C   UNL     1       1.908   5.653  20.586  0.00  0.00    +0.000 A 
ATOM      3  N   UNL     1       1.163   4.548  20.553  0.00  0.00    +0.000 NA
ATOM      4  C   UNL     1       1.680   3.494  19.885  0.00  0.00    +0.000 A 
ATOM      5  C   UNL     1       2.911   3.498  19.256  0.00  0.00    +0.000 A 
ATOM      6  C   UNL     1       3.633   4.668  19.396  0.00  0.00    +0.000 A 
ATOM      7  N   UNL     1       3.129   5.737  20.038  0.00  0.00    +0.000 NA
ATOM      8  H   UNL     1       0.358   6.580  21.285  0.00  0.00    +0.000 HD
ENDROOT
BRANCH   5   9
ATOM      9  C   UNL     1       3.335   2.369  18.513  0.00  0.00    +0.000 C 
ATOM     10  N   UNL     1       3.667   1.408  17.943  0.00  0.00    +0.000 NA
ENDBRANCH   5   9
BRANCH   6  11
ATOM     11  N   UNL     1       4.948   4.881  18.929  0.00  0.00    +0.000 N 
ATOM     12  H   UNL     1       5.331   3.938  18.860  0.00  0.00    +0.000 HD
BRANCH  11  13
ATOM     13  C   UNL     1       5.276   5.714  17.798  0.00  0.00    +0.000 C 
ATOM     14  C   UNL     1       5.116   4.964  16.460  0.00  0.00    +0.000 C 
ATOM     15  C   UNL     1       6.460   5.540  15.992  0.00  0.00    +0.000 C 
ATOM     16  C   UNL     1       6.808   5.889  17.480  0.00  0.00    +0.000 C 
ATOM     17  C   UNL     1       7.287   7.346  17.565  0.00  0.00    +0.000 C 
ATOM     18  C   UNL     1       7.824   4.984  18.181  0.00  0.00    +0.000 C 
BRANCH  15  19
ATOM     19  O   UNL     1       7.340   4.642  15.290  0.00  0.00    +0.000 OA
ATOM     20  H   UNL     1       7.161   3.754  15.641  0.00  0.00    +0.000 HD
ENDBRANCH  15  19
ENDBRANCH  11  13
ENDBRANCH   6  11
BRANCH   1  21
ATOM     21  C   UNL     1       1.693   8.000  20.531  0.00  0.00    +0.000 C 
BRANCH  21  27
ATOM     22  C   UNL     1       0.373  10.209  20.342  0.00  0.00    +0.000 A 
ATOM     23  N   UNL     1      -0.287  11.229  20.961  0.00  0.00    +0.000 NA
ATOM     24  C   UNL     1      -0.422  11.176  22.293  0.00  0.00    +0.000 A 
ATOM     25  N   UNL     1       0.013  10.190  23.076  0.00  0.00    +0.000 NA
ATOM     26  C   UNL     1       0.649   9.191  22.438  0.00  0.00    +0.000 A 
ATOM     27  C   UNL     1       0.891   9.146  21.070  0.00  0.00    +0.000 A 
BRANCH  22  29
ATOM     28  C   UNL     1       1.615  11.305  18.462  0.00  0.00    +0.000 C 
ATOM     29  C   UNL     1       0.475  10.345  18.825  0.00  0.00    +0.000 C 
ATOM     30  C   UNL     1      -0.867  10.805  18.250  0.00  0.00    +0.000 C 
ATOM     31  F   UNL     1       0.763   9.170  18.175  0.00  0.00    +0.000 F 
ENDBRANCH  22  29
ENDBRANCH  21  27
ENDBRANCH   1  21
TORSDOF 7
ENDMDL
MODEL 2
REMARK VINA RESULT:      -8.1      1.179      1.658
REMARK  Name = 
REMARK  11 active torsions:
REMARK  status: ('A' for Active; 'I' for Inactive)
REMARK    1  A    between atoms: C_1  and  C_2
REMARK    2  A    between atoms: C_2  and  C_3
REMARK    3  A    between atoms: C_2  and  C_5
REMARK    4  A    between atoms: C_10  and  C_11
REMARK    5  A    between atoms: C_11  and  N_12
REMARK    6  A    between atoms: C_16  and  C_17
REMARK    7  A    between atoms: C_19  and  N_20
REMARK    8  A    between atoms: N_20  and  C_21
REMARK    9  A    between atoms: C_23  and  O_24
REMARK   10  A    between atoms: C_25  and  C_26
REMARK   11  A    between atoms: C_25  and  C_27
REMARK                            x       y       z     vdW  Elec       q    Type
REMARK                         _______ _______ _______ _____ _____    ______ ____
ROOT
ATOM      1  N   UNL     1       1.593   7.381  21.228  0.00  0.00    +0.000 N 
ATOM      2  C   UNL     1       1.835   6.265  20.430  0.00  0.00    +0.000 A 
ATOM      3  N   UNL     1       1.257   5.122  20.801  0.00  0.00    +0.000 NA
ATOM      4  C   UNL     1       1.445   4.060  19.988  0.00  0.00    +0.000 A 
ATOM      5  C   UNL     1       2.192   4.093  18.825  0.00  0.00    +0.000 A 
ATOM      6  C   UNL     1       2.799   5.305  18.556  0.00  0.00    +0.000 A 
ATOM      7  N   UNL     1       2.608   6.381  19.340  0.00  0.00    +0.000 NA
ATOM      8  H   UNL     1       0.782   7.147  21.793  0.00  0.00    +0.000 HD
ENDROOT
BRANCH   5   9
ATOM      9  C   UNL     1       2.268   2.947  17.995  0.00  0.00    +0.000 C 
ATOM     10  N   UNL     1       2.319   1.974  17.355  0.00  0.00    +0.000 NA
ENDBRANCH   5   9
BRANCH   6  11
ATOM     11  N   UNL     1       3.684   5.559  17.485  0.00  0.00    +0.000 N 
ATOM     12  H   UNL     1       3.673   6.576  17.406  0.00  0.00    +0.000 HD
BRANCH  11  13
ATOM     13  C   UNL     1       5.006   4.993  17.382  0.00  0.00    +0.000 C 
ATOM     14  C   UNL     1       6.047   5.802  18.181  0.00  0.00    +0.000 C 
ATOM     15  C   UNL     1       7.012   5.713  16.990  0.00  0.00    +0.000 C 
ATOM     16  C   UNL     1       5.806   5.324  16.066  0.00  0.00    +0.000 C 
ATOM     17  C   UNL     1       6.173   4.079  15.245  0.00  0.00    +0.000 C 
ATOM     18  C   UNL     1       5.280   6.410  15.125  0.00  0.00    +0.000 C 
BRANCH  15  19
ATOM     19  O   UNL     1       7.749   6.906  16.663  0.00  0.00    +0.000 OA
ATOM     20  H   UNL     1       7.498   7.143  15.755  0.00  0.00    +0.000 HD
ENDBRANCH  15  19
ENDBRANCH  11  13
ENDBRANCH   6  11
BRANCH   1  21
ATOM     21  C   UNL     1       1.451   8.590  20.438  0.00  0.00    +0.000 C 
BRANCH  21  27
ATOM     22  C   UNL     1      -0.046  10.687  20.578  0.00  0.00    +0.000 A 
ATOM     23  N   UNL     1      -0.754  11.566  21.343  0.00  0.00    +0.000 NA
ATOM     24  C   UNL     1      -0.822  11.339  22.662  0.00  0.00    +0.000 A 
ATOM     25  N   UNL     1      -0.275  10.304  23.299  0.00  0.00    +0.000 NA
ATOM     26  C   UNL     1       0.407   9.448  22.517  0.00  0.00    +0.000 A 
ATOM     27  C   UNL     1       0.588   9.591  21.146  0.00  0.00    +0.000 A 
BRANCH  22  29
ATOM     28  C   UNL     1      -0.151  12.531  18.884  0.00  0.00    +0.000 C 
ATOM     29  C   UNL     1      -0.025  11.016  19.087  0.00  0.00    +0.000 C 
ATOM     30  C   UNL     1      -1.137  10.247  18.367  0.00  0.00    +0.000 C 
ATOM     31  F   UNL     1       1.136  10.654  18.449  0.00  0.00    +0.000 F 
ENDBRANCH  22  29
ENDBRANCH  21  27
ENDBRANCH   1  21
TORSDOF 7
ENDMDL
MODEL 3
REMARK VINA RESULT:      -7.9      1.207      1.331
REMARK  Name = 
REMARK  11 active torsions:
REMARK  status: ('A' for Active; 'I' for Inactive)
REMARK    1  A    between atoms: C_1  and  C_2
REMARK    2  A    between atoms: C_2  and  C_3
REMARK    3  A    between atoms: C_2  and  C_5
REMARK    4  A    between atoms: C_10  and  C_11
REMARK    5  A    between atoms: C_11  and  N_12
REMARK    6  A    between atoms: C_16  and  C_17
REMARK    7  A    between atoms: C_19  and  N_20
REMARK    8  A    between atoms: N_20  and  C_21
REMARK    9  A    between atoms: C_23  and  O_24
REMARK   10  A    between atoms: C_25  and  C_26
REMARK   11  A    between atoms: C_25  and  C_27
REMARK                            x       y       z     vdW  Elec       q    Type
REMARK                         _______ _______ _______ _____ _____    ______ ____
ROOT
ATOM      1  N   UNL     1       1.555   7.577  21.239  0.00  0.00    +0.000 N 
ATOM      2  C   UNL     1       1.808   6.452  20.457  0.00  0.00    +0.000 A 
ATOM      3  N   UNL     1       1.291   5.297  20.879  0.00  0.00    +0.000 NA
ATOM      4  C   UNL     1       1.488   4.224  20.084  0.00  0.00    +0.000 A 
ATOM      5  C   UNL     1       2.184   4.256  18.889  0.00  0.00    +0.000 A 
ATOM      6  C   UNL     1       2.731   5.483  18.567  0.00  0.00    +0.000 A 
ATOM      7  N   UNL     1       2.530   6.570  19.334  0.00  0.00    +0.000 NA
ATOM      8  H   UNL     1       0.777   7.327  21.843  0.00  0.00    +0.000 HD
ENDROOT
BRANCH   5   9
ATOM      9  C   UNL     1       2.271   3.094  18.084  0.00  0.00    +0.000 C 
ATOM     10  N   UNL     1       2.386   2.159  17.397  0.00  0.00    +0.000 NA
ENDBRANCH   5   9
BRANCH   6  11
ATOM     11  N   UNL     1       3.560   5.745  17.455  0.00  0.00    +0.000 N 
ATOM     12  H   UNL     1       2.936   6.214  16.799  0.00  0.00    +0.000 HD
BRANCH  11  13
ATOM     13  C   UNL     1       4.860   6.364  17.548  0.00  0.00    +0.000 C 
ATOM     14  C   UNL     1       5.416   6.754  16.163  0.00  0.00    +0.000 C 
ATOM     15  C   UNL     1       6.780   6.172  16.561  0.00  0.00    +0.000 C 
ATOM     16  C   UNL     1       6.085   5.391  17.730  0.00  0.00    +0.000 C 
ATOM     17  C   UNL     1       6.863   5.625  19.034  0.00  0.00    +0.000 C 
ATOM     18  C   UNL     1       5.882   3.888  17.529  0.00  0.00    +0.000 C 
BRANCH  15  19
ATOM     19  O   UNL     1       7.473   5.403  15.560  0.00  0.00    +0.000 OA
ATOM     20  H   UNL     1       6.801   5.119  14.919  0.00  0.00    +0.000 HD
ENDBRANCH  15  19
ENDBRANCH  11  13
ENDBRANCH   6  11
BRANCH   1  21
ATOM     21  C   UNL     1       1.332   8.760  20.428  0.00  0.00    +0.000 C 
BRANCH  21  27
ATOM     22  C   UNL     1      -0.141  10.870  20.613  0.00  0.00    +0.000 A 
ATOM     23  N   UNL     1      -0.840  11.739  21.398  0.00  0.00    +0.000 NA
ATOM     24  C   UNL     1      -0.911  11.484  22.711  0.00  0.00    +0.000 A 
ATOM     25  N   UNL     1      -0.375  10.429  23.325  0.00  0.00    +0.000 NA
ATOM     26  C   UNL     1       0.297   9.583  22.525  0.00  0.00    +0.000 A 
ATOM     27  C   UNL     1       0.480   9.754  21.157  0.00  0.00    +0.000 A 
BRANCH  22  29
ATOM     28  C   UNL     1      -0.466  12.714  18.947  0.00  0.00    +0.000 C 
ATOM     29  C   UNL     1      -0.116  11.231  19.130  0.00  0.00    +0.000 C 
ATOM     30  C   UNL     1      -1.070  10.318  18.354  0.00  0.00    +0.000 C 
ATOM     31  F   UNL     1       1.109  11.065  18.533  0.00  0.00    +0.000 F 
ENDBRANCH  22  29
ENDBRANCH  21  27
ENDBRANCH   1  21
TORSDOF 7
ENDMDL
MODEL 4
REMARK VINA RESULT:      -7.9      1.205      1.538
REMARK  Name = 
REMARK  11 active torsions:
REMARK  status: ('A' for Active; 'I' for Inactive)
REMARK    1  A    between atoms: C_1  and  C_2
REMARK    2  A    between atoms: C_2  and  C_3
REMARK    3  A    between atoms: C_2  and  C_5
REMARK    4  A    between atoms: C_10  and  C_11
REMARK    5  A    between atoms: C_11  and  N_12
REMARK    6  A    between atoms: C_16  and  C_17
REMARK    7  A    between atoms: C_19  and  N_20
REMARK    8  A    between atoms: N_20  and  C_21
REMARK    9  A    between atoms: C_23  and  O_24
REMARK   10  A    between atoms: C_25  and  C_26
REMARK   11  A    between atoms: C_25  and  C_27
REMARK                            x       y       z     vdW  Elec       q    Type
REMARK                         _______ _______ _______ _____ _____    ______ ____
ROOT
ATOM      1  N   UNL     1       1.487   7.257  21.299  0.00  0.00    +0.000 N 
ATOM      2  C   UNL     1       1.786   6.172  20.477  0.00  0.00    +0.000 A 
ATOM      3  N   UNL     1       1.122   5.040  20.710  0.00  0.00    +0.000 NA
ATOM      4  C   UNL     1       1.372   4.012  19.870  0.00  0.00    +0.000 A 
ATOM      5  C   UNL     1       2.261   4.069  18.813  0.00  0.00    +0.000 A 
ATOM      6  C   UNL     1       2.944   5.264  18.689  0.00  0.00    +0.000 A 
ATOM      7  N   UNL     1       2.696   6.307  19.501  0.00  0.00    +0.000 NA
ATOM      8  H   UNL     1       0.602   7.032  21.744  0.00  0.00    +0.000 HD
ENDROOT
BRANCH   5   9
ATOM      9  C   UNL     1       2.398   2.964  17.937  0.00  0.00    +0.000 C 
ATOM     10  N   UNL     1       2.515   2.089  17.176  0.00  0.00    +0.000 NA
ENDBRANCH   5   9
BRANCH   6  11
ATOM     11  N   UNL     1       3.967   5.531  17.753  0.00  0.00    +0.000 N 
ATOM     12  H   UNL     1       4.046   6.548  17.773  0.00  0.00    +0.000 HD
BRANCH  11  13
ATOM     13  C   UNL     1       5.243   4.859  17.742  0.00  0.00    +0.000 C 
ATOM     14  C   UNL     1       5.888   4.817  19.142  0.00  0.00    +0.000 C 
ATOM     15  C   UNL     1       7.232   5.223  18.521  0.00  0.00    +0.000 C 
ATOM     16  C   UNL     1       6.472   5.703  17.237  0.00  0.00    +0.000 C 
ATOM     17  C   UNL     1       7.149   5.112  15.991  0.00  0.00    +0.000 C 
ATOM     18  C   UNL     1       6.316   7.215  17.054  0.00  0.00    +0.000 C 
BRANCH  15  19
ATOM     19  O   UNL     1       8.012   6.195  19.243  0.00  0.00    +0.000 OA
ATOM     20  H   UNL     1       7.377   6.749  19.727  0.00  0.00    +0.000 HD
ENDBRANCH  15  19
ENDBRANCH  11  13
ENDBRANCH   6  11
BRANCH   1  21
ATOM     21  C   UNL     1       1.493   8.509  20.565  0.00  0.00    +0.000 C 
BRANCH  21  27
ATOM     22  C   UNL     1      -0.022  10.597  20.622  0.00  0.00    +0.000 A 
ATOM     23  N   UNL     1      -0.750  11.490  21.351  0.00  0.00    +0.000 NA
ATOM     24  C   UNL     1      -0.839  11.298  22.674  0.00  0.00    +0.000 A 
ATOM     25  N   UNL     1      -0.295  10.285  23.347  0.00  0.00    +0.000 NA
ATOM     26  C   UNL     1       0.407   9.414  22.601  0.00  0.00    +0.000 A 
ATOM     27  C   UNL     1       0.610   9.521  21.230  0.00  0.00    +0.000 A 
BRANCH  22  29
ATOM     28  C   UNL     1       1.310  11.641  18.774  0.00  0.00    +0.000 C 
ATOM     29  C   UNL     1       0.022  10.885  19.123  0.00  0.00    +0.000 C 
ATOM     30  C   UNL     1      -1.230  11.662  18.704  0.00  0.00    +0.000 C 
ATOM     31  F   UNL     1       0.029   9.760  18.336  0.00  0.00    +0.000 F 
ENDBRANCH  22  29
ENDBRANCH  21  27
ENDBRANCH   1  21
TORSDOF 7
ENDMDL
MODEL 5
REMARK VINA RESULT:      -7.9      0.725      1.323
REMARK  Name = 
REMARK  11 active torsions:
REMARK  status: ('A' for Active; 'I' for Inactive)
REMARK    1  A    between atoms: C_1  and  C_2
REMARK    2  A    between atoms: C_2  and  C_3
REMARK    3  A    between atoms: C_2  and  C_5
REMARK    4  A    between atoms: C_10  and  C_11
REMARK    5  A    between atoms: C_11  and  N_12
REMARK    6  A    between atoms: C_16  and  C_17
REMARK    7  A    between atoms: C_19  and  N_20
REMARK    8  A    between atoms: N_20  and  C_21
REMARK    9  A    between atoms: C_23  and  O_24
REMARK   10  A    between atoms: C_25  and  C_26
REMARK   11  A    between atoms: C_25  and  C_27
REMARK                            x       y       z     vdW  Elec       q    Type
REMARK                         _______ _______ _______ _____ _____    ______ ____
ROOT
ATOM      1  N   UNL     1       1.305   6.654  21.134  0.00  0.00    +0.000 N 
ATOM      2  C   UNL     1       1.906   5.535  20.561  0.00  0.00    +0.000 A 
ATOM      3  N   UNL     1       1.144   4.452  20.412  0.00  0.00    +0.000 NA
ATOM      4  C   UNL     1       1.716   3.393  19.799  0.00  0.00    +0.000 A 
ATOM      5  C   UNL     1       3.018   3.371  19.336  0.00  0.00    +0.000 A 
ATOM      6  C   UNL     1       3.746   4.518  19.589  0.00  0.00    +0.000 A 
ATOM      7  N   UNL     1       3.190   5.592  20.179  0.00  0.00    +0.000 NA
ATOM      8  H   UNL     1       0.303   6.495  21.069  0.00  0.00    +0.000 HD
ENDROOT
BRANCH   5   9
ATOM      9  C   UNL     1       3.506   2.241  18.635  0.00  0.00    +0.000 C 
ATOM     10  N   UNL     1       3.856   1.297  18.047  0.00  0.00    +0.000 NA
ENDBRANCH   5   9
BRANCH   6  11
ATOM     11  N   UNL     1       5.115   4.701  19.300  0.00  0.00    +0.000 N 
ATOM     12  H   UNL     1       5.584   4.309  20.118  0.00  0.00    +0.000 HD
BRANCH  11  13
ATOM     13  C   UNL     1       5.733   4.324  18.053  0.00  0.00    +0.000 C 
ATOM     14  C   UNL     1       7.213   4.751  17.987  0.00  0.00    +0.000 C 
ATOM     15  C   UNL     1       6.987   5.266  16.557  0.00  0.00    +0.000 C 
ATOM     16  C   UNL     1       5.441   5.258  16.819  0.00  0.00    +0.000 C 
ATOM     17  C   UNL     1       4.731   4.538  15.662  0.00  0.00    +0.000 C 
ATOM     18  C   UNL     1       4.775   6.616  17.051  0.00  0.00    +0.000 C 
BRANCH  15  19
ATOM     19  O   UNL     1       7.603   6.521  16.215  0.00  0.00    +0.000 OA
ATOM     20  H   UNL     1       6.907   7.195  16.284  0.00  0.00    +0.000 HD
ENDBRANCH  15  19
ENDBRANCH  11  13
ENDBRANCH   6  11
BRANCH   1  21
ATOM     21  C   UNL     1       1.760   7.887  20.519  0.00  0.00    +0.000 C 
BRANCH  21  27
ATOM     22  C   UNL     1       0.466  10.105  20.273  0.00  0.00    +0.000 A 
ATOM     23  N   UNL     1      -0.178  11.152  20.864  0.00  0.00    +0.000 NA
ATOM     24  C   UNL     1      -0.306  11.139  22.198  0.00  0.00    +0.000 A 
ATOM     25  N   UNL     1       0.122  10.171  23.008  0.00  0.00    +0.000 NA
ATOM     26  C   UNL     1       0.742   9.147  22.396  0.00  0.00    +0.000 A 
ATOM     27  C   UNL     1       0.976   9.058  21.028  0.00  0.00    +0.000 A 
BRANCH  22  29
ATOM     28  C   UNL     1       1.597  11.256  18.355  0.00  0.00    +0.000 C 
ATOM     29  C   UNL     1       0.562  10.196  18.751  0.00  0.00    +0.000 C 
ATOM     30  C   UNL     1      -0.819  10.492  18.158  0.00  0.00    +0.000 C 
ATOM     31  F   UNL     1       0.974   9.034  18.146  0.00  0.00    +0.000 F 
ENDBRANCH  22  29
ENDBRANCH  21  27
ENDBRANCH   1  21
TORSDOF 7
ENDMDL
MODEL 6
REMARK VINA RESULT:      -7.4      2.975      8.181
REMARK  Name = 
REMARK  11 active torsions:
REMARK  status: ('A' for Active; 'I' for Inactive)
REMARK    1  A    between atoms: C_1  and  C_2
REMARK    2  A    between atoms: C_2  and  C_3
REMARK    3  A    between atoms: C_2  and  C_5
REMARK    4  A    between atoms: C_10  and  C_11
REMARK    5  A    between atoms: C_11  and  N_12
REMARK    6  A    between atoms: C_16  and  C_17
REMARK    7  A    between atoms: C_19  and  N_20
REMARK    8  A    between atoms: N_20  and  C_21
REMARK    9  A    between atoms: C_23  and  O_24
REMARK   10  A    between atoms: C_25  and  C_26
REMARK   11  A    between atoms: C_25  and  C_27
REMARK                            x       y       z     vdW  Elec       q    Type
REMARK                         _______ _______ _______ _____ _____    ______ ____
ROOT
ATOM      1  N   UNL     1       2.213   6.538  20.610  0.00  0.00    +0.000 N 
ATOM      2  C   UNL     1       1.641   7.798  20.772  0.00  0.00    +0.000 A 
ATOM      3  N   UNL     1       1.698   8.333  21.992  0.00  0.00    +0.000 NA
ATOM      4  C   UNL     1       1.197   9.580  22.127  0.00  0.00    +0.000 A 
ATOM      5  C   UNL     1       0.636  10.309  21.096  0.00  0.00    +0.000 A 
ATOM      6  C   UNL     1       0.569   9.649  19.884  0.00  0.00    +0.000 A 
ATOM      7  N   UNL     1       1.080   8.415  19.722  0.00  0.00    +0.000 NA
ATOM      8  H   UNL     1       2.814   6.400  21.417  0.00  0.00    +0.000 HD
ENDROOT
BRANCH   5   9
ATOM      9  C   UNL     1       0.208  11.642  21.316  0.00  0.00    +0.000 C 
ATOM     10  N   UNL     1      -0.186  12.718  21.527  0.00  0.00    +0.000 NA
ENDBRANCH   5   9
BRANCH   6  11
ATOM     11  N   UNL     1      -0.043  10.145  18.712  0.00  0.00    +0.000 N 
ATOM     12  H   UNL     1       0.445   9.652  17.964  0.00  0.00    +0.000 HD
BRANCH  11  13
ATOM     13  C   UNL     1      -1.470  10.213  18.516  0.00  0.00    +0.000 C 
ATOM     14  C   UNL     1      -1.880   9.778  17.094  0.00  0.00    +0.000 C 
ATOM     15  C   UNL     1      -2.827  10.984  17.012  0.00  0.00    +0.000 C 
ATOM     16  C   UNL     1      -2.066  11.639  18.216  0.00  0.00    +0.000 C 
ATOM     17  C   UNL     1      -3.082  12.110  19.268  0.00  0.00    +0.000 C 
ATOM     18  C   UNL     1      -1.115  12.792  17.885  0.00  0.00    +0.000 C 
BRANCH  15  19
ATOM     19  O   UNL     1      -2.855  11.703  15.765  0.00  0.00    +0.000 OA
ATOM     20  H   UNL     1      -2.879  11.031  15.063  0.00  0.00    +0.000 HD
ENDBRANCH  15  19
ENDBRANCH  11  13
ENDBRANCH   6  11
BRANCH   1  21
ATOM     21  C   UNL     1       2.884   6.410  19.329  0.00  0.00    +0.000 C 
BRANCH  21  27
ATOM     22  C   UNL     1       3.539   4.416  17.829  0.00  0.00    +0.000 A 
ATOM     23  N   UNL     1       3.262   3.163  17.368  0.00  0.00    +0.000 NA
ATOM     24  C   UNL     1       2.190   2.532  17.866  0.00  0.00    +0.000 A 
ATOM     25  N   UNL     1       1.376   3.012  18.805  0.00  0.00    +0.000 NA
ATOM     26  C   UNL     1       1.681   4.244  19.250  0.00  0.00    +0.000 A 
ATOM     27  C   UNL     1       2.736   5.021  18.786  0.00  0.00    +0.000 A 
BRANCH  22  29
ATOM     28  C   UNL     1       5.148   4.342  15.910  0.00  0.00    +0.000 C 
ATOM     29  C   UNL     1       4.779   5.060  17.214  0.00  0.00    +0.000 C 
ATOM     30  C   UNL     1       5.931   5.045  18.223  0.00  0.00    +0.000 C 
ATOM     31  F   UNL     1       4.614   6.380  16.873  0.00  0.00    +0.000 F 
ENDBRANCH  22  29
ENDBRANCH  21  27
ENDBRANCH   1  21
TORSDOF 7
ENDMDL
MODEL 7
REMARK VINA RESULT:      -7.3      1.301      2.257
REMARK  Name = 
REMARK  11 active torsions:
REMARK  status: ('A' for Active; 'I' for Inactive)
REMARK    1  A    between atoms: C_1  and  C_2
REMARK    2  A    between atoms: C_2  and  C_3
REMARK    3  A    between atoms: C_2  and  C_5
REMARK    4  A    between atoms: C_10  and  C_11
REMARK    5  A    between atoms: C_11  and  N_12
REMARK    6  A    between atoms: C_16  and  C_17
REMARK    7  A    between atoms: C_19  and  N_20
REMARK    8  A    between atoms: N_20  and  C_21
REMARK    9  A    between atoms: C_23  and  O_24
REMARK   10  A    between atoms: C_25  and  C_26
REMARK   11  A    between atoms: C_25  and  C_27
REMARK                            x       y       z     vdW  Elec       q    Type
REMARK                         _______ _______ _______ _____ _____    ______ ____
ROOT
ATOM      1  N   UNL     1       1.514   7.360  20.793  0.00  0.00    +0.000 N 
ATOM      2  C   UNL     1       1.991   6.141  20.317  0.00  0.00    +0.000 A 
ATOM      3  N   UNL     1       1.170   5.095  20.409  0.00  0.00    +0.000 NA
ATOM      4  C   UNL     1       1.615   3.932  19.887  0.00  0.00    +0.000 A 
ATOM      5  C   UNL     1       2.848   3.770  19.284  0.00  0.00    +0.000 A 
ATOM      6  C   UNL     1       3.651   4.895  19.290  0.00  0.00    +0.000 A 
ATOM      7  N   UNL     1       3.220   6.069  19.784  0.00  0.00    +0.000 NA
ATOM      8  H   UNL     1       0.506   7.254  20.868  0.00  0.00    +0.000 HD
ENDROOT
BRANCH   5   9
ATOM      9  C   UNL     1       3.196   2.530  18.696  0.00  0.00    +0.000 C 
ATOM     10  N   UNL     1       3.457   1.483  18.252  0.00  0.00    +0.000 NA
ENDBRANCH   5   9
BRANCH   6  11
ATOM     11  N   UNL     1       4.982   4.955  18.822  0.00  0.00    +0.000 N 
ATOM     12  H   UNL     1       5.227   3.975  18.678  0.00  0.00    +0.000 HD
BRANCH  11  13
ATOM     13  C   UNL     1       5.422   5.817  17.753  0.00  0.00    +0.000 C 
ATOM     14  C   UNL     1       5.228   5.165  16.368  0.00  0.00    +0.000 C 
ATOM     15  C   UNL     1       6.635   5.632  15.967  0.00  0.00    +0.000 C 
ATOM     16  C   UNL     1       6.972   5.857  17.481  0.00  0.00    +0.000 C 
ATOM     17  C   UNL     1       7.589   7.252  17.665  0.00  0.00    +0.000 C 
ATOM     18  C   UNL     1       7.875   4.817  18.148  0.00  0.00    +0.000 C 
BRANCH  15  19
ATOM     19  O   UNL     1       7.443   4.694  15.232  0.00  0.00    +0.000 OA
ATOM     20  H   UNL     1       6.826   4.125  14.743  0.00  0.00    +0.000 HD
ENDBRANCH  15  19
ENDBRANCH  11  13
ENDBRANCH   6  11
BRANCH   1  21
ATOM     21  C   UNL     1       1.945   8.471  19.965  0.00  0.00    +0.000 C 
BRANCH  21  27
ATOM     22  C   UNL     1      -0.064  10.052  20.311  0.00  0.00    +0.000 A 
ATOM     23  N   UNL     1      -1.144  10.698  19.786  0.00  0.00    +0.000 NA
ATOM     24  C   UNL     1      -1.376  10.570  18.473  0.00  0.00    +0.000 A 
ATOM     25  N   UNL     1      -0.622   9.882  17.617  0.00  0.00    +0.000 NA
ATOM     26  C   UNL     1       0.443   9.266  18.160  0.00  0.00    +0.000 A 
ATOM     27  C   UNL     1       0.771   9.284  19.511  0.00  0.00    +0.000 A 
BRANCH  22  29
ATOM     28  C   UNL     1      -0.558   9.126  22.587  0.00  0.00    +0.000 C 
ATOM     29  C   UNL     1       0.131  10.256  21.812  0.00  0.00    +0.000 C 
ATOM     30  C   UNL     1      -0.392  11.635  22.224  0.00  0.00    +0.000 C 
ATOM     31  F   UNL     1       1.444  10.233  22.215  0.00  0.00    +0.000 F 
ENDBRANCH  22  29
ENDBRANCH  21  27
ENDBRANCH   1  21
TORSDOF 7
ENDMDL
MODEL 8
REMARK VINA RESULT:      -7.3      3.192      8.177
REMARK  Name = 
REMARK  11 active torsions:
REMARK  status: ('A' for Active; 'I' for Inactive)
REMARK    1  A    between atoms: C_1  and  C_2
REMARK    2  A    between atoms: C_2  and  C_3
REMARK    3  A    between atoms: C_2  and  C_5
REMARK    4  A    between atoms: C_10  and  C_11
REMARK    5  A    between atoms: C_11  and  N_12
REMARK    6  A    between atoms: C_16  and  C_17
REMARK    7  A    between atoms: C_19  and  N_20
REMARK    8  A    between atoms: N_20  and  C_21
REMARK    9  A    between atoms: C_23  and  O_24
REMARK   10  A    between atoms: C_25  and  C_26
REMARK   11  A    between atoms: C_25  and  C_27
REMARK                            x       y       z     vdW  Elec       q    Type
REMARK                         _______ _______ _______ _____ _____    ______ ____
ROOT
ATOM      1  N   UNL     1       3.436   5.831  17.778  0.00  0.00    +0.000 N 
ATOM      2  C   UNL     1       2.731   6.547  18.743  0.00  0.00    +0.000 A 
ATOM      3  N   UNL     1       2.534   5.943  19.916  0.00  0.00    +0.000 NA
ATOM      4  C   UNL     1       1.906   6.667  20.867  0.00  0.00    +0.000 A 
ATOM      5  C   UNL     1       1.461   7.964  20.692  0.00  0.00    +0.000 A 
ATOM      6  C   UNL     1       1.658   8.482  19.426  0.00  0.00    +0.000 A 
ATOM      7  N   UNL     1       2.301   7.787  18.470  0.00  0.00    +0.000 NA
ATOM      8  H   UNL     1       3.904   5.079  18.276  0.00  0.00    +0.000 HD
ENDROOT
BRANCH   5   9
ATOM      9  C   UNL     1       0.882   8.670  21.775  0.00  0.00    +0.000 C 
ATOM     10  N   UNL     1       0.358   9.228  22.654  0.00  0.00    +0.000 NA
ENDBRANCH   5   9
BRANCH   6  11
ATOM     11  N   UNL     1       1.209   9.742  18.977  0.00  0.00    +0.000 N 
ATOM     12  H   UNL     1       1.545   9.784  18.014  0.00  0.00    +0.000 HD
BRANCH  11  13
ATOM     13  C   UNL     1      -0.146  10.216  19.129  0.00  0.00    +0.000 C 
ATOM     14  C   UNL     1      -0.934  10.149  17.805  0.00  0.00    +0.000 C 
ATOM     15  C   UNL     1      -1.482  11.558  18.077  0.00  0.00    +0.000 C 
ATOM     16  C   UNL     1      -0.343  11.778  19.131  0.00  0.00    +0.000 C 
ATOM     17  C   UNL     1      -0.951  12.315  20.436  0.00  0.00    +0.000 C 
ATOM     18  C   UNL     1       0.821  12.679  18.711  0.00  0.00    +0.000 C 
BRANCH  15  19
ATOM     19  O   UNL     1      -1.540  12.458  16.954  0.00  0.00    +0.000 OA
ATOM     20  H   UNL     1      -1.747  13.335  17.318  0.00  0.00    +0.000 HD
ENDBRANCH  15  19
ENDBRANCH  11  13
ENDBRANCH   6  11
BRANCH   1  21
ATOM     21  C   UNL     1       4.321   6.687  17.008  0.00  0.00    +0.000 C 
BRANCH  21  27
ATOM     22  C   UNL     1       6.650   5.602  16.783  0.00  0.00    +0.000 A 
ATOM     23  N   UNL     1       7.544   4.905  16.024  0.00  0.00    +0.000 NA
ATOM     24  C   UNL     1       7.153   4.493  14.811  0.00  0.00    +0.000 A 
ATOM     25  N   UNL     1       5.945   4.682  14.281  0.00  0.00    +0.000 NA
ATOM     26  C   UNL     1       5.081   5.361  15.057  0.00  0.00    +0.000 A 
ATOM     27  C   UNL     1       5.374   5.878  16.313  0.00  0.00    +0.000 A 
BRANCH  22  29
ATOM     28  C   UNL     1       7.811   7.420  18.060  0.00  0.00    +0.000 C 
ATOM     29  C   UNL     1       7.174   6.027  18.153  0.00  0.00    +0.000 C 
ATOM     30  C   UNL     1       8.159   4.981  18.683  0.00  0.00    +0.000 C 
ATOM     31  F   UNL     1       6.202   6.130  19.117  0.00  0.00    +0.000 F 
ENDBRANCH  22  29
ENDBRANCH  21  27
ENDBRANCH   1  21
TORSDOF 7
ENDMDL
MODEL 9
REMARK VINA RESULT:      -7.3      1.954      2.858
REMARK  Name = 
REMARK  11 active torsions:
REMARK  status: ('A' for Active; 'I' for Inactive)
REMARK    1  A    between atoms: C_1  and  C_2
REMARK    2  A    between atoms: C_2  and  C_3
REMARK    3  A    between atoms: C_2  and  C_5
REMARK    4  A    between atoms: C_10  and  C_11
REMARK    5  A    between atoms: C_11  and  N_12
REMARK    6  A    between atoms: C_16  and  C_17
REMARK    7  A    between atoms: C_19  and  N_20
REMARK    8  A    between atoms: N_20  and  C_21
REMARK    9  A    between atoms: C_23  and  O_24
REMARK   10  A    between atoms: C_25  and  C_26
REMARK   11  A    between atoms: C_25  and  C_27
REMARK                            x       y       z     vdW  Elec       q    Type
REMARK                         _______ _______ _______ _____ _____    ______ ____
ROOT
ATOM      1  N   UNL     1       1.826   8.626  19.688  0.00  0.00    +0.000 N 
ATOM      2  C   UNL     1       2.111   7.264  19.625  0.00  0.00    +0.000 A 
ATOM      3  N   UNL     1       1.718   6.518  20.658  0.00  0.00    +0.000 NA
ATOM      4  C   UNL     1       1.941   5.190  20.561  0.00  0.00    +0.000 A 
ATOM      5  C   UNL     1       2.545   4.579  19.478  0.00  0.00    +0.000 A 
ATOM      6  C   UNL     1       2.970   5.441  18.485  0.00  0.00    +0.000 A 
ATOM      7  N   UNL     1       2.739   6.764  18.551  0.00  0.00    +0.000 NA
ATOM      8  H   UNL     1       1.116   8.729  20.408  0.00  0.00    +0.000 HD
ENDROOT
BRANCH   5   9
ATOM      9  C   UNL     1       2.666   3.168  19.432  0.00  0.00    +0.000 C 
ATOM     10  N   UNL     1       2.805   2.013  19.358  0.00  0.00    +0.000 NA
ENDBRANCH   5   9
BRANCH   6  11
ATOM     11  N   UNL     1       3.694   5.069  17.331  0.00  0.00    +0.000 N 
ATOM     12  H   UNL     1       3.405   5.760  16.638  0.00  0.00    +0.000 HD
BRANCH  11  13
ATOM     13  C   UNL     1       5.112   4.808  17.320  0.00  0.00    +0.000 C 
ATOM     14  C   UNL     1       5.876   5.718  18.303  0.00  0.00    +0.000 C 
ATOM     15  C   UNL     1       6.937   5.972  17.222  0.00  0.00    +0.000 C 
ATOM     16  C   UNL     1       5.932   5.450  16.139  0.00  0.00    +0.000 C 
ATOM     17  C   UNL     1       6.634   4.414  15.248  0.00  0.00    +0.000 C 
ATOM     18  C   UNL     1       5.264   6.505  15.253  0.00  0.00    +0.000 C 
BRANCH  15  19
ATOM     19  O   UNL     1       7.420   7.323  17.094  0.00  0.00    +0.000 OA
ATOM     20  H   UNL     1       6.634   7.892  17.058  0.00  0.00    +0.000 HD
ENDBRANCH  15  19
ENDBRANCH  11  13
ENDBRANCH   6  11
BRANCH   1  21
ATOM     21  C   UNL     1       1.454   9.162  18.392  0.00  0.00    +0.000 C 
BRANCH  21  27
ATOM     22  C   UNL     1       0.206  11.395  18.728  0.00  0.00    +0.000 A 
ATOM     23  N   UNL     1       0.221  12.758  18.680  0.00  0.00    +0.000 NA
ATOM     24  C   UNL     1       1.369  13.364  18.350  0.00  0.00    +0.000 A 
ATOM     25  N   UNL     1       2.521  12.749  18.087  0.00  0.00    +0.000 NA
ATOM     26  C   UNL     1       2.480  11.406  18.154  0.00  0.00    +0.000 A 
ATOM     27  C   UNL     1       1.346  10.656  18.443  0.00  0.00    +0.000 A 
BRANCH  22  29
ATOM     28  C   UNL     1      -1.815  10.179  17.883  0.00  0.00    +0.000 C 
ATOM     29  C   UNL     1      -1.139  10.787  19.118  0.00  0.00    +0.000 C 
ATOM     30  C   UNL     1      -2.017  11.847  19.789  0.00  0.00    +0.000 C 
ATOM     31  F   UNL     1      -1.048   9.764  20.029  0.00  0.00    +0.000 F 
ENDBRANCH  22  29
ENDBRANCH  21  27
ENDBRANCH   1  21
TORSDOF 7
ENDMDL
