MODEL 1
REMARK VINA RESULT:      -8.0      0.000      0.000
REMARK  Name = 
REMARK  4 active torsions:
REMARK  status: ('A' for Active; 'I' for Inactive)
REMARK    1  A    between atoms: C_1  and  C_2
REMARK    2  A    between atoms: C_6  and  N_7
REMARK    3  A    between atoms: N_14  and  S_15
REMARK    4  A    between atoms: S_15  and  C_16
REMARK                            x       y       z     vdW  Elec       q    Type
REMARK                         _______ _______ _______ _____ _____    ______ ____
ROOT
ATOM      1  N   UNL     1       6.346   5.306  15.812  0.00  0.00    +0.000 N 
ATOM      2  C   UNL     1       7.463   5.401  16.747  0.00  0.00    +0.000 C 
ATOM      3  C   UNL     1       6.977   4.870  18.089  0.00  0.00    +0.000 C 
ATOM      4  C   UNL     1       5.752   5.642  18.565  0.00  0.00    +0.000 C 
ATOM      5  C   UNL     1       4.601   5.703  17.524  0.00  0.00    +0.000 C 
ATOM      6  C   UNL     1       5.177   6.145  16.147  0.00  0.00    +0.000 C 
ATOM      7  C   UNL     1       3.896   4.353  17.286  0.00  0.00    +0.000 C 
ATOM      8  N   UNL     1       3.320   3.838  18.563  0.00  0.00    +0.000 NA
ATOM      9  C   UNL     1       2.337   4.833  19.104  0.00  0.00    +0.000 C 
ATOM     10  C   UNL     1       2.954   6.242  19.184  0.00  0.00    +0.000 C 
ATOM     11  O   UNL     1       3.604   6.658  17.966  0.00  0.00    +0.000 OA
ENDROOT
BRANCH   1  17
ATOM     12  C   UNL     1       4.796   2.783  11.855  0.00  0.00    +0.000 C 
ATOM     13  C   UNL     1       5.809   3.681  12.499  0.00  0.00    +0.000 A 
ATOM     14  C   UNL     1       6.943   4.112  11.813  0.00  0.00    +0.000 A 
ATOM     15  C   UNL     1       7.877   4.919  12.458  0.00  0.00    +0.000 A 
ATOM     16  C   UNL     1       7.687   5.285  13.795  0.00  0.00    +0.000 A 
ATOM     17  C   UNL     1       6.552   4.879  14.512  0.00  0.00    +0.000 A 
ATOM     18  C   UNL     1       5.620   4.084  13.830  0.00  0.00    +0.000 A 
ENDBRANCH   1  17
BRANCH   8  19
ATOM     19  S   UNL     1       2.698   2.252  18.445  0.00  0.00    +0.000 S 
ATOM     20  C   UNL     1       1.544   2.199  19.807  0.00  0.00    +0.000 C 
ATOM     21  O   UNL     1       1.943   2.176  17.214  0.00  0.00    +0.000 OA
ATOM     22  O   UNL     1       3.782   1.336  18.712  0.00  0.00    +0.000 OA
ENDBRANCH   8  19
TORSDOF 2
ENDMDL
MODEL 2
REMARK VINA RESULT:      -7.2      0.885      1.083
REMARK  Name = 
REMARK  4 active torsions:
REMARK  status: ('A' for Active; 'I' for Inactive)
REMARK    1  A    between atoms: C_1  and  C_2
REMARK    2  A    between atoms: C_6  and  N_7
REMARK    3  A    between atoms: N_14  and  S_15
REMARK    4  A    between atoms: S_15  and  C_16
REMARK                            x       y       z     vdW  Elec       q    Type
REMARK                         _______ _______ _______ _____ _____    ______ ____
ROOT
ATOM      1  N   UNL     1       6.192   5.519  15.984  0.00  0.00    +0.000 N 
ATOM      2  C   UNL     1       7.322   5.799  16.864  0.00  0.00    +0.000 C 
ATOM      3  C   UNL     1       6.934   5.337  18.262  0.00  0.00    +0.000 C 
ATOM      4  C   UNL     1       5.654   6.024  18.722  0.00  0.00    +0.000 C 
ATOM      5  C   UNL     1       4.471   5.886  17.725  0.00  0.00    +0.000 C 
ATOM      6  C   UNL     1       4.956   6.266  16.296  0.00  0.00    +0.000 C 
ATOM      7  C   UNL     1       3.896   4.459  17.623  0.00  0.00    +0.000 C 
ATOM      8  N   UNL     1       3.414   3.998  18.959  0.00  0.00    +0.000 NA
ATOM      9  C   UNL     1       2.354   4.936  19.456  0.00  0.00    +0.000 C 
ATOM     10  C   UNL     1       2.830   6.399  19.400  0.00  0.00    +0.000 C 
ATOM     11  O   UNL     1       3.397   6.773  18.128  0.00  0.00    +0.000 OA
ENDROOT
BRANCH   1  17
ATOM     12  C   UNL     1       4.519   3.000  12.074  0.00  0.00    +0.000 C 
ATOM     13  C   UNL     1       5.604   3.805  12.724  0.00  0.00    +0.000 A 
ATOM     14  C   UNL     1       6.808   4.068  12.073  0.00  0.00    +0.000 A 
ATOM     15  C   UNL     1       7.803   4.792  12.724  0.00  0.00    +0.000 A 
ATOM     16  C   UNL     1       7.602   5.243  14.033  0.00  0.00    +0.000 A 
ATOM     17  C   UNL     1       6.400   5.007  14.714  0.00  0.00    +0.000 A 
ATOM     18  C   UNL     1       5.409   4.293  14.026  0.00  0.00    +0.000 A 
ENDBRANCH   1  17
BRANCH   8  19
ATOM     19  S   UNL     1       2.950   2.356  18.992  0.00  0.00    +0.000 S 
ATOM     20  C   UNL     1       2.557   2.043  17.278  0.00  0.00    +0.000 C 
ATOM     21  O   UNL     1       4.123   1.582  19.332  0.00  0.00    +0.000 OA
ATOM     22  O   UNL     1       1.741   2.259  19.776  0.00  0.00    +0.000 OA
ENDBRANCH   8  19
TORSDOF 2
ENDMDL
MODEL 3
REMARK VINA RESULT:      -7.0      1.127      1.911
REMARK  Name = 
REMARK  4 active torsions:
REMARK  status: ('A' for Active; 'I' for Inactive)
REMARK    1  A    between atoms: C_1  and  C_2
REMARK    2  A    between atoms: C_6  and  N_7
REMARK    3  A    between atoms: N_14  and  S_15
REMARK    4  A    between atoms: S_15  and  C_16
REMARK                            x       y       z     vdW  Elec       q    Type
REMARK                         _______ _______ _______ _____ _____    ______ ____
ROOT
ATOM      1  N   UNL     1       5.995   5.386  16.451  0.00  0.00    +0.000 N 
ATOM      2  C   UNL     1       7.094   5.389  17.412  0.00  0.00    +0.000 C 
ATOM      3  C   UNL     1       6.548   4.850  18.727  0.00  0.00    +0.000 C 
ATOM      4  C   UNL     1       5.360   5.678  19.200  0.00  0.00    +0.000 C 
ATOM      5  C   UNL     1       4.238   5.837  18.137  0.00  0.00    +0.000 C 
ATOM      6  C   UNL     1       4.870   6.283  16.787  0.00  0.00    +0.000 C 
ATOM      7  C   UNL     1       3.461   4.538  17.845  0.00  0.00    +0.000 C 
ATOM      8  N   UNL     1       2.827   4.021  19.094  0.00  0.00    +0.000 NA
ATOM      9  C   UNL     1       1.892   5.057  19.643  0.00  0.00    +0.000 C 
ATOM     10  C   UNL     1       2.588   6.424  19.777  0.00  0.00    +0.000 C 
ATOM     11  O   UNL     1       3.288   6.835  18.586  0.00  0.00    +0.000 OA
ENDROOT
BRANCH   1  17
ATOM     12  C   UNL     1       8.543   5.764  12.234  0.00  0.00    +0.000 C 
ATOM     13  C   UNL     1       7.469   5.096  13.038  0.00  0.00    +0.000 A 
ATOM     14  C   UNL     1       6.691   4.068  12.508  0.00  0.00    +0.000 A 
ATOM     15  C   UNL     1       5.682   3.496  13.277  0.00  0.00    +0.000 A 
ATOM     16  C   UNL     1       5.437   3.960  14.574  0.00  0.00    +0.000 A 
ATOM     17  C   UNL     1       6.206   4.984  15.144  0.00  0.00    +0.000 A 
ATOM     18  C   UNL     1       7.228   5.527  14.353  0.00  0.00    +0.000 A 
ENDBRANCH   1  17
BRANCH   8  19
ATOM     19  S   UNL     1       2.117   2.479  18.916  0.00  0.00    +0.000 S 
ATOM     20  C   UNL     1       3.505   1.484  18.394  0.00  0.00    +0.000 C 
ATOM     21  O   UNL     1       1.714   2.034  20.231  0.00  0.00    +0.000 OA
ATOM     22  O   UNL     1       1.164   2.559  17.833  0.00  0.00    +0.000 OA
ENDBRANCH   8  19
TORSDOF 2
ENDMDL
MODEL 4
REMARK VINA RESULT:      -6.8      1.115      1.444
REMARK  Name = 
REMARK  4 active torsions:
REMARK  status: ('A' for Active; 'I' for Inactive)
REMARK    1  A    between atoms: C_1  and  C_2
REMARK    2  A    between atoms: C_6  and  N_7
REMARK    3  A    between atoms: N_14  and  S_15
REMARK    4  A    between atoms: S_15  and  C_16
REMARK                            x       y       z     vdW  Elec       q    Type
REMARK                         _______ _______ _______ _____ _____    ______ ____
ROOT
ATOM      1  N   UNL     1       6.110   4.700  14.751  0.00  0.00    +0.000 N 
ATOM      2  C   UNL     1       7.436   5.067  15.241  0.00  0.00    +0.000 C 
ATOM      3  C   UNL     1       7.433   4.863  16.750  0.00  0.00    +0.000 C 
ATOM      4  C   UNL     1       6.325   5.678  17.405  0.00  0.00    +0.000 C 
ATOM      5  C   UNL     1       4.918   5.435  16.793  0.00  0.00    +0.000 C 
ATOM      6  C   UNL     1       5.005   5.549  15.244  0.00  0.00    +0.000 C 
ATOM      7  C   UNL     1       4.333   4.041  17.094  0.00  0.00    +0.000 C 
ATOM      8  N   UNL     1       4.225   3.832  18.568  0.00  0.00    +0.000 NA
ATOM      9  C   UNL     1       3.339   4.890  19.157  0.00  0.00    +0.000 C 
ATOM     10  C   UNL     1       3.787   6.298  18.726  0.00  0.00    +0.000 C 
ATOM     11  O   UNL     1       3.994   6.428  17.305  0.00  0.00    +0.000 OA
ENDROOT
BRANCH   1  17
ATOM     12  C   UNL     1       3.251   3.061  11.068  0.00  0.00    +0.000 C 
ATOM     13  C   UNL     1       4.606   3.174  11.700  0.00  0.00    +0.000 A 
ATOM     14  C   UNL     1       5.730   2.584  11.125  0.00  0.00    +0.000 A 
ATOM     15  C   UNL     1       6.965   2.683  11.760  0.00  0.00    +0.000 A 
ATOM     16  C   UNL     1       7.077   3.361  12.979  0.00  0.00    +0.000 A 
ATOM     17  C   UNL     1       5.969   3.976  13.580  0.00  0.00    +0.000 A 
ATOM     18  C   UNL     1       4.743   3.877  12.907  0.00  0.00    +0.000 A 
ENDBRANCH   1  17
BRANCH   8  19
ATOM     19  S   UNL     1       3.781   2.243  19.005  0.00  0.00    +0.000 S 
ATOM     20  C   UNL     1       2.191   2.495  19.778  0.00  0.00    +0.000 C 
ATOM     21  O   UNL     1       3.573   1.501  17.781  0.00  0.00    +0.000 OA
ATOM     22  O   UNL     1       4.720   1.785  20.002  0.00  0.00    +0.000 OA
ENDBRANCH   8  19
TORSDOF 2
ENDMDL
MODEL 5
REMARK VINA RESULT:      -6.8      3.093      7.042
REMARK  Name = 
REMARK  4 active torsions:
REMARK  status: ('A' for Active; 'I' for Inactive)
REMARK    1  A    between atoms: C_1  and  C_2
REMARK    2  A    between atoms: C_6  and  N_7
REMARK    3  A    between atoms: N_14  and  S_15
REMARK    4  A    between atoms: S_15  and  C_16
REMARK                            x       y       z     vdW  Elec       q    Type
REMARK                         _______ _______ _______ _____ _____    ______ ____
ROOT
ATOM      1  N   UNL     1       2.110   5.998  19.463  0.00  0.00    +0.000 N 
ATOM      2  C   UNL     1       1.721   4.835  20.256  0.00  0.00    +0.000 C 
ATOM      3  C   UNL     1       2.893   3.864  20.241  0.00  0.00    +0.000 C 
ATOM      4  C   UNL     1       3.271   3.494  18.812  0.00  0.00    +0.000 C 
ATOM      5  C   UNL     1       3.532   4.717  17.892  0.00  0.00    +0.000 C 
ATOM      6  C   UNL     1       2.354   5.725  18.032  0.00  0.00    +0.000 C 
ATOM      7  C   UNL     1       4.816   5.499  18.233  0.00  0.00    +0.000 C 
ATOM      8  N   UNL     1       6.007   4.604  18.140  0.00  0.00    +0.000 NA
ATOM      9  C   UNL     1       6.106   4.051  16.749  0.00  0.00    +0.000 C 
ATOM     10  C   UNL     1       4.775   3.419  16.302  0.00  0.00    +0.000 C 
ATOM     11  O   UNL     1       3.632   4.270  16.516  0.00  0.00    +0.000 OA
ENDROOT
BRANCH   1  17
ATOM     12  C   UNL     1       1.498  10.798  18.458  0.00  0.00    +0.000 C 
ATOM     13  C   UNL     1       1.429   9.664  19.436  0.00  0.00    +0.000 A 
ATOM     14  C   UNL     1       1.035   9.863  20.758  0.00  0.00    +0.000 A 
ATOM     15  C   UNL     1       1.015   8.790  21.644  0.00  0.00    +0.000 A 
ATOM     16  C   UNL     1       1.404   7.516  21.214  0.00  0.00    +0.000 A 
ATOM     17  C   UNL     1       1.794   7.277  19.889  0.00  0.00    +0.000 A 
ATOM     18  C   UNL     1       1.785   8.373  19.015  0.00  0.00    +0.000 A 
ENDBRANCH   1  17
BRANCH   8  19
ATOM     19  S   UNL     1       7.451   5.324  18.698  0.00  0.00    +0.000 S 
ATOM     20  C   UNL     1       7.469   6.870  17.805  0.00  0.00    +0.000 C 
ATOM     21  O   UNL     1       7.272   5.618  20.102  0.00  0.00    +0.000 OA
ATOM     22  O   UNL     1       8.551   4.506  18.243  0.00  0.00    +0.000 OA
ENDBRANCH   8  19
TORSDOF 2
ENDMDL
MODEL 6
REMARK VINA RESULT:      -6.7      3.181      7.256
REMARK  Name = 
REMARK  4 active torsions:
REMARK  status: ('A' for Active; 'I' for Inactive)
REMARK    1  A    between atoms: C_1  and  C_2
REMARK    2  A    between atoms: C_6  and  N_7
REMARK    3  A    between atoms: N_14  and  S_15
REMARK    4  A    between atoms: S_15  and  C_16
REMARK                            x       y       z     vdW  Elec       q    Type
REMARK                         _______ _______ _______ _____ _____    ______ ____
ROOT
ATOM      1  N   UNL     1       1.911   6.034  19.735  0.00  0.00    +0.000 N 
ATOM      2  C   UNL     1       1.614   4.983  20.705  0.00  0.00    +0.000 C 
ATOM      3  C   UNL     1       2.797   4.025  20.712  0.00  0.00    +0.000 C 
ATOM      4  C   UNL     1       3.054   3.472  19.316  0.00  0.00    +0.000 C 
ATOM      5  C   UNL     1       3.211   4.565  18.223  0.00  0.00    +0.000 C 
ATOM      6  C   UNL     1       2.033   5.576  18.336  0.00  0.00    +0.000 C 
ATOM      7  C   UNL     1       4.506   5.393  18.342  0.00  0.00    +0.000 C 
ATOM      8  N   UNL     1       5.700   4.500  18.260  0.00  0.00    +0.000 NA
ATOM      9  C   UNL     1       5.686   3.769  16.951  0.00  0.00    +0.000 C 
ATOM     10  C   UNL     1       4.332   3.076  16.712  0.00  0.00    +0.000 C 
ATOM     11  O   UNL     1       3.197   3.941  16.915  0.00  0.00    +0.000 OA
ENDROOT
BRANCH   1  17
ATOM     12  C   UNL     1       0.359   9.466  22.934  0.00  0.00    +0.000 C 
ATOM     13  C   UNL     1       0.893   9.111  21.579  0.00  0.00    +0.000 A 
ATOM     14  C   UNL     1       1.113  10.081  20.603  0.00  0.00    +0.000 A 
ATOM     15  C   UNL     1       1.578   9.706  19.346  0.00  0.00    +0.000 A 
ATOM     16  C   UNL     1       1.811   8.357  19.056  0.00  0.00    +0.000 A 
ATOM     17  C   UNL     1       1.612   7.356  20.016  0.00  0.00    +0.000 A 
ATOM     18  C   UNL     1       1.162   7.765  21.279  0.00  0.00    +0.000 A 
ENDBRANCH   1  17
BRANCH   8  19
ATOM     19  S   UNL     1       7.174   5.296  18.587  0.00  0.00    +0.000 S 
ATOM     20  C   UNL     1       6.989   6.820  17.674  0.00  0.00    +0.000 C 
ATOM     21  O   UNL     1       7.189   5.616  19.997  0.00  0.00    +0.000 OA
ATOM     22  O   UNL     1       8.233   4.517  17.990  0.00  0.00    +0.000 OA
ENDBRANCH   8  19
TORSDOF 2
ENDMDL
MODEL 7
REMARK VINA RESULT:      -6.7      5.962      8.346
REMARK  Name = 
REMARK  4 active torsions:
REMARK  status: ('A' for Active; 'I' for Inactive)
REMARK    1  A    between atoms: C_1  and  C_2
REMARK    2  A    between atoms: C_6  and  N_7
REMARK    3  A    between atoms: N_14  and  S_15
REMARK    4  A    between atoms: S_15  and  C_16
REMARK                            x       y       z     vdW  Elec       q    Type
REMARK                         _______ _______ _______ _____ _____    ______ ____
ROOT
ATOM      1  N   UNL     1       1.387   8.600  20.178  0.00  0.00    +0.000 N 
ATOM      2  C   UNL     1       0.966   8.774  21.565  0.00  0.00    +0.000 C 
ATOM      3  C   UNL     1      -0.341   9.556  21.546  0.00  0.00    +0.000 C 
ATOM      4  C   UNL     1      -0.166  10.884  20.820  0.00  0.00    +0.000 C 
ATOM      5  C   UNL     1       0.440  10.749  19.396  0.00  0.00    +0.000 C 
ATOM      6  C   UNL     1       1.709   9.851  19.461  0.00  0.00    +0.000 C 
ATOM      7  C   UNL     1      -0.505  10.093  18.370  0.00  0.00    +0.000 C 
ATOM      8  N   UNL     1      -1.767  10.882  18.249  0.00  0.00    +0.000 NA
ATOM      9  C   UNL     1      -1.440  12.280  17.814  0.00  0.00    +0.000 C 
ATOM     10  C   UNL     1      -0.358  12.907  18.712  0.00  0.00    +0.000 C 
ATOM     11  O   UNL     1       0.796  12.064  18.899  0.00  0.00    +0.000 OA
ENDROOT
BRANCH   1  17
ATOM     12  C   UNL     1       2.146   3.775  20.931  0.00  0.00    +0.000 C 
ATOM     13  C   UNL     1       2.274   4.980  20.049  0.00  0.00    +0.000 A 
ATOM     14  C   UNL     1       2.887   4.909  18.799  0.00  0.00    +0.000 A 
ATOM     15  C   UNL     1       3.015   6.058  18.024  0.00  0.00    +0.000 A 
ATOM     16  C   UNL     1       2.542   7.285  18.503  0.00  0.00    +0.000 A 
ATOM     17  C   UNL     1       1.910   7.392  19.749  0.00  0.00    +0.000 A 
ATOM     18  C   UNL     1       1.777   6.214  20.498  0.00  0.00    +0.000 A 
ENDBRANCH   1  17
BRANCH   8  19
ATOM     19  S   UNL     1      -2.960  10.125  17.291  0.00  0.00    +0.000 S 
ATOM     20  C   UNL     1      -4.107  11.461  16.995  0.00  0.00    +0.000 C 
ATOM     21  O   UNL     1      -2.344   9.774  16.031  0.00  0.00    +0.000 OA
ATOM     22  O   UNL     1      -3.606   9.124  18.108  0.00  0.00    +0.000 OA
ENDBRANCH   8  19
TORSDOF 2
ENDMDL
MODEL 8
REMARK VINA RESULT:      -6.6      3.126      6.925
REMARK  Name = 
REMARK  4 active torsions:
REMARK  status: ('A' for Active; 'I' for Inactive)
REMARK    1  A    between atoms: C_1  and  C_2
REMARK    2  A    between atoms: C_6  and  N_7
REMARK    3  A    between atoms: N_14  and  S_15
REMARK    4  A    between atoms: S_15  and  C_16
REMARK                            x       y       z     vdW  Elec       q    Type
REMARK                         _______ _______ _______ _____ _____    ______ ____
ROOT
ATOM      1  N   UNL     1       2.084   6.548  19.231  0.00  0.00    +0.000 N 
ATOM      2  C   UNL     1       2.000   5.818  20.493  0.00  0.00    +0.000 C 
ATOM      3  C   UNL     1       3.205   4.890  20.561  0.00  0.00    +0.000 C 
ATOM      4  C   UNL     1       3.241   3.962  19.353  0.00  0.00    +0.000 C 
ATOM      5  C   UNL     1       3.164   4.699  17.989  0.00  0.00    +0.000 C 
ATOM      6  C   UNL     1       1.983   5.712  18.018  0.00  0.00    +0.000 C 
ATOM      7  C   UNL     1       4.426   5.514  17.641  0.00  0.00    +0.000 C 
ATOM      8  N   UNL     1       5.624   4.623  17.604  0.00  0.00    +0.000 NA
ATOM      9  C   UNL     1       5.415   3.551  16.576  0.00  0.00    +0.000 C 
ATOM     10  C   UNL     1       4.069   2.832  16.782  0.00  0.00    +0.000 C 
ATOM     11  O   UNL     1       2.952   3.730  16.931  0.00  0.00    +0.000 OA
ENDROOT
BRANCH   1  17
ATOM     12  C   UNL     1       0.314  10.610  21.420  0.00  0.00    +0.000 C 
ATOM     13  C   UNL     1       0.960   9.959  20.234  0.00  0.00    +0.000 A 
ATOM     14  C   UNL     1       1.283  10.684  19.089  0.00  0.00    +0.000 A 
ATOM     15  C   UNL     1       1.851  10.036  17.996  0.00  0.00    +0.000 A 
ATOM     16  C   UNL     1       2.085   8.657  18.040  0.00  0.00    +0.000 A 
ATOM     17  C   UNL     1       1.784   7.898  19.179  0.00  0.00    +0.000 A 
ATOM     18  C   UNL     1       1.231   8.582  20.271  0.00  0.00    +0.000 A 
ENDBRANCH   1  17
BRANCH   8  19
ATOM     19  S   UNL     1       7.099   5.465  17.431  0.00  0.00    +0.000 S 
ATOM     20  C   UNL     1       7.555   5.776  19.130  0.00  0.00    +0.000 C 
ATOM     21  O   UNL     1       8.059   4.541  16.870  0.00  0.00    +0.000 OA
ATOM     22  O   UNL     1       6.811   6.723  16.784  0.00  0.00    +0.000 OA
ENDBRANCH   8  19
TORSDOF 2
ENDMDL
MODEL 9
REMARK VINA RESULT:      -6.6      1.167      1.841
REMARK  Name = 
REMARK  4 active torsions:
REMARK  status: ('A' for Active; 'I' for Inactive)
REMARK    1  A    between atoms: C_1  and  C_2
REMARK    2  A    between atoms: C_6  and  N_7
REMARK    3  A    between atoms: N_14  and  S_15
REMARK    4  A    between atoms: S_15  and  C_16
REMARK                            x       y       z     vdW  Elec       q    Type
REMARK                         _______ _______ _______ _____ _____    ______ ____
ROOT
ATOM      1  N   UNL     1       6.044   4.687  14.760  0.00  0.00    +0.000 N 
ATOM      2  C   UNL     1       7.418   4.947  15.180  0.00  0.00    +0.000 C 
ATOM      3  C   UNL     1       7.488   4.697  16.681  0.00  0.00    +0.000 C 
ATOM      4  C   UNL     1       6.478   5.565  17.421  0.00  0.00    +0.000 C 
ATOM      5  C   UNL     1       5.025   5.438  16.888  0.00  0.00    +0.000 C 
ATOM      6  C   UNL     1       5.031   5.593  15.339  0.00  0.00    +0.000 C 
ATOM      7  C   UNL     1       4.362   4.078  17.185  0.00  0.00    +0.000 C 
ATOM      8  N   UNL     1       4.324   3.832  18.657  0.00  0.00    +0.000 NA
ATOM      9  C   UNL     1       3.549   4.929  19.325  0.00  0.00    +0.000 C 
ATOM     10  C   UNL     1       4.069   6.316  18.906  0.00  0.00    +0.000 C 
ATOM     11  O   UNL     1       4.204   6.475  17.480  0.00  0.00    +0.000 OA
ENDROOT
BRANCH   1  17
ATOM     12  C   UNL     1       7.629   1.843  11.041  0.00  0.00    +0.000 C 
ATOM     13  C   UNL     1       6.508   2.558  11.734  0.00  0.00    +0.000 A 
ATOM     14  C   UNL     1       5.209   2.541  11.229  0.00  0.00    +0.000 A 
ATOM     15  C   UNL     1       4.202   3.245  11.883  0.00  0.00    +0.000 A 
ATOM     16  C   UNL     1       4.494   3.980  13.037  0.00  0.00    +0.000 A 
ATOM     17  C   UNL     1       5.787   4.010  13.580  0.00  0.00    +0.000 A 
ATOM     18  C   UNL     1       6.775   3.276  12.911  0.00  0.00    +0.000 A 
ENDBRANCH   1  17
BRANCH   8  19
ATOM     19  S   UNL     1       3.796   2.264  19.077  0.00  0.00    +0.000 S 
ATOM     20  C   UNL     1       2.342   2.606  20.055  0.00  0.00    +0.000 C 
ATOM     21  O   UNL     1       3.374   1.610  17.858  0.00  0.00    +0.000 OA
ATOM     22  O   UNL     1       4.805   1.675  19.926  0.00  0.00    +0.000 OA
ENDBRANCH   8  19
TORSDOF 2
ENDMDL
