MODEL 1
REMARK VINA RESULT:      -9.6      0.000      0.000
REMARK  Name = 
REMARK  6 active torsions:
REMARK  status: ('A' for Active; 'I' for Inactive)
REMARK    1  A    between atoms: C_2  and  C_3
REMARK    2  A    between atoms: C_4  and  C_5
REMARK    3  A    between atoms: C_9  and  C_10
REMARK    4  A    between atoms: N_18  and  C_19
REMARK    5  A    between atoms: C_19  and  C_20
REMARK    6  A    between atoms: N_27  and  O_28
REMARK                            x       y       z     vdW  Elec       q    Type
REMARK                         _______ _______ _______ _____ _____    ______ ____
ROOT
ATOM      1  C   UNL     1       3.524   6.885  18.471  0.00  0.00    +0.000 A 
ATOM      2  N   UNL     1       3.124   7.941  17.785  0.00  0.00    +0.000 NA
ATOM      3  C   UNL     1       2.127   8.516  18.509  0.00  0.00    +0.000 A 
ATOM      4  C   UNL     1       1.365   9.648  18.203  0.00  0.00    +0.000 A 
ATOM      5  C   UNL     1       0.468  10.122  19.159  0.00  0.00    +0.000 A 
ATOM      6  C   UNL     1       0.353   9.485  20.397  0.00  0.00    +0.000 A 
ATOM      7  C   UNL     1       1.057   8.303  20.686  0.00  0.00    +0.000 A 
ATOM      8  C   UNL     1       1.913   7.815  19.691  0.00  0.00    +0.000 A 
ATOM      9  N   UNL     1       2.643   6.651  19.506  0.00  0.00    +0.000 N 
ENDROOT
BRANCH   1  14
ATOM     10  C   UNL     1       5.686   5.033  16.054  0.00  0.00    +0.000 A 
ATOM     11  C   UNL     1       6.653   4.470  16.883  0.00  0.00    +0.000 A 
ATOM     12  C   UNL     1       6.632   4.721  18.261  0.00  0.00    +0.000 A 
ATOM     13  C   UNL     1       5.626   5.515  18.826  0.00  0.00    +0.000 A 
ATOM     14  C   UNL     1       4.621   6.036  18.013  0.00  0.00    +0.000 A 
ATOM     15  C   UNL     1       4.672   5.792  16.638  0.00  0.00    +0.000 A 
BRANCH  10  17
ATOM     16  C   UNL     1       6.421   3.849  14.037  0.00  0.00    +0.000 C 
ATOM     17  C   UNL     1       5.644   4.786  14.612  0.00  0.00    +0.000 C 
BRANCH  16  19
ATOM     18  O   UNL     1       5.913   2.842  11.947  0.00  0.00    +0.000 OA
ATOM     19  C   UNL     1       6.502   3.718  12.566  0.00  0.00    +0.000 C 
ATOM     20  N   UNL     1       7.217   4.690  11.916  0.00  0.00    +0.000 N 
ATOM     21  H   UNL     1       7.443   4.500  10.944  0.00  0.00    +0.000 HD
BRANCH  20  22
ATOM     22  O   UNL     1       8.113   5.515  12.619  0.00  0.00    +0.000 OA
ATOM     23  H   UNL     1       7.556   6.289  12.833  0.00  0.00    +0.000 HD
ENDBRANCH  20  22
ENDBRANCH  16  19
ENDBRANCH  10  17
ENDBRANCH   1  14
BRANCH   9  24
ATOM     24  C   UNL     1       2.442   5.392  20.191  0.00  0.00    +0.000 C 
BRANCH  24  25
ATOM     25  C   UNL     1       1.378   4.400  19.633  0.00  0.00    +0.000 C 
ATOM     26  C   UNL     1       1.185   3.045  20.354  0.00  0.00    +0.000 C 
ATOM     27  C   UNL     1       1.907   1.835  19.743  0.00  0.00    +0.000 C 
ATOM     28  N   UNL     1       1.860   1.796  18.283  0.00  0.00    +0.000 NA
ATOM     29  C   UNL     1       2.379   3.040  17.725  0.00  0.00    +0.000 C 
ATOM     30  C   UNL     1       1.475   4.203  18.114  0.00  0.00    +0.000 C 
ATOM     31  H   UNL     1       0.901   1.655  17.969  0.00  0.00    +0.000 HD
ENDBRANCH  24  25
ENDBRANCH   9  24
TORSDOF 6
ENDMDL
MODEL 2
REMARK VINA RESULT:      -9.3      0.816      1.156
REMARK  Name = 
REMARK  6 active torsions:
REMARK  status: ('A' for Active; 'I' for Inactive)
REMARK    1  A    between atoms: C_2  and  C_3
REMARK    2  A    between atoms: C_4  and  C_5
REMARK    3  A    between atoms: C_9  and  C_10
REMARK    4  A    between atoms: N_18  and  C_19
REMARK    5  A    between atoms: C_19  and  C_20
REMARK    6  A    between atoms: N_27  and  O_28
REMARK                            x       y       z     vdW  Elec       q    Type
REMARK                         _______ _______ _______ _____ _____    ______ ____
ROOT
ATOM      1  C   UNL     1       3.847   6.861  18.173  0.00  0.00    +0.000 A 
ATOM      2  N   UNL     1       3.450   7.906  17.467  0.00  0.00    +0.000 NA
ATOM      3  C   UNL     1       2.429   8.475  18.163  0.00  0.00    +0.000 A 
ATOM      4  C   UNL     1       1.660   9.595  17.829  0.00  0.00    +0.000 A 
ATOM      5  C   UNL     1       0.736  10.066  18.759  0.00  0.00    +0.000 A 
ATOM      6  C   UNL     1       0.601   9.440  20.001  0.00  0.00    +0.000 A 
ATOM      7  C   UNL     1       1.313   8.270  20.317  0.00  0.00    +0.000 A 
ATOM      8  C   UNL     1       2.198   7.783  19.347  0.00  0.00    +0.000 A 
ATOM      9  N   UNL     1       2.946   6.627  19.190  0.00  0.00    +0.000 N 
ENDROOT
BRANCH   1  14
ATOM     10  C   UNL     1       6.172   5.131  15.818  0.00  0.00    +0.000 A 
ATOM     11  C   UNL     1       7.058   4.493  16.682  0.00  0.00    +0.000 A 
ATOM     12  C   UNL     1       6.928   4.651  18.068  0.00  0.00    +0.000 A 
ATOM     13  C   UNL     1       5.891   5.427  18.603  0.00  0.00    +0.000 A 
ATOM     14  C   UNL     1       4.965   6.023  17.749  0.00  0.00    +0.000 A 
ATOM     15  C   UNL     1       5.125   5.870  16.369  0.00  0.00    +0.000 A 
BRANCH  10  17
ATOM     16  C   UNL     1       6.054   3.788  13.770  0.00  0.00    +0.000 C 
ATOM     17  C   UNL     1       6.244   4.981  14.364  0.00  0.00    +0.000 C 
BRANCH  16  19
ATOM     18  O   UNL     1       7.396   3.769  11.811  0.00  0.00    +0.000 OA
ATOM     19  C   UNL     1       6.296   3.606  12.322  0.00  0.00    +0.000 C 
ATOM     20  N   UNL     1       5.229   3.162  11.587  0.00  0.00    +0.000 N 
ATOM     21  H   UNL     1       5.327   3.226  10.578  0.00  0.00    +0.000 HD
BRANCH  20  22
ATOM     22  O   UNL     1       3.920   3.245  12.096  0.00  0.00    +0.000 OA
ATOM     23  H   UNL     1       3.520   3.931  11.526  0.00  0.00    +0.000 HD
ENDBRANCH  20  22
ENDBRANCH  16  19
ENDBRANCH  10  17
ENDBRANCH   1  14
BRANCH   9  24
ATOM     24  C   UNL     1       2.745   5.372  19.883  0.00  0.00    +0.000 C 
BRANCH  24  25
ATOM     25  C   UNL     1       1.646   4.399  19.362  0.00  0.00    +0.000 C 
ATOM     26  C   UNL     1       1.470   3.037  20.074  0.00  0.00    +0.000 C 
ATOM     27  C   UNL     1       2.150   1.827  19.417  0.00  0.00    +0.000 C 
ATOM     28  N   UNL     1       2.036   1.807  17.960  0.00  0.00    +0.000 NA
ATOM     29  C   UNL     1       2.544   3.053  17.394  0.00  0.00    +0.000 C 
ATOM     30  C   UNL     1       1.671   4.220  17.838  0.00  0.00    +0.000 C 
ATOM     31  H   UNL     1       1.062   1.680  17.689  0.00  0.00    +0.000 HD
ENDBRANCH  24  25
ENDBRANCH   9  24
TORSDOF 6
ENDMDL
MODEL 3
REMARK VINA RESULT:      -9.2      1.198      1.230
REMARK  Name = 
REMARK  6 active torsions:
REMARK  status: ('A' for Active; 'I' for Inactive)
REMARK    1  A    between atoms: C_2  and  C_3
REMARK    2  A    between atoms: C_4  and  C_5
REMARK    3  A    between atoms: C_9  and  C_10
REMARK    4  A    between atoms: N_18  and  C_19
REMARK    5  A    between atoms: C_19  and  C_20
REMARK    6  A    between atoms: N_27  and  O_28
REMARK                            x       y       z     vdW  Elec       q    Type
REMARK                         _______ _______ _______ _____ _____    ______ ____
ROOT
ATOM      1  C   UNL     1       3.955   6.992  17.779  0.00  0.00    +0.000 A 
ATOM      2  N   UNL     1       3.486   8.073  17.181  0.00  0.00    +0.000 NA
ATOM      3  C   UNL     1       2.487   8.548  17.972  0.00  0.00    +0.000 A 
ATOM      4  C   UNL     1       1.664   9.661  17.768  0.00  0.00    +0.000 A 
ATOM      5  C   UNL     1       0.776  10.024  18.780  0.00  0.00    +0.000 A 
ATOM      6  C   UNL     1       0.730   9.298  19.972  0.00  0.00    +0.000 A 
ATOM      7  C   UNL     1       1.496   8.133  20.157  0.00  0.00    +0.000 A 
ATOM      8  C   UNL     1       2.342   7.757  19.107  0.00  0.00    +0.000 A 
ATOM      9  N   UNL     1       3.118   6.646  18.819  0.00  0.00    +0.000 N 
ENDROOT
BRANCH   1  14
ATOM     10  C   UNL     1       5.754   4.639  15.505  0.00  0.00    +0.000 A 
ATOM     11  C   UNL     1       7.060   4.696  15.983  0.00  0.00    +0.000 A 
ATOM     12  C   UNL     1       7.384   5.546  17.049  0.00  0.00    +0.000 A 
ATOM     13  C   UNL     1       6.397   6.324  17.666  0.00  0.00    +0.000 A 
ATOM     14  C   UNL     1       5.075   6.232  17.232  0.00  0.00    +0.000 A 
ATOM     15  C   UNL     1       4.776   5.394  16.154  0.00  0.00    +0.000 A 
BRANCH  10  17
ATOM     16  C   UNL     1       5.812   3.929  13.160  0.00  0.00    +0.000 C 
ATOM     17  C   UNL     1       5.353   3.752  14.413  0.00  0.00    +0.000 C 
BRANCH  16  19
ATOM     18  O   UNL     1       4.099   3.185  11.692  0.00  0.00    +0.000 OA
ATOM     19  C   UNL     1       5.275   3.141  12.028  0.00  0.00    +0.000 C 
ATOM     20  N   UNL     1       6.190   2.411  11.318  0.00  0.00    +0.000 N 
ATOM     21  H   UNL     1       5.808   1.722  10.677  0.00  0.00    +0.000 HD
BRANCH  20  22
ATOM     22  O   UNL     1       7.460   2.132  11.854  0.00  0.00    +0.000 OA
ATOM     23  H   UNL     1       7.355   1.212  12.166  0.00  0.00    +0.000 HD
ENDBRANCH  20  22
ENDBRANCH  16  19
ENDBRANCH  10  17
ENDBRANCH   1  14
BRANCH   9  24
ATOM     24  C   UNL     1       2.997   5.334  19.419  0.00  0.00    +0.000 C 
BRANCH  24  25
ATOM     25  C   UNL     1       1.738   4.477  19.090  0.00  0.00    +0.000 C 
ATOM     26  C   UNL     1       1.190   3.526  20.181  0.00  0.00    +0.000 C 
ATOM     27  C   UNL     1       1.606   2.052  20.076  0.00  0.00    +0.000 C 
ATOM     28  N   UNL     1       1.599   1.532  18.710  0.00  0.00    +0.000 NA
ATOM     29  C   UNL     1       2.429   2.364  17.846  0.00  0.00    +0.000 C 
ATOM     30  C   UNL     1       1.831   3.761  17.737  0.00  0.00    +0.000 C 
ATOM     31  H   UNL     1       0.645   1.512  18.352  0.00  0.00    +0.000 HD
ENDBRANCH  24  25
ENDBRANCH   9  24
TORSDOF 6
ENDMDL
MODEL 4
REMARK VINA RESULT:      -8.8      3.848      7.103
REMARK  Name = 
REMARK  6 active torsions:
REMARK  status: ('A' for Active; 'I' for Inactive)
REMARK    1  A    between atoms: C_2  and  C_3
REMARK    2  A    between atoms: C_4  and  C_5
REMARK    3  A    between atoms: C_9  and  C_10
REMARK    4  A    between atoms: N_18  and  C_19
REMARK    5  A    between atoms: C_19  and  C_20
REMARK    6  A    between atoms: N_27  and  O_28
REMARK                            x       y       z     vdW  Elec       q    Type
REMARK                         _______ _______ _______ _____ _____    ______ ____
ROOT
ATOM      1  C   UNL     1       3.535   6.502  18.046  0.00  0.00    +0.000 A 
ATOM      2  N   UNL     1       4.071   7.077  16.984  0.00  0.00    +0.000 NA
ATOM      3  C   UNL     1       4.806   6.119  16.358  0.00  0.00    +0.000 A 
ATOM      4  C   UNL     1       5.582   6.231  15.199  0.00  0.00    +0.000 A 
ATOM      5  C   UNL     1       6.161   5.077  14.675  0.00  0.00    +0.000 A 
ATOM      6  C   UNL     1       5.950   3.840  15.288  0.00  0.00    +0.000 A 
ATOM      7  C   UNL     1       5.237   3.727  16.494  0.00  0.00    +0.000 A 
ATOM      8  C   UNL     1       4.709   4.907  17.032  0.00  0.00    +0.000 A 
ATOM      9  N   UNL     1       4.102   5.257  18.228  0.00  0.00    +0.000 N 
ENDROOT
BRANCH   1  14
ATOM     10  C   UNL     1       1.254   9.222  19.204  0.00  0.00    +0.000 A 
ATOM     11  C   UNL     1       0.873   8.780  20.469  0.00  0.00    +0.000 A 
ATOM     12  C   UNL     1       1.335   7.549  20.954  0.00  0.00    +0.000 A 
ATOM     13  C   UNL     1       2.207   6.763  20.188  0.00  0.00    +0.000 A 
ATOM     14  C   UNL     1       2.639   7.223  18.946  0.00  0.00    +0.000 A 
ATOM     15  C   UNL     1       2.150   8.443  18.471  0.00  0.00    +0.000 A 
BRANCH  10  17
ATOM     16  C   UNL     1      -0.403  11.004  18.910  0.00  0.00    +0.000 C 
ATOM     17  C   UNL     1       0.823  10.509  18.658  0.00  0.00    +0.000 C 
BRANCH  16  19
ATOM     18  O   UNL     1      -0.701  13.346  18.649  0.00  0.00    +0.000 OA
ATOM     19  C   UNL     1      -0.896  12.216  18.220  0.00  0.00    +0.000 C 
ATOM     20  N   UNL     1      -1.523  12.010  17.019  0.00  0.00    +0.000 N 
ATOM     21  H   UNL     1      -2.034  12.804  16.643  0.00  0.00    +0.000 HD
BRANCH  20  22
ATOM     22  O   UNL     1      -1.996  10.734  16.665  0.00  0.00    +0.000 OA
ATOM     23  H   UNL     1      -2.032  10.791  15.689  0.00  0.00    +0.000 HD
ENDBRANCH  20  22
ENDBRANCH  16  19
ENDBRANCH  10  17
ENDBRANCH   1  14
BRANCH   9  24
ATOM     24  C   UNL     1       4.150   4.512  19.468  0.00  0.00    +0.000 C 
BRANCH  24  25
ATOM     25  C   UNL     1       3.319   3.199  19.581  0.00  0.00    +0.000 C 
ATOM     26  C   UNL     1       2.002   3.089  18.776  0.00  0.00    +0.000 C 
ATOM     27  C   UNL     1       0.705   3.388  19.542  0.00  0.00    +0.000 C 
ATOM     28  N   UNL     1       0.677   2.834  20.894  0.00  0.00    +0.000 NA
ATOM     29  C   UNL     1       1.838   3.288  21.652  0.00  0.00    +0.000 C 
ATOM     30  C   UNL     1       3.114   2.737  21.030  0.00  0.00    +0.000 C 
ATOM     31  H   UNL     1       0.672   1.816  20.852  0.00  0.00    +0.000 HD
ENDBRANCH  24  25
ENDBRANCH   9  24
TORSDOF 6
ENDMDL
MODEL 5
REMARK VINA RESULT:      -8.8      3.838      6.999
REMARK  Name = 
REMARK  6 active torsions:
REMARK  status: ('A' for Active; 'I' for Inactive)
REMARK    1  A    between atoms: C_2  and  C_3
REMARK    2  A    between atoms: C_4  and  C_5
REMARK    3  A    between atoms: C_9  and  C_10
REMARK    4  A    between atoms: N_18  and  C_19
REMARK    5  A    between atoms: C_19  and  C_20
REMARK    6  A    between atoms: N_27  and  O_28
REMARK                            x       y       z     vdW  Elec       q    Type
REMARK                         _______ _______ _______ _____ _____    ______ ____
ROOT
ATOM      1  C   UNL     1       6.908   5.045  15.699  0.00  0.00    +0.000 A 
ATOM      2  N   UNL     1       7.667   5.017  14.617  0.00  0.00    +0.000 NA
ATOM      3  C   UNL     1       6.924   4.432  13.640  0.00  0.00    +0.000 A 
ATOM      4  C   UNL     1       7.282   4.153  12.317  0.00  0.00    +0.000 A 
ATOM      5  C   UNL     1       6.308   3.646  11.459  0.00  0.00    +0.000 A 
ATOM      6  C   UNL     1       5.003   3.444  11.913  0.00  0.00    +0.000 A 
ATOM      7  C   UNL     1       4.650   3.647  13.259  0.00  0.00    +0.000 A 
ATOM      8  C   UNL     1       5.658   4.106  14.117  0.00  0.00    +0.000 A 
ATOM      9  N   UNL     1       5.780   4.281  15.486  0.00  0.00    +0.000 N 
ENDROOT
BRANCH   1  14
ATOM     10  C   UNL     1       7.941   7.747  18.060  0.00  0.00    +0.000 A 
ATOM     11  C   UNL     1       8.203   7.042  19.232  0.00  0.00    +0.000 A 
ATOM     12  C   UNL     1       8.009   5.655  19.277  0.00  0.00    +0.000 A 
ATOM     13  C   UNL     1       7.577   4.957  18.141  0.00  0.00    +0.000 A 
ATOM     14  C   UNL     1       7.367   5.646  16.948  0.00  0.00    +0.000 A 
ATOM     15  C   UNL     1       7.546   7.032  16.929  0.00  0.00    +0.000 A 
BRANCH  10  17
ATOM     16  C   UNL     1       9.063   9.830  18.702  0.00  0.00    +0.000 C 
ATOM     17  C   UNL     1       8.150   9.191  17.947  0.00  0.00    +0.000 C 
BRANCH  16  19
ATOM     18  O   UNL     1       9.026  11.982  17.697  0.00  0.00    +0.000 OA
ATOM     19  C   UNL     1       9.153  11.307  18.710  0.00  0.00    +0.000 C 
ATOM     20  N   UNL     1       9.310  11.892  19.939  0.00  0.00    +0.000 N 
ATOM     21  H   UNL     1       9.570  12.874  19.934  0.00  0.00    +0.000 HD
BRANCH  20  22
ATOM     22  O   UNL     1       9.735  11.136  21.046  0.00  0.00    +0.000 OA
ATOM     23  H   UNL     1       9.003  10.496  21.153  0.00  0.00    +0.000 HD
ENDBRANCH  20  22
ENDBRANCH  16  19
ENDBRANCH  10  17
ENDBRANCH   1  14
BRANCH   9  24
ATOM     24  C   UNL     1       4.947   3.682  16.507  0.00  0.00    +0.000 C 
BRANCH  24  25
ATOM     25  C   UNL     1       3.717   4.483  17.031  0.00  0.00    +0.000 C 
ATOM     26  C   UNL     1       3.969   5.692  17.964  0.00  0.00    +0.000 C 
ATOM     27  C   UNL     1       3.818   5.438  19.470  0.00  0.00    +0.000 C 
ATOM     28  N   UNL     1       2.677   4.590  19.814  0.00  0.00    +0.000 NA
ATOM     29  C   UNL     1       2.745   3.329  19.084  0.00  0.00    +0.000 C 
ATOM     30  C   UNL     1       2.605   3.585  17.588  0.00  0.00    +0.000 C 
ATOM     31  H   UNL     1       1.807   5.070  19.588  0.00  0.00    +0.000 HD
ENDBRANCH  24  25
ENDBRANCH   9  24
TORSDOF 6
ENDMDL
MODEL 6
REMARK VINA RESULT:      -8.8      3.887      7.131
REMARK  Name = 
REMARK  6 active torsions:
REMARK  status: ('A' for Active; 'I' for Inactive)
REMARK    1  A    between atoms: C_2  and  C_3
REMARK    2  A    between atoms: C_4  and  C_5
REMARK    3  A    between atoms: C_9  and  C_10
REMARK    4  A    between atoms: N_18  and  C_19
REMARK    5  A    between atoms: C_19  and  C_20
REMARK    6  A    between atoms: N_27  and  O_28
REMARK                            x       y       z     vdW  Elec       q    Type
REMARK                         _______ _______ _______ _____ _____    ______ ____
ROOT
ATOM      1  C   UNL     1       3.409   6.590  18.364  0.00  0.00    +0.000 A 
ATOM      2  N   UNL     1       4.706   6.838  18.329  0.00  0.00    +0.000 NA
ATOM      3  C   UNL     1       5.246   5.945  17.457  0.00  0.00    +0.000 A 
ATOM      4  C   UNL     1       6.586   5.783  17.088  0.00  0.00    +0.000 A 
ATOM      5  C   UNL     1       6.890   4.868  16.082  0.00  0.00    +0.000 A 
ATOM      6  C   UNL     1       5.873   4.148  15.450  0.00  0.00    +0.000 A 
ATOM      7  C   UNL     1       4.534   4.246  15.865  0.00  0.00    +0.000 A 
ATOM      8  C   UNL     1       4.257   5.132  16.914  0.00  0.00    +0.000 A 
ATOM      9  N   UNL     1       3.151   5.408  17.702  0.00  0.00    +0.000 N 
ENDROOT
BRANCH   1  14
ATOM     10  C   UNL     1       1.165   9.442  19.245  0.00  0.00    +0.000 A 
ATOM     11  C   UNL     1       0.700   9.083  20.508  0.00  0.00    +0.000 A 
ATOM     12  C   UNL     1       1.092   7.867  21.083  0.00  0.00    +0.000 A 
ATOM     13  C   UNL     1       1.976   7.012  20.411  0.00  0.00    +0.000 A 
ATOM     14  C   UNL     1       2.491   7.389  19.172  0.00  0.00    +0.000 A 
ATOM     15  C   UNL     1       2.071   8.596  18.606  0.00  0.00    +0.000 A 
BRANCH  10  17
ATOM     16  C   UNL     1      -0.356  11.329  18.874  0.00  0.00    +0.000 C 
ATOM     17  C   UNL     1       0.809  10.710  18.607  0.00  0.00    +0.000 C 
BRANCH  16  19
ATOM     18  O   UNL     1      -0.469  13.656  18.413  0.00  0.00    +0.000 OA
ATOM     19  C   UNL     1      -0.788  12.515  18.103  0.00  0.00    +0.000 C 
ATOM     20  N   UNL     1      -1.507  12.262  16.965  0.00  0.00    +0.000 N 
ATOM     21  H   UNL     1      -1.972  13.063  16.546  0.00  0.00    +0.000 HD
BRANCH  20  22
ATOM     22  O   UNL     1      -2.109  11.008  16.759  0.00  0.00    +0.000 OA
ATOM     23  H   UNL     1      -1.432  10.538  16.233  0.00  0.00    +0.000 HD
ENDBRANCH  20  22
ENDBRANCH  16  19
ENDBRANCH  10  17
ENDBRANCH   1  14
BRANCH   9  24
ATOM     24  C   UNL     1       1.993   4.559  17.886  0.00  0.00    +0.000 C 
BRANCH  24  25
ATOM     25  C   UNL     1       2.091   3.368  18.885  0.00  0.00    +0.000 C 
ATOM     26  C   UNL     1       3.096   3.472  20.058  0.00  0.00    +0.000 C 
ATOM     27  C   UNL     1       4.449   2.773  19.864  0.00  0.00    +0.000 C 
ATOM     28  N   UNL     1       4.351   1.466  19.219  0.00  0.00    +0.000 NA
ATOM     29  C   UNL     1       3.644   1.579  17.948  0.00  0.00    +0.000 C 
ATOM     30  C   UNL     1       2.201   2.005  18.190  0.00  0.00    +0.000 C 
ATOM     31  H   UNL     1       3.858   0.814  19.828  0.00  0.00    +0.000 HD
ENDBRANCH  24  25
ENDBRANCH   9  24
TORSDOF 6
ENDMDL
MODEL 7
REMARK VINA RESULT:      -8.7      3.845      7.074
REMARK  Name = 
REMARK  6 active torsions:
REMARK  status: ('A' for Active; 'I' for Inactive)
REMARK    1  A    between atoms: C_2  and  C_3
REMARK    2  A    between atoms: C_4  and  C_5
REMARK    3  A    between atoms: C_9  and  C_10
REMARK    4  A    between atoms: N_18  and  C_19
REMARK    5  A    between atoms: C_19  and  C_20
REMARK    6  A    between atoms: N_27  and  O_28
REMARK                            x       y       z     vdW  Elec       q    Type
REMARK                         _______ _______ _______ _____ _____    ______ ____
ROOT
ATOM      1  C   UNL     1       3.308   6.751  18.316  0.00  0.00    +0.000 A 
ATOM      2  N   UNL     1       3.788   7.287  17.207  0.00  0.00    +0.000 NA
ATOM      3  C   UNL     1       4.546   6.326  16.613  0.00  0.00    +0.000 A 
ATOM      4  C   UNL     1       5.283   6.404  15.426  0.00  0.00    +0.000 A 
ATOM      5  C   UNL     1       5.895   5.246  14.950  0.00  0.00    +0.000 A 
ATOM      6  C   UNL     1       5.755   4.038  15.637  0.00  0.00    +0.000 A 
ATOM      7  C   UNL     1       5.083   3.965  16.869  0.00  0.00    +0.000 A 
ATOM      8  C   UNL     1       4.520   5.151  17.357  0.00  0.00    +0.000 A 
ATOM      9  N   UNL     1       3.932   5.544  18.549  0.00  0.00    +0.000 N 
ENDROOT
BRANCH   1  14
ATOM     10  C   UNL     1       1.062   9.512  19.445  0.00  0.00    +0.000 A 
ATOM     11  C   UNL     1       0.642   9.069  20.697  0.00  0.00    +0.000 A 
ATOM     12  C   UNL     1       1.066   7.824  21.181  0.00  0.00    +0.000 A 
ATOM     13  C   UNL     1       1.937   7.025  20.430  0.00  0.00    +0.000 A 
ATOM     14  C   UNL     1       2.408   7.485  19.201  0.00  0.00    +0.000 A 
ATOM     15  C   UNL     1       1.957   8.720  18.726  0.00  0.00    +0.000 A 
BRANCH  10  17
ATOM     16  C   UNL     1      -0.614  11.209  18.878  0.00  0.00    +0.000 C 
ATOM     17  C   UNL     1       0.672  10.813  18.900  0.00  0.00    +0.000 C 
BRANCH  16  19
ATOM     18  O   UNL     1      -0.831  13.561  18.634  0.00  0.00    +0.000 OA
ATOM     19  C   UNL     1      -1.024  12.444  18.174  0.00  0.00    +0.000 C 
ATOM     20  N   UNL     1      -1.568  12.272  16.928  0.00  0.00    +0.000 N 
ATOM     21  H   UNL     1      -2.029  13.084  16.529  0.00  0.00    +0.000 HD
BRANCH  20  22
ATOM     22  O   UNL     1      -2.047  11.014  16.521  0.00  0.00    +0.000 OA
ATOM     23  H   UNL     1      -1.638  10.913  15.638  0.00  0.00    +0.000 HD
ENDBRANCH  20  22
ENDBRANCH  16  19
ENDBRANCH  10  17
ENDBRANCH   1  14
BRANCH   9  24
ATOM     24  C   UNL     1       4.048   4.873  19.826  0.00  0.00    +0.000 C 
BRANCH  24  25
ATOM     25  C   UNL     1       3.163   3.619  20.093  0.00  0.00    +0.000 C 
ATOM     26  C   UNL     1       3.768   2.220  19.825  0.00  0.00    +0.000 C 
ATOM     27  C   UNL     1       3.416   1.568  18.481  0.00  0.00    +0.000 C 
ATOM     28  N   UNL     1       2.020   1.748  18.086  0.00  0.00    +0.000 NA
ATOM     29  C   UNL     1       1.675   3.165  18.075  0.00  0.00    +0.000 C 
ATOM     30  C   UNL     1       1.758   3.732  19.487  0.00  0.00    +0.000 C 
ATOM     31  H   UNL     1       1.409   1.251  18.733  0.00  0.00    +0.000 HD
ENDBRANCH  24  25
ENDBRANCH   9  24
TORSDOF 6
ENDMDL
MODEL 8
REMARK VINA RESULT:      -8.7      3.852      7.138
REMARK  Name = 
REMARK  6 active torsions:
REMARK  status: ('A' for Active; 'I' for Inactive)
REMARK    1  A    between atoms: C_2  and  C_3
REMARK    2  A    between atoms: C_4  and  C_5
REMARK    3  A    between atoms: C_9  and  C_10
REMARK    4  A    between atoms: N_18  and  C_19
REMARK    5  A    between atoms: C_19  and  C_20
REMARK    6  A    between atoms: N_27  and  O_28
REMARK                            x       y       z     vdW  Elec       q    Type
REMARK                         _______ _______ _______ _____ _____    ______ ____
ROOT
ATOM      1  C   UNL     1       3.311   6.342  18.657  0.00  0.00    +0.000 A 
ATOM      2  N   UNL     1       4.620   6.400  18.827  0.00  0.00    +0.000 NA
ATOM      3  C   UNL     1       5.162   5.521  17.943  0.00  0.00    +0.000 A 
ATOM      4  C   UNL     1       6.509   5.200  17.743  0.00  0.00    +0.000 A 
ATOM      5  C   UNL     1       6.839   4.346  16.693  0.00  0.00    +0.000 A 
ATOM      6  C   UNL     1       5.843   3.842  15.853  0.00  0.00    +0.000 A 
ATOM      7  C   UNL     1       4.480   4.096  16.090  0.00  0.00    +0.000 A 
ATOM      8  C   UNL     1       4.168   4.914  17.183  0.00  0.00    +0.000 A 
ATOM      9  N   UNL     1       3.002   5.275  17.840  0.00  0.00    +0.000 N 
ENDROOT
BRANCH   1  14
ATOM     10  C   UNL     1       1.134   9.284  19.400  0.00  0.00    +0.000 A 
ATOM     11  C   UNL     1       0.620   8.971  20.655  0.00  0.00    +0.000 A 
ATOM     12  C   UNL     1       0.954   7.758  21.271  0.00  0.00    +0.000 A 
ATOM     13  C   UNL     1       1.830   6.859  20.648  0.00  0.00    +0.000 A 
ATOM     14  C   UNL     1       2.395   7.189  19.417  0.00  0.00    +0.000 A 
ATOM     15  C   UNL     1       2.032   8.394  18.809  0.00  0.00    +0.000 A 
BRANCH  10  17
ATOM     16  C   UNL     1      -0.244  11.279  19.038  0.00  0.00    +0.000 C 
ATOM     17  C   UNL     1       0.840  10.546  18.720  0.00  0.00    +0.000 C 
BRANCH  16  19
ATOM     18  O   UNL     1      -0.249  13.593  18.502  0.00  0.00    +0.000 OA
ATOM     19  C   UNL     1      -0.632  12.461  18.237  0.00  0.00    +0.000 C 
ATOM     20  N   UNL     1      -1.387  12.209  17.123  0.00  0.00    +0.000 N 
ATOM     21  H   UNL     1      -1.820  13.018  16.687  0.00  0.00    +0.000 HD
BRANCH  20  22
ATOM     22  O   UNL     1      -2.057  10.981  16.970  0.00  0.00    +0.000 OA
ATOM     23  H   UNL     1      -2.180  10.697  17.898  0.00  0.00    +0.000 HD
ENDBRANCH  20  22
ENDBRANCH  16  19
ENDBRANCH  10  17
ENDBRANCH   1  14
BRANCH   9  24
ATOM     24  C   UNL     1       1.728   4.591  17.769  0.00  0.00    +0.000 C 
BRANCH  24  25
ATOM     25  C   UNL     1       1.516   3.317  18.639  0.00  0.00    +0.000 C 
ATOM     26  C   UNL     1       0.847   3.475  20.025  0.00  0.00    +0.000 C 
ATOM     27  C   UNL     1       1.787   3.540  21.237  0.00  0.00    +0.000 C 
ATOM     28  N   UNL     1       2.903   2.599  21.168  0.00  0.00    +0.000 NA
ATOM     29  C   UNL     1       3.648   2.785  19.928  0.00  0.00    +0.000 C 
ATOM     30  C   UNL     1       2.768   2.436  18.734  0.00  0.00    +0.000 C 
ATOM     31  H   UNL     1       2.554   1.642  21.218  0.00  0.00    +0.000 HD
ENDBRANCH  24  25
ENDBRANCH   9  24
TORSDOF 6
ENDMDL
MODEL 9
REMARK VINA RESULT:      -8.6      1.879      4.478
REMARK  Name = 
REMARK  6 active torsions:
REMARK  status: ('A' for Active; 'I' for Inactive)
REMARK    1  A    between atoms: C_2  and  C_3
REMARK    2  A    between atoms: C_4  and  C_5
REMARK    3  A    between atoms: C_9  and  C_10
REMARK    4  A    between atoms: N_18  and  C_19
REMARK    5  A    between atoms: C_19  and  C_20
REMARK    6  A    between atoms: N_27  and  O_28
REMARK                            x       y       z     vdW  Elec       q    Type
REMARK                         _______ _______ _______ _____ _____    ______ ____
ROOT
ATOM      1  C   UNL     1       4.213   4.333  18.218  0.00  0.00    +0.000 A 
ATOM      2  N   UNL     1       4.543   3.501  19.189  0.00  0.00    +0.000 NA
ATOM      3  C   UNL     1       3.419   3.308  19.930  0.00  0.00    +0.000 A 
ATOM      4  C   UNL     1       3.252   2.528  21.079  0.00  0.00    +0.000 A 
ATOM      5  C   UNL     1       1.969   2.391  21.607  0.00  0.00    +0.000 A 
ATOM      6  C   UNL     1       0.880   3.006  20.985  0.00  0.00    +0.000 A 
ATOM      7  C   UNL     1       1.047   3.854  19.876  0.00  0.00    +0.000 A 
ATOM      8  C   UNL     1       2.351   4.020  19.394  0.00  0.00    +0.000 A 
ATOM      9  N   UNL     1       2.958   4.849  18.464  0.00  0.00    +0.000 N 
ENDROOT
BRANCH   1  14
ATOM     10  C   UNL     1       5.984   4.289  14.931  0.00  0.00    +0.000 A 
ATOM     11  C   UNL     1       6.881   5.347  15.056  0.00  0.00    +0.000 A 
ATOM     12  C   UNL     1       6.896   6.124  16.222  0.00  0.00    +0.000 A 
ATOM     13  C   UNL     1       6.031   5.832  17.285  0.00  0.00    +0.000 A 
ATOM     14  C   UNL     1       5.169   4.740  17.191  0.00  0.00    +0.000 A 
ATOM     15  C   UNL     1       5.155   3.990  16.012  0.00  0.00    +0.000 A 
BRANCH  10  17
ATOM     16  C   UNL     1       5.153   3.718  12.696  0.00  0.00    +0.000 C 
ATOM     17  C   UNL     1       5.942   3.428  13.748  0.00  0.00    +0.000 C 
BRANCH  16  19
ATOM     18  O   UNL     1       5.659   1.747  11.471  0.00  0.00    +0.000 OA
ATOM     19  C   UNL     1       4.983   2.762  11.580  0.00  0.00    +0.000 C 
ATOM     20  N   UNL     1       3.964   3.035  10.707  0.00  0.00    +0.000 N 
ATOM     21  H   UNL     1       3.968   2.505   9.840  0.00  0.00    +0.000 HD
BRANCH  20  22
ATOM     22  O   UNL     1       3.382   4.314  10.657  0.00  0.00    +0.000 OA
ATOM     23  H   UNL     1       2.911   4.360  11.513  0.00  0.00    +0.000 HD
ENDBRANCH  20  22
ENDBRANCH  16  19
ENDBRANCH  10  17
ENDBRANCH   1  14
BRANCH   9  24
ATOM     24  C   UNL     1       2.422   6.085  17.935  0.00  0.00    +0.000 C 
BRANCH  24  25
ATOM     25  C   UNL     1       2.768   7.419  18.662  0.00  0.00    +0.000 C 
ATOM     26  C   UNL     1       2.174   7.665  20.070  0.00  0.00    +0.000 C 
ATOM     27  C   UNL     1       0.911   8.534  20.139  0.00  0.00    +0.000 C 
ATOM     28  N   UNL     1       0.941   9.691  19.246  0.00  0.00    +0.000 NA
ATOM     29  C   UNL     1       1.199   9.266  17.874  0.00  0.00    +0.000 C 
ATOM     30  C   UNL     1       2.592   8.656  17.772  0.00  0.00    +0.000 C 
ATOM     31  H   UNL     1       1.666  10.341  19.545  0.00  0.00    +0.000 HD
ENDBRANCH  24  25
ENDBRANCH   9  24
TORSDOF 6
ENDMDL
