MODEL 1
REMARK VINA RESULT:      -8.0      0.000      0.000
REMARK  Name = 
REMARK  6 active torsions:
REMARK  status: ('A' for Active; 'I' for Inactive)
REMARK    1  A    between atoms: C_1  and  C_2
REMARK    2  A    between atoms: C_3  and  O_4
REMARK    3  A    between atoms: C_6  and  S_7
REMARK    4  A    between atoms: S_7  and  C_8
REMARK    5  A    between atoms: N_12  and  C_13
REMARK    6  A    between atoms: C_22  and  O_23
REMARK                            x       y       z     vdW  Elec       q    Type
REMARK                         _______ _______ _______ _____ _____    ______ ____
ROOT
ATOM      1  C   UNL     1       6.819   6.105  17.656  0.00  0.00    +0.000 C 
ATOM      2  C   UNL     1       5.609   6.864  17.164  0.00  0.00    +0.000 C 
ATOM      3  C   UNL     1       5.550   6.492  15.709  0.00  0.00    +0.000 C 
ATOM      4  O   UNL     1       4.810   7.091  14.937  0.00  0.00    +0.000 OA
ATOM      5  N   UNL     1       6.384   5.420  15.466  0.00  0.00    +0.000 N 
ATOM      6  C   UNL     1       7.066   5.045  16.614  0.00  0.00    +0.000 C 
ATOM      7  O   UNL     1       7.870   4.132  16.768  0.00  0.00    +0.000 OA
ENDROOT
BRANCH   5   8
ATOM      8  C   UNL     1       6.577   4.818  14.179  0.00  0.00    +0.000 A 
ATOM      9  C   UNL     1       5.737   3.790  13.715  0.00  0.00    +0.000 A 
ATOM     10  C   UNL     1       5.891   3.233  12.437  0.00  0.00    +0.000 A 
ATOM     11  C   UNL     1       6.898   3.685  11.594  0.00  0.00    +0.000 A 
ATOM     12  C   UNL     1       7.749   4.692  12.031  0.00  0.00    +0.000 A 
ATOM     13  C   UNL     1       7.588   5.254  13.305  0.00  0.00    +0.000 A 
ENDBRANCH   5   8
BRANCH   1  14
ATOM     14  S   UNL     1       6.807   5.515  19.376  0.00  0.00    +0.000 S 
BRANCH  14  19
ATOM     15  C   UNL     1       1.460   2.851  19.330  0.00  0.00    +0.000 C 
ATOM     16  C   UNL     1       2.831   3.431  19.399  0.00  0.00    +0.000 A 
ATOM     17  C   UNL     1       4.015   2.775  19.155  0.00  0.00    +0.000 A 
ATOM     18  N   UNL     1       5.227   3.355  19.204  0.00  0.00    +0.000 NA
ATOM     19  C   UNL     1       5.262   4.654  19.500  0.00  0.00    +0.000 A 
ATOM     20  N   UNL     1       4.186   5.400  19.779  0.00  0.00    +0.000 NA
ATOM     21  C   UNL     1       3.016   4.756  19.728  0.00  0.00    +0.000 A 
BRANCH  17  22
ATOM     22  O   UNL     1       4.093   1.463  18.805  0.00  0.00    +0.000 OA
ATOM     23  H   UNL     1       4.951   1.270  18.406  0.00  0.00    +0.000 HD
ENDBRANCH  17  22
BRANCH  21  24
ATOM     24  O   UNL     1       1.950   5.550  20.021  0.00  0.00    +0.000 OA
ATOM     25  H   UNL     1       1.232   4.891  20.052  0.00  0.00    +0.000 HD
ENDBRANCH  21  24
ENDBRANCH  14  19
ENDBRANCH   1  14
TORSDOF 5
ENDMDL
MODEL 2
REMARK VINA RESULT:      -7.9      0.290      1.734
REMARK  Name = 
REMARK  6 active torsions:
REMARK  status: ('A' for Active; 'I' for Inactive)
REMARK    1  A    between atoms: C_1  and  C_2
REMARK    2  A    between atoms: C_3  and  O_4
REMARK    3  A    between atoms: C_6  and  S_7
REMARK    4  A    between atoms: S_7  and  C_8
REMARK    5  A    between atoms: N_12  and  C_13
REMARK    6  A    between atoms: C_22  and  O_23
REMARK                            x       y       z     vdW  Elec       q    Type
REMARK                         _______ _______ _______ _____ _____    ______ ____
ROOT
ATOM      1  C   UNL     1       6.810   6.127  17.619  0.00  0.00    +0.000 C 
ATOM      2  C   UNL     1       5.617   6.902  17.111  0.00  0.00    +0.000 C 
ATOM      3  C   UNL     1       5.568   6.524  15.657  0.00  0.00    +0.000 C 
ATOM      4  O   UNL     1       4.845   7.130  14.875  0.00  0.00    +0.000 OA
ATOM      5  N   UNL     1       6.388   5.437  15.428  0.00  0.00    +0.000 N 
ATOM      6  C   UNL     1       7.052   5.057  16.585  0.00  0.00    +0.000 C 
ATOM      7  O   UNL     1       7.839   4.133  16.752  0.00  0.00    +0.000 OA
ENDROOT
BRANCH   5   8
ATOM      8  C   UNL     1       6.584   4.825  14.146  0.00  0.00    +0.000 A 
ATOM      9  C   UNL     1       5.755   3.784  13.694  0.00  0.00    +0.000 A 
ATOM     10  C   UNL     1       5.912   3.217  12.421  0.00  0.00    +0.000 A 
ATOM     11  C   UNL     1       6.912   3.672  11.572  0.00  0.00    +0.000 A 
ATOM     12  C   UNL     1       7.753   4.693  11.997  0.00  0.00    +0.000 A 
ATOM     13  C   UNL     1       7.589   5.264  13.267  0.00  0.00    +0.000 A 
ENDBRANCH   5   8
BRANCH   1  14
ATOM     14  S   UNL     1       6.771   5.547  19.342  0.00  0.00    +0.000 S 
BRANCH  14  19
ATOM     15  C   UNL     1       1.750   2.412  20.149  0.00  0.00    +0.000 C 
ATOM     16  C   UNL     1       2.944   3.267  19.892  0.00  0.00    +0.000 A 
ATOM     17  C   UNL     1       3.028   4.630  20.050  0.00  0.00    +0.000 A 
ATOM     18  N   UNL     1       4.141   5.351  19.831  0.00  0.00    +0.000 NA
ATOM     19  C   UNL     1       5.227   4.682  19.445  0.00  0.00    +0.000 A 
ATOM     20  N   UNL     1       5.271   3.360  19.235  0.00  0.00    +0.000 NA
ATOM     21  C   UNL     1       4.125   2.709  19.456  0.00  0.00    +0.000 A 
BRANCH  17  22
ATOM     22  O   UNL     1       1.996   5.406  20.479  0.00  0.00    +0.000 OA
ATOM     23  H   UNL     1       2.088   6.306  20.142  0.00  0.00    +0.000 HD
ENDBRANCH  17  22
BRANCH  21  24
ATOM     24  O   UNL     1       4.213   1.370  19.227  0.00  0.00    +0.000 OA
ATOM     25  H   UNL     1       3.282   1.153  19.037  0.00  0.00    +0.000 HD
ENDBRANCH  21  24
ENDBRANCH  14  19
ENDBRANCH   1  14
TORSDOF 5
ENDMDL
MODEL 3
REMARK VINA RESULT:      -7.9      0.040      1.000
REMARK  Name = 
REMARK  6 active torsions:
REMARK  status: ('A' for Active; 'I' for Inactive)
REMARK    1  A    between atoms: C_1  and  C_2
REMARK    2  A    between atoms: C_3  and  O_4
REMARK    3  A    between atoms: C_6  and  S_7
REMARK    4  A    between atoms: S_7  and  C_8
REMARK    5  A    between atoms: N_12  and  C_13
REMARK    6  A    between atoms: C_22  and  O_23
REMARK                            x       y       z     vdW  Elec       q    Type
REMARK                         _______ _______ _______ _____ _____    ______ ____
ROOT
ATOM      1  C   UNL     1       6.819   6.093  17.649  0.00  0.00    +0.000 C 
ATOM      2  C   UNL     1       5.611   6.870  17.183  0.00  0.00    +0.000 C 
ATOM      3  C   UNL     1       5.530   6.518  15.723  0.00  0.00    +0.000 C 
ATOM      4  O   UNL     1       4.786   7.134  14.969  0.00  0.00    +0.000 OA
ATOM      5  N   UNL     1       6.351   5.442  15.456  0.00  0.00    +0.000 N 
ATOM      6  C   UNL     1       7.044   5.045  16.590  0.00  0.00    +0.000 C 
ATOM      7  O   UNL     1       7.841   4.123  16.722  0.00  0.00    +0.000 OA
ENDROOT
BRANCH   5   8
ATOM      8  C   UNL     1       6.522   4.855  14.158  0.00  0.00    +0.000 A 
ATOM      9  C   UNL     1       7.559   5.259  13.299  0.00  0.00    +0.000 A 
ATOM     10  C   UNL     1       7.760   4.654  12.050  0.00  0.00    +0.000 A 
ATOM     11  C   UNL     1       6.918   3.634  11.624  0.00  0.00    +0.000 A 
ATOM     12  C   UNL     1       5.878   3.222  12.449  0.00  0.00    +0.000 A 
ATOM     13  C   UNL     1       5.685   3.823  13.701  0.00  0.00    +0.000 A 
ENDBRANCH   5   8
BRANCH   1  14
ATOM     14  S   UNL     1       6.823   5.481  19.361  0.00  0.00    +0.000 S 
BRANCH  14  19
ATOM     15  C   UNL     1       1.463   2.842  19.334  0.00  0.00    +0.000 C 
ATOM     16  C   UNL     1       2.837   3.416  19.400  0.00  0.00    +0.000 A 
ATOM     17  C   UNL     1       4.019   2.752  19.169  0.00  0.00    +0.000 A 
ATOM     18  N   UNL     1       5.233   3.326  19.214  0.00  0.00    +0.000 NA
ATOM     19  C   UNL     1       5.274   4.628  19.492  0.00  0.00    +0.000 A 
ATOM     20  N   UNL     1       4.200   5.384  19.756  0.00  0.00    +0.000 NA
ATOM     21  C   UNL     1       3.027   4.745  19.711  0.00  0.00    +0.000 A 
BRANCH  17  22
ATOM     22  O   UNL     1       4.091   1.434  18.838  0.00  0.00    +0.000 OA
ATOM     23  H   UNL     1       4.874   1.029  19.232  0.00  0.00    +0.000 HD
ENDBRANCH  17  22
BRANCH  21  24
ATOM     24  O   UNL     1       1.964   5.548  19.988  0.00  0.00    +0.000 OA
ATOM     25  H   UNL     1       1.976   6.143  19.217  0.00  0.00    +0.000 HD
ENDBRANCH  21  24
ENDBRANCH  14  19
ENDBRANCH   1  14
TORSDOF 5
ENDMDL
MODEL 4
REMARK VINA RESULT:      -7.8      0.276      1.998
REMARK  Name = 
REMARK  6 active torsions:
REMARK  status: ('A' for Active; 'I' for Inactive)
REMARK    1  A    between atoms: C_1  and  C_2
REMARK    2  A    between atoms: C_3  and  O_4
REMARK    3  A    between atoms: C_6  and  S_7
REMARK    4  A    between atoms: S_7  and  C_8
REMARK    5  A    between atoms: N_12  and  C_13
REMARK    6  A    between atoms: C_22  and  O_23
REMARK                            x       y       z     vdW  Elec       q    Type
REMARK                         _______ _______ _______ _____ _____    ______ ____
ROOT
ATOM      1  C   UNL     1       6.809   6.105  17.569  0.00  0.00    +0.000 C 
ATOM      2  C   UNL     1       5.615   6.886  17.074  0.00  0.00    +0.000 C 
ATOM      3  C   UNL     1       5.559   6.523  15.616  0.00  0.00    +0.000 C 
ATOM      4  O   UNL     1       4.834   7.139  14.843  0.00  0.00    +0.000 OA
ATOM      5  N   UNL     1       6.377   5.439  15.372  0.00  0.00    +0.000 N 
ATOM      6  C   UNL     1       7.046   5.046  16.522  0.00  0.00    +0.000 C 
ATOM      7  O   UNL     1       7.833   4.120  16.676  0.00  0.00    +0.000 OA
ENDROOT
BRANCH   5   8
ATOM      8  C   UNL     1       6.568   4.841  14.083  0.00  0.00    +0.000 A 
ATOM      9  C   UNL     1       7.611   5.246  13.231  0.00  0.00    +0.000 A 
ATOM     10  C   UNL     1       7.831   4.630  11.991  0.00  0.00    +0.000 A 
ATOM     11  C   UNL     1       7.003   3.598  11.566  0.00  0.00    +0.000 A 
ATOM     12  C   UNL     1       5.958   3.185  12.383  0.00  0.00    +0.000 A 
ATOM     13  C   UNL     1       5.745   3.797  13.626  0.00  0.00    +0.000 A 
ENDBRANCH   5   8
BRANCH   1  14
ATOM     14  S   UNL     1       6.777   5.506  19.285  0.00  0.00    +0.000 S 
BRANCH  14  19
ATOM     15  C   UNL     1       1.686   2.492  20.114  0.00  0.00    +0.000 C 
ATOM     16  C   UNL     1       2.898   3.321  19.858  0.00  0.00    +0.000 A 
ATOM     17  C   UNL     1       3.031   4.672  20.076  0.00  0.00    +0.000 A 
ATOM     18  N   UNL     1       4.159   5.368  19.853  0.00  0.00    +0.000 NA
ATOM     19  C   UNL     1       5.210   4.685  19.400  0.00  0.00    +0.000 A 
ATOM     20  N   UNL     1       5.204   3.373  19.128  0.00  0.00    +0.000 NA
ATOM     21  C   UNL     1       4.046   2.748  19.357  0.00  0.00    +0.000 A 
BRANCH  17  22
ATOM     22  O   UNL     1       2.038   5.458  20.574  0.00  0.00    +0.000 OA
ATOM     23  H   UNL     1       2.058   5.455  21.539  0.00  0.00    +0.000 HD
ENDBRANCH  17  22
BRANCH  21  24
ATOM     24  O   UNL     1       4.083   1.420  19.064  0.00  0.00    +0.000 OA
ATOM     25  H   UNL     1       3.156   1.260  18.810  0.00  0.00    +0.000 HD
ENDBRANCH  21  24
ENDBRANCH  14  19
ENDBRANCH   1  14
TORSDOF 5
ENDMDL
MODEL 5
REMARK VINA RESULT:      -6.8      4.865      7.697
REMARK  Name = 
REMARK  6 active torsions:
REMARK  status: ('A' for Active; 'I' for Inactive)
REMARK    1  A    between atoms: C_1  and  C_2
REMARK    2  A    between atoms: C_3  and  O_4
REMARK    3  A    between atoms: C_6  and  S_7
REMARK    4  A    between atoms: S_7  and  C_8
REMARK    5  A    between atoms: N_12  and  C_13
REMARK    6  A    between atoms: C_22  and  O_23
REMARK                            x       y       z     vdW  Elec       q    Type
REMARK                         _______ _______ _______ _____ _____    ______ ____
ROOT
ATOM      1  C   UNL     1       2.183   7.492  19.705  0.00  0.00    +0.000 C 
ATOM      2  C   UNL     1       1.522   7.737  21.041  0.00  0.00    +0.000 C 
ATOM      3  C   UNL     1       1.011   9.145  20.908  0.00  0.00    +0.000 C 
ATOM      4  O   UNL     1       0.597   9.757  21.885  0.00  0.00    +0.000 OA
ATOM      5  N   UNL     1       1.064   9.538  19.586  0.00  0.00    +0.000 N 
ATOM      6  C   UNL     1       1.620   8.549  18.789  0.00  0.00    +0.000 C 
ATOM      7  O   UNL     1       1.805   8.549  17.578  0.00  0.00    +0.000 OA
ENDROOT
BRANCH   5   8
ATOM      8  C   UNL     1       0.663  10.830  19.108  0.00  0.00    +0.000 A 
ATOM      9  C   UNL     1      -0.678  11.115  18.796  0.00  0.00    +0.000 A 
ATOM     10  C   UNL     1      -1.083  12.390  18.377  0.00  0.00    +0.000 A 
ATOM     11  C   UNL     1      -0.150  13.412  18.247  0.00  0.00    +0.000 A 
ATOM     12  C   UNL     1       1.184  13.155  18.539  0.00  0.00    +0.000 A 
ATOM     13  C   UNL     1       1.585  11.882  18.967  0.00  0.00    +0.000 A 
ENDBRANCH   5   8
BRANCH   1  14
ATOM     14  S   UNL     1       2.156   5.798  19.045  0.00  0.00    +0.000 S 
BRANCH  14  19
ATOM     15  C   UNL     1       7.739   4.520  17.346  0.00  0.00    +0.000 C 
ATOM     16  C   UNL     1       6.337   4.901  17.681  0.00  0.00    +0.000 A 
ATOM     17  C   UNL     1       5.259   4.903  16.827  0.00  0.00    +0.000 A 
ATOM     18  N   UNL     1       4.007   5.229  17.189  0.00  0.00    +0.000 NA
ATOM     19  C   UNL     1       3.815   5.560  18.465  0.00  0.00    +0.000 A 
ATOM     20  N   UNL     1       4.782   5.618  19.390  0.00  0.00    +0.000 NA
ATOM     21  C   UNL     1       6.005   5.297  18.957  0.00  0.00    +0.000 A 
BRANCH  17  22
ATOM     22  O   UNL     1       5.333   4.544  15.517  0.00  0.00    +0.000 OA
ATOM     23  H   UNL     1       6.248   4.572  15.210  0.00  0.00    +0.000 HD
ENDBRANCH  17  22
BRANCH  21  24
ATOM     24  O   UNL     1       6.956   5.372  19.927  0.00  0.00    +0.000 OA
ATOM     25  H   UNL     1       6.466   5.026  20.695  0.00  0.00    +0.000 HD
ENDBRANCH  21  24
ENDBRANCH  14  19
ENDBRANCH   1  14
TORSDOF 5
ENDMDL
MODEL 6
REMARK VINA RESULT:      -6.8      1.132      1.653
REMARK  Name = 
REMARK  6 active torsions:
REMARK  status: ('A' for Active; 'I' for Inactive)
REMARK    1  A    between atoms: C_1  and  C_2
REMARK    2  A    between atoms: C_3  and  O_4
REMARK    3  A    between atoms: C_6  and  S_7
REMARK    4  A    between atoms: S_7  and  C_8
REMARK    5  A    between atoms: N_12  and  C_13
REMARK    6  A    between atoms: C_22  and  O_23
REMARK                            x       y       z     vdW  Elec       q    Type
REMARK                         _______ _______ _______ _____ _____    ______ ____
ROOT
ATOM      1  C   UNL     1       6.191   5.925  17.780  0.00  0.00    +0.000 C 
ATOM      2  C   UNL     1       5.127   6.801  17.161  0.00  0.00    +0.000 C 
ATOM      3  C   UNL     1       5.278   6.522  15.692  0.00  0.00    +0.000 C 
ATOM      4  O   UNL     1       4.711   7.220  14.859  0.00  0.00    +0.000 OA
ATOM      5  N   UNL     1       6.069   5.406  15.506  0.00  0.00    +0.000 N 
ATOM      6  C   UNL     1       6.533   4.913  16.716  0.00  0.00    +0.000 C 
ATOM      7  O   UNL     1       7.241   3.935  16.928  0.00  0.00    +0.000 OA
ENDROOT
BRANCH   5   8
ATOM      8  C   UNL     1       6.425   4.870  14.225  0.00  0.00    +0.000 A 
ATOM      9  C   UNL     1       5.687   3.830  13.632  0.00  0.00    +0.000 A 
ATOM     10  C   UNL     1       6.002   3.337  12.357  0.00  0.00    +0.000 A 
ATOM     11  C   UNL     1       7.073   3.865  11.648  0.00  0.00    +0.000 A 
ATOM     12  C   UNL     1       7.826   4.886  12.214  0.00  0.00    +0.000 A 
ATOM     13  C   UNL     1       7.505   5.384  13.485  0.00  0.00    +0.000 A 
ENDBRANCH   5   8
BRANCH   1  14
ATOM     14  S   UNL     1       5.866   5.236  19.431  0.00  0.00    +0.000 S 
BRANCH  14  19
ATOM     15  C   UNL     1       0.576   2.511  18.904  0.00  0.00    +0.000 C 
ATOM     16  C   UNL     1       1.845   3.271  19.088  0.00  0.00    +0.000 A 
ATOM     17  C   UNL     1       2.289   3.865  20.247  0.00  0.00    +0.000 A 
ATOM     18  N   UNL     1       3.458   4.516  20.365  0.00  0.00    +0.000 NA
ATOM     19  C   UNL     1       4.229   4.573  19.280  0.00  0.00    +0.000 A 
ATOM     20  N   UNL     1       3.904   4.056  18.088  0.00  0.00    +0.000 NA
ATOM     21  C   UNL     1       2.721   3.437  18.038  0.00  0.00    +0.000 A 
BRANCH  17  22
ATOM     22  O   UNL     1       1.602   3.832  21.422  0.00  0.00    +0.000 OA
ATOM     23  H   UNL     1       1.400   2.921  21.669  0.00  0.00    +0.000 HD
ENDBRANCH  17  22
BRANCH  21  24
ATOM     24  O   UNL     1       2.430   2.930  16.809  0.00  0.00    +0.000 OA
ATOM     25  H   UNL     1       2.363   3.747  16.283  0.00  0.00    +0.000 HD
ENDBRANCH  21  24
ENDBRANCH  14  19
ENDBRANCH   1  14
TORSDOF 5
ENDMDL
MODEL 7
REMARK VINA RESULT:      -6.8      1.122      1.920
REMARK  Name = 
REMARK  6 active torsions:
REMARK  status: ('A' for Active; 'I' for Inactive)
REMARK    1  A    between atoms: C_1  and  C_2
REMARK    2  A    between atoms: C_3  and  O_4
REMARK    3  A    between atoms: C_6  and  S_7
REMARK    4  A    between atoms: S_7  and  C_8
REMARK    5  A    between atoms: N_12  and  C_13
REMARK    6  A    between atoms: C_22  and  O_23
REMARK                            x       y       z     vdW  Elec       q    Type
REMARK                         _______ _______ _______ _____ _____    ______ ____
ROOT
ATOM      1  C   UNL     1       6.210   5.917  17.745  0.00  0.00    +0.000 C 
ATOM      2  C   UNL     1       5.144   6.811  17.156  0.00  0.00    +0.000 C 
ATOM      3  C   UNL     1       5.259   6.542  15.681  0.00  0.00    +0.000 C 
ATOM      4  O   UNL     1       4.683   7.253  14.867  0.00  0.00    +0.000 OA
ATOM      5  N   UNL     1       6.033   5.419  15.470  0.00  0.00    +0.000 N 
ATOM      6  C   UNL     1       6.517   4.910  16.666  0.00  0.00    +0.000 C 
ATOM      7  O   UNL     1       7.218   3.922  16.855  0.00  0.00    +0.000 OA
ENDROOT
BRANCH   5   8
ATOM      8  C   UNL     1       6.356   4.889  14.177  0.00  0.00    +0.000 A 
ATOM      9  C   UNL     1       7.460   5.358  13.444  0.00  0.00    +0.000 A 
ATOM     10  C   UNL     1       7.808   4.808  12.202  0.00  0.00    +0.000 A 
ATOM     11  C   UNL     1       7.050   3.780  11.656  0.00  0.00    +0.000 A 
ATOM     12  C   UNL     1       5.947   3.304  12.354  0.00  0.00    +0.000 A 
ATOM     13  C   UNL     1       5.606   3.849  13.600  0.00  0.00    +0.000 A 
ENDBRANCH   5   8
BRANCH   1  14
ATOM     14  S   UNL     1       5.912   5.219  19.397  0.00  0.00    +0.000 S 
BRANCH  14  19
ATOM     15  C   UNL     1       0.599   2.523  18.955  0.00  0.00    +0.000 C 
ATOM     16  C   UNL     1       1.875   3.277  19.118  0.00  0.00    +0.000 A 
ATOM     17  C   UNL     1       2.339   3.869  20.269  0.00  0.00    +0.000 A 
ATOM     18  N   UNL     1       3.514   4.514  20.369  0.00  0.00    +0.000 NA
ATOM     19  C   UNL     1       4.269   4.564  19.272  0.00  0.00    +0.000 A 
ATOM     20  N   UNL     1       3.923   4.048  18.086  0.00  0.00    +0.000 NA
ATOM     21  C   UNL     1       2.736   3.435  18.055  0.00  0.00    +0.000 A 
BRANCH  17  22
ATOM     22  O   UNL     1       1.671   3.842  21.454  0.00  0.00    +0.000 OA
ATOM     23  H   UNL     1       2.202   3.404  22.131  0.00  0.00    +0.000 HD
ENDBRANCH  17  22
BRANCH  21  24
ATOM     24  O   UNL     1       2.423   2.928  16.831  0.00  0.00    +0.000 OA
ATOM     25  H   UNL     1       2.147   2.025  17.070  0.00  0.00    +0.000 HD
ENDBRANCH  21  24
ENDBRANCH  14  19
ENDBRANCH   1  14
TORSDOF 5
ENDMDL
MODEL 8
REMARK VINA RESULT:      -6.8      4.853      7.741
REMARK  Name = 
REMARK  6 active torsions:
REMARK  status: ('A' for Active; 'I' for Inactive)
REMARK    1  A    between atoms: C_1  and  C_2
REMARK    2  A    between atoms: C_3  and  O_4
REMARK    3  A    between atoms: C_6  and  S_7
REMARK    4  A    between atoms: S_7  and  C_8
REMARK    5  A    between atoms: N_12  and  C_13
REMARK    6  A    between atoms: C_22  and  O_23
REMARK                            x       y       z     vdW  Elec       q    Type
REMARK                         _______ _______ _______ _____ _____    ______ ____
ROOT
ATOM      1  C   UNL     1       2.215   7.483  19.518  0.00  0.00    +0.000 C 
ATOM      2  C   UNL     1       1.529   7.637  20.855  0.00  0.00    +0.000 C 
ATOM      3  C   UNL     1       1.031   9.054  20.814  0.00  0.00    +0.000 C 
ATOM      4  O   UNL     1       0.601   9.599  21.824  0.00  0.00    +0.000 OA
ATOM      5  N   UNL     1       1.111   9.541  19.524  0.00  0.00    +0.000 N 
ATOM      6  C   UNL     1       1.677   8.606  18.670  0.00  0.00    +0.000 C 
ATOM      7  O   UNL     1       1.886   8.692  17.465  0.00  0.00    +0.000 OA
ENDROOT
BRANCH   5   8
ATOM      8  C   UNL     1       0.728  10.866  19.133  0.00  0.00    +0.000 A 
ATOM      9  C   UNL     1       1.673  11.900  19.015  0.00  0.00    +0.000 A 
ATOM     10  C   UNL     1       1.311  13.185  18.585  0.00  0.00    +0.000 A 
ATOM     11  C   UNL     1      -0.012  13.469  18.272  0.00  0.00    +0.000 A 
ATOM     12  C   UNL     1      -0.969  12.469  18.389  0.00  0.00    +0.000 A 
ATOM     13  C   UNL     1      -0.603  11.183  18.811  0.00  0.00    +0.000 A 
ENDBRANCH   5   8
BRANCH   1  14
ATOM     14  S   UNL     1       2.190   5.840  18.738  0.00  0.00    +0.000 S 
BRANCH  14  19
ATOM     15  C   UNL     1       7.869   4.473  17.484  0.00  0.00    +0.000 C 
ATOM     16  C   UNL     1       6.451   4.876  17.708  0.00  0.00    +0.000 A 
ATOM     17  C   UNL     1       5.444   4.896  16.771  0.00  0.00    +0.000 A 
ATOM     18  N   UNL     1       4.173   5.243  17.033  0.00  0.00    +0.000 NA
ATOM     19  C   UNL     1       3.886   5.576  18.291  0.00  0.00    +0.000 A 
ATOM     20  N   UNL     1       4.777   5.617  19.290  0.00  0.00    +0.000 NA
ATOM     21  C   UNL     1       6.025   5.276  18.955  0.00  0.00    +0.000 A 
BRANCH  17  22
ATOM     22  O   UNL     1       5.616   4.537  15.470  0.00  0.00    +0.000 OA
ATOM     23  H   UNL     1       4.793   4.187  15.106  0.00  0.00    +0.000 HD
ENDBRANCH  17  22
BRANCH  21  24
ATOM     24  O   UNL     1       6.898   5.334  19.997  0.00  0.00    +0.000 OA
ATOM     25  H   UNL     1       6.332   5.030  20.730  0.00  0.00    +0.000 HD
ENDBRANCH  21  24
ENDBRANCH  14  19
ENDBRANCH   1  14
TORSDOF 5
ENDMDL
MODEL 9
REMARK VINA RESULT:      -6.8      5.162      8.055
REMARK  Name = 
REMARK  6 active torsions:
REMARK  status: ('A' for Active; 'I' for Inactive)
REMARK    1  A    between atoms: C_1  and  C_2
REMARK    2  A    between atoms: C_3  and  O_4
REMARK    3  A    between atoms: C_6  and  S_7
REMARK    4  A    between atoms: S_7  and  C_8
REMARK    5  A    between atoms: N_12  and  C_13
REMARK    6  A    between atoms: C_22  and  O_23
REMARK                            x       y       z     vdW  Elec       q    Type
REMARK                         _______ _______ _______ _____ _____    ______ ____
ROOT
ATOM      1  C   UNL     1       2.095   8.016  19.329  0.00  0.00    +0.000 C 
ATOM      2  C   UNL     1       1.328   8.064  20.630  0.00  0.00    +0.000 C 
ATOM      3  C   UNL     1       0.896   9.501  20.710  0.00  0.00    +0.000 C 
ATOM      4  O   UNL     1       0.424   9.958  21.745  0.00  0.00    +0.000 OA
ATOM      5  N   UNL     1       1.085  10.115  19.488  0.00  0.00    +0.000 N 
ATOM      6  C   UNL     1       1.665   9.248  18.575  0.00  0.00    +0.000 C 
ATOM      7  O   UNL     1       1.957   9.449  17.402  0.00  0.00    +0.000 OA
ENDROOT
BRANCH   5   8
ATOM      8  C   UNL     1       0.787  11.492  19.219  0.00  0.00    +0.000 A 
ATOM      9  C   UNL     1      -0.453  11.887  18.687  0.00  0.00    +0.000 A 
ATOM     10  C   UNL     1      -0.766  13.236  18.469  0.00  0.00    +0.000 A 
ATOM     11  C   UNL     1       0.161  14.226  18.768  0.00  0.00    +0.000 A 
ATOM     12  C   UNL     1       1.399  13.864  19.285  0.00  0.00    +0.000 A 
ATOM     13  C   UNL     1       1.707  12.515  19.510  0.00  0.00    +0.000 A 
ENDBRANCH   5   8
BRANCH   1  14
ATOM     14  S   UNL     1       2.049   6.467  18.376  0.00  0.00    +0.000 S 
BRANCH  14  19
ATOM     15  C   UNL     1       7.659   4.557  17.621  0.00  0.00    +0.000 C 
ATOM     16  C   UNL     1       6.300   5.131  17.836  0.00  0.00    +0.000 A 
ATOM     17  C   UNL     1       5.832   6.335  17.365  0.00  0.00    +0.000 A 
ATOM     18  N   UNL     1       4.585   6.794  17.565  0.00  0.00    +0.000 NA
ATOM     19  C   UNL     1       3.759   6.012  18.259  0.00  0.00    +0.000 A 
ATOM     20  N   UNL     1       4.097   4.829  18.788  0.00  0.00    +0.000 NA
ATOM     21  C   UNL     1       5.356   4.443  18.565  0.00  0.00    +0.000 A 
BRANCH  17  22
ATOM     22  O   UNL     1       6.575   7.192  16.613  0.00  0.00    +0.000 OA
ATOM     23  H   UNL     1       7.458   7.292  16.989  0.00  0.00    +0.000 HD
ENDBRANCH  17  22
BRANCH  21  24
ATOM     24  O   UNL     1       5.657   3.238  19.123  0.00  0.00    +0.000 OA
ATOM     25  H   UNL     1       5.304   3.358  20.023  0.00  0.00    +0.000 HD
ENDBRANCH  21  24
ENDBRANCH  14  19
ENDBRANCH   1  14
TORSDOF 5
ENDMDL
