MODEL 1
REMARK VINA RESULT:      -7.1      0.000      0.000
REMARK  Name = 
REMARK  8 active torsions:
REMARK  status: ('A' for Active; 'I' for Inactive)
REMARK    1  A    between atoms: C_1  and  C_2
REMARK    2  A    between atoms: C_2  and  C_3
REMARK    3  A    between atoms: C_2  and  C_4
REMARK    4  A    between atoms: C_4  and  C_5
REMARK    5  A    between atoms: C_9  and  C_10
REMARK    6  A    between atoms: C_10  and  C_12
REMARK    7  A    between atoms: C_29  and  C_30
REMARK    8  A    between atoms: N_32  and  O_33
REMARK                            x       y       z     vdW  Elec       q    Type
REMARK                         _______ _______ _______ _____ _____    ______ ____
ROOT
ATOM      1  C   UNL     1       9.052  13.719  19.757  0.00  0.00    +0.000 C 
ATOM      2  C   UNL     1       7.631  14.530  18.726  0.00  0.00    +0.000 C 
ATOM      3  O   UNL     1       8.058  14.857  17.585  0.00  0.00    +0.000 OA
ATOM      4  N   UNL     1       6.154  14.770  18.733  0.00  0.00    +0.000 N 
ATOM      5  C   UNL     1       4.367  15.215  18.311  0.00  0.00    +0.000 C 
ATOM      6  C   UNL     1       3.755  14.821  19.676  0.00  0.00    +0.000 C 
ATOM      7  C   UNL     1       4.353  15.919  20.577  0.00  0.00    +0.000 A 
ATOM      8  C   UNL     1       4.689  17.228  20.087  0.00  0.00    +0.000 A 
ATOM      9  C   UNL     1       5.714  17.961  20.615  0.00  0.00    +0.000 A 
ATOM     10  C   UNL     1       6.424  17.371  21.634  0.00  0.00    +0.000 A 
ATOM     11  C   UNL     1       6.007  16.169  22.243  0.00  0.00    +0.000 A 
ATOM     12  C   UNL     1       4.915  15.471  21.752  0.00  0.00    +0.000 A 
ATOM     13  O   UNL     1       7.722  17.829  21.766  0.00  0.00    +0.000 OA
ATOM     14  C   UNL     1       8.394  17.148  20.719  0.00  0.00    +0.000 C 
ATOM     15  C   UNL     1       9.882  17.491  20.499  0.00  0.00    +0.000 C 
ATOM     16  C   UNL     1      10.276  16.187  19.897  0.00  0.00    +0.000 C 
ATOM     17  C   UNL     1      11.460  15.385  19.581  0.00  0.00    +0.000 C 
ATOM     18  C   UNL     1      10.748  13.973  19.261  0.00  0.00    +0.000 C 
ATOM     19  H   UNL     1       6.317  15.080  17.777  0.00  0.00    +0.000 HD
ENDROOT
BRANCH  18  20
ATOM     20  C   UNL     1      11.400  13.478  17.958  0.00  0.00    +0.000 C 
ATOM     21  O   UNL     1      12.012  12.421  17.860  0.00  0.00    +0.000 OA
ATOM     22  N   UNL     1      11.048  14.030  16.804  0.00  0.00    +0.000 N 
ATOM     23  H   UNL     1      10.831  15.033  16.667  0.00  0.00    +0.000 HD
BRANCH  22  24
ATOM     24  O   UNL     1      11.485  13.412  15.600  0.00  0.00    +0.000 OA
ATOM     25  H   UNL     1      12.409  13.738  15.577  0.00  0.00    +0.000 HD
ENDBRANCH  22  24
ENDBRANCH  18  20
BRANCH   5  26
ATOM     26  C   UNL     1       2.934  16.426  18.114  0.00  0.00    +0.000 C 
ATOM     27  O   UNL     1       3.105  17.447  17.405  0.00  0.00    +0.000 OA
BRANCH  26  28
ATOM     28  C   UNL     1       1.549  16.461  18.606  0.00  0.00    +0.000 A 
ATOM     29  C   UNL     1       0.491  15.583  18.701  0.00  0.00    +0.000 A 
ATOM     30  C   UNL     1      -0.625  16.237  19.303  0.00  0.00    +0.000 A 
ATOM     31  C   UNL     1      -0.201  17.472  19.727  0.00  0.00    +0.000 A 
ATOM     32  N   UNL     1       1.127  17.560  19.413  0.00  0.00    +0.000 N 
ATOM     33  H   UNL     1       1.737  18.314  19.739  0.00  0.00    +0.000 HD
ENDBRANCH  26  28
ENDBRANCH   5  26
BRANCH   1  34
ATOM     34  C   UNL     1       9.244  13.492  21.523  0.00  0.00    +0.000 C 
BRANCH  34  36
ATOM     35  C   UNL     1       7.495  11.805  23.249  0.00  0.00    +0.000 C 
ATOM     36  C   UNL     1       8.229  13.154  22.935  0.00  0.00    +0.000 C 
ATOM     37  C   UNL     1       8.235  13.920  24.310  0.00  0.00    +0.000 C 
ENDBRANCH  34  36
ENDBRANCH   1  34
TORSDOF 6
ENDMDL
MODEL 2
REMARK VINA RESULT:      -7.0      4.522      8.255
REMARK  Name = 
REMARK  8 active torsions:
REMARK  status: ('A' for Active; 'I' for Inactive)
REMARK    1  A    between atoms: C_1  and  C_2
REMARK    2  A    between atoms: C_2  and  C_3
REMARK    3  A    between atoms: C_2  and  C_4
REMARK    4  A    between atoms: C_4  and  C_5
REMARK    5  A    between atoms: C_9  and  C_10
REMARK    6  A    between atoms: C_10  and  C_12
REMARK    7  A    between atoms: C_29  and  C_30
REMARK    8  A    between atoms: N_32  and  O_33
REMARK                            x       y       z     vdW  Elec       q    Type
REMARK                         _______ _______ _______ _____ _____    ______ ____
ROOT
ATOM      1  C   UNL     1       6.095  12.665  24.460  0.00  0.00    +0.000 C 
ATOM      2  C   UNL     1       7.660  12.036  23.513  0.00  0.00    +0.000 C 
ATOM      3  O   UNL     1       8.251  11.153  24.193  0.00  0.00    +0.000 OA
ATOM      4  N   UNL     1       8.344  12.104  22.184  0.00  0.00    +0.000 N 
ATOM      5  C   UNL     1       9.474  11.863  20.689  0.00  0.00    +0.000 C 
ATOM      6  C   UNL     1       8.798  12.915  19.779  0.00  0.00    +0.000 C 
ATOM      7  C   UNL     1       9.194  14.212  20.511  0.00  0.00    +0.000 A 
ATOM      8  C   UNL     1      10.403  14.332  21.279  0.00  0.00    +0.000 A 
ATOM      9  C   UNL     1      10.492  15.149  22.371  0.00  0.00    +0.000 A 
ATOM     10  C   UNL     1       9.353  15.841  22.709  0.00  0.00    +0.000 A 
ATOM     11  C   UNL     1       8.216  15.871  21.876  0.00  0.00    +0.000 A 
ATOM     12  C   UNL     1       8.164  15.101  20.725  0.00  0.00    +0.000 A 
ATOM     13  O   UNL     1       9.273  16.189  24.046  0.00  0.00    +0.000 OA
ATOM     14  C   UNL     1       8.880  14.972  24.656  0.00  0.00    +0.000 C 
ATOM     15  C   UNL     1       8.778  14.958  26.195  0.00  0.00    +0.000 C 
ATOM     16  C   UNL     1       7.764  13.870  26.295  0.00  0.00    +0.000 C 
ATOM     17  C   UNL     1       6.814  13.277  27.237  0.00  0.00    +0.000 C 
ATOM     18  C   UNL     1       5.957  12.370  26.216  0.00  0.00    +0.000 C 
ATOM     19  H   UNL     1       8.933  11.375  22.580  0.00  0.00    +0.000 HD
ENDROOT
BRANCH  18  20
ATOM     20  C   UNL     1       5.831  10.997  26.901  0.00  0.00    +0.000 C 
ATOM     21  O   UNL     1       6.407  10.699  27.941  0.00  0.00    +0.000 OA
ATOM     22  N   UNL     1       4.835  10.189  26.561  0.00  0.00    +0.000 N 
ATOM     23  H   UNL     1       4.461  10.080  25.602  0.00  0.00    +0.000 HD
BRANCH  22  24
ATOM     24  O   UNL     1       4.602   9.035  27.357  0.00  0.00    +0.000 OA
ATOM     25  H   UNL     1       5.389   8.506  27.110  0.00  0.00    +0.000 HD
ENDBRANCH  22  24
ENDBRANCH  18  20
BRANCH   5  26
ATOM     26  C   UNL     1      11.059  12.159  19.710  0.00  0.00    +0.000 C 
ATOM     27  O   UNL     1      12.148  11.774  20.201  0.00  0.00    +0.000 OA
BRANCH  26  28
ATOM     28  C   UNL     1      11.355  12.756  18.400  0.00  0.00    +0.000 A 
ATOM     29  C   UNL     1      10.940  12.584  17.097  0.00  0.00    +0.000 A 
ATOM     30  C   UNL     1      11.619  13.509  16.250  0.00  0.00    +0.000 A 
ATOM     31  C   UNL     1      12.333  14.362  17.055  0.00  0.00    +0.000 A 
ATOM     32  N   UNL     1      12.084  13.981  18.345  0.00  0.00    +0.000 N 
ATOM     33  H   UNL     1      12.372  14.528  19.162  0.00  0.00    +0.000 HD
ENDBRANCH  26  28
ENDBRANCH   5  26
BRANCH   1  34
ATOM     34  C   UNL     1       5.144  14.173  24.293  0.00  0.00    +0.000 C 
BRANCH  34  36
ATOM     35  C   UNL     1       4.601  16.001  26.585  0.00  0.00    +0.000 C 
ATOM     36  C   UNL     1       5.004  15.748  25.091  0.00  0.00    +0.000 C 
ATOM     37  C   UNL     1       5.668  17.102  24.636  0.00  0.00    +0.000 C 
ENDBRANCH  34  36
ENDBRANCH   1  34
TORSDOF 6
ENDMDL
MODEL 3
REMARK VINA RESULT:      -7.0      5.306     10.414
REMARK  Name = 
REMARK  8 active torsions:
REMARK  status: ('A' for Active; 'I' for Inactive)
REMARK    1  A    between atoms: C_1  and  C_2
REMARK    2  A    between atoms: C_2  and  C_3
REMARK    3  A    between atoms: C_2  and  C_4
REMARK    4  A    between atoms: C_4  and  C_5
REMARK    5  A    between atoms: C_9  and  C_10
REMARK    6  A    between atoms: C_10  and  C_12
REMARK    7  A    between atoms: C_29  and  C_30
REMARK    8  A    between atoms: N_32  and  O_33
REMARK                            x       y       z     vdW  Elec       q    Type
REMARK                         _______ _______ _______ _____ _____    ______ ____
ROOT
ATOM      1  C   UNL     1      -1.531  12.760  23.294  0.00  0.00    +0.000 C 
ATOM      2  C   UNL     1      -0.525  14.093  22.319  0.00  0.00    +0.000 C 
ATOM      3  O   UNL     1      -1.092  15.216  22.412  0.00  0.00    +0.000 OA
ATOM      4  N   UNL     1       0.780  14.311  21.618  0.00  0.00    +0.000 N 
ATOM      5  C   UNL     1       2.284  15.024  20.724  0.00  0.00    +0.000 C 
ATOM      6  C   UNL     1       3.058  13.692  20.583  0.00  0.00    +0.000 C 
ATOM      7  C   UNL     1       2.164  12.957  19.566  0.00  0.00    +0.000 A 
ATOM      8  C   UNL     1       1.377  13.647  18.582  0.00  0.00    +0.000 A 
ATOM      9  C   UNL     1       0.190  13.152  18.122  0.00  0.00    +0.000 A 
ATOM     10  C   UNL     1      -0.225  11.959  18.666  0.00  0.00    +0.000 A 
ATOM     11  C   UNL     1       0.607  11.184  19.500  0.00  0.00    +0.000 A 
ATOM     12  C   UNL     1       1.847  11.658  19.897  0.00  0.00    +0.000 A 
ATOM     13  O   UNL     1      -1.594  11.763  18.636  0.00  0.00    +0.000 OA
ATOM     14  C   UNL     1      -2.041  12.569  19.714  0.00  0.00    +0.000 C 
ATOM     15  C   UNL     1      -3.565  12.670  19.930  0.00  0.00    +0.000 C 
ATOM     16  C   UNL     1      -3.518  12.956  21.391  0.00  0.00    +0.000 C 
ATOM     17  C   UNL     1      -4.370  12.964  22.582  0.00  0.00    +0.000 C 
ATOM     18  C   UNL     1      -3.234  13.087  23.721  0.00  0.00    +0.000 C 
ATOM     19  H   UNL     1       0.474  15.282  21.600  0.00  0.00    +0.000 HD
ENDROOT
BRANCH  18  20
ATOM     20  C   UNL     1      -3.739  14.181  24.679  0.00  0.00    +0.000 C 
ATOM     21  O   UNL     1      -3.118  14.566  25.663  0.00  0.00    +0.000 OA
ATOM     22  N   UNL     1      -4.726  14.979  24.292  0.00  0.00    +0.000 N 
ATOM     23  H   UNL     1      -5.537  14.686  23.720  0.00  0.00    +0.000 HD
BRANCH  22  24
ATOM     24  O   UNL     1      -5.023  16.118  25.090  0.00  0.00    +0.000 OA
ATOM     25  H   UNL     1      -5.642  16.580  24.487  0.00  0.00    +0.000 HD
ENDBRANCH  22  24
ENDBRANCH  18  20
BRANCH   5  26
ATOM     26  C   UNL     1       3.204  15.624  19.191  0.00  0.00    +0.000 C 
ATOM     27  O   UNL     1       2.561  16.246  18.311  0.00  0.00    +0.000 OA
BRANCH  26  28
ATOM     28  C   UNL     1       4.604  15.558  18.748  0.00  0.00    +0.000 A 
ATOM     29  C   UNL     1       5.803  16.135  19.106  0.00  0.00    +0.000 A 
ATOM     30  C   UNL     1       6.846  15.638  18.269  0.00  0.00    +0.000 A 
ATOM     31  C   UNL     1       6.316  14.631  17.500  0.00  0.00    +0.000 A 
ATOM     32  N   UNL     1       5.004  14.508  17.868  0.00  0.00    +0.000 N 
ATOM     33  H   UNL     1       4.400  13.740  17.561  0.00  0.00    +0.000 HD
ENDBRANCH  26  28
ENDBRANCH   5  26
BRANCH   1  34
ATOM     34  C   UNL     1      -1.549  10.974  23.170  0.00  0.00    +0.000 C 
BRANCH  34  36
ATOM     35  C   UNL     1      -0.701   8.540  21.671  0.00  0.00    +0.000 C 
ATOM     36  C   UNL     1      -0.440   9.663  22.732  0.00  0.00    +0.000 C 
ATOM     37  C   UNL     1       1.118   9.628  22.956  0.00  0.00    +0.000 C 
ENDBRANCH  34  36
ENDBRANCH   1  34
TORSDOF 6
ENDMDL
MODEL 4
REMARK VINA RESULT:      -6.9      6.378     12.270
REMARK  Name = 
REMARK  8 active torsions:
REMARK  status: ('A' for Active; 'I' for Inactive)
REMARK    1  A    between atoms: C_1  and  C_2
REMARK    2  A    between atoms: C_2  and  C_3
REMARK    3  A    between atoms: C_2  and  C_4
REMARK    4  A    between atoms: C_4  and  C_5
REMARK    5  A    between atoms: C_9  and  C_10
REMARK    6  A    between atoms: C_10  and  C_12
REMARK    7  A    between atoms: C_29  and  C_30
REMARK    8  A    between atoms: N_32  and  O_33
REMARK                            x       y       z     vdW  Elec       q    Type
REMARK                         _______ _______ _______ _____ _____    ______ ____
ROOT
ATOM      1  C   UNL     1      -5.301  13.762  19.908  0.00  0.00    +0.000 C 
ATOM      2  C   UNL     1      -3.527  12.990  19.899  0.00  0.00    +0.000 C 
ATOM      3  O   UNL     1      -3.603  11.735  19.814  0.00  0.00    +0.000 OA
ATOM      4  N   UNL     1      -2.079  13.356  19.797  0.00  0.00    +0.000 N 
ATOM      5  C   UNL     1      -0.197  13.362  19.635  0.00  0.00    +0.000 C 
ATOM      6  C   UNL     1      -0.014  14.896  19.712  0.00  0.00    +0.000 C 
ATOM      7  C   UNL     1      -0.397  15.148  21.183  0.00  0.00    +0.000 A 
ATOM      8  C   UNL     1      -0.205  14.166  22.215  0.00  0.00    +0.000 A 
ATOM      9  C   UNL     1      -1.028  14.083  23.302  0.00  0.00    +0.000 A 
ATOM     10  C   UNL     1      -2.069  14.981  23.348  0.00  0.00    +0.000 A 
ATOM     11  C   UNL     1      -2.175  16.056  22.442  0.00  0.00    +0.000 A 
ATOM     12  C   UNL     1      -1.285  16.181  21.388  0.00  0.00    +0.000 A 
ATOM     13  O   UNL     1      -3.157  14.556  24.088  0.00  0.00    +0.000 OA
ATOM     14  C   UNL     1      -3.796  13.653  23.200  0.00  0.00    +0.000 C 
ATOM     15  C   UNL     1      -5.029  12.896  23.735  0.00  0.00    +0.000 C 
ATOM     16  C   UNL     1      -5.691  12.684  22.417  0.00  0.00    +0.000 C 
ATOM     17  C   UNL     1      -6.983  12.321  21.832  0.00  0.00    +0.000 C 
ATOM     18  C   UNL     1      -6.703  12.727  20.296  0.00  0.00    +0.000 C 
ATOM     19  H   UNL     1      -1.951  12.349  19.716  0.00  0.00    +0.000 HD
ENDROOT
BRANCH  18  20
ATOM     20  C   UNL     1      -7.216  11.538  19.464  0.00  0.00    +0.000 C 
ATOM     21  O   UNL     1      -7.167  11.490  18.241  0.00  0.00    +0.000 OA
ATOM     22  N   UNL     1      -7.441  10.375  20.061  0.00  0.00    +0.000 N 
ATOM     23  H   UNL     1      -7.829  10.262  21.015  0.00  0.00    +0.000 HD
BRANCH  22  24
ATOM     24  O   UNL     1      -7.693   9.237  19.248  0.00  0.00    +0.000 OA
ATOM     25  H   UNL     1      -6.941   8.672  19.522  0.00  0.00    +0.000 HD
ENDBRANCH  22  24
ENDBRANCH  18  20
BRANCH   5  26
ATOM     26  C   UNL     1       1.553  13.203  20.319  0.00  0.00    +0.000 C 
ATOM     27  O   UNL     1       1.779  12.326  21.188  0.00  0.00    +0.000 OA
BRANCH  26  28
ATOM     28  C   UNL     1       2.824  13.890  20.048  0.00  0.00    +0.000 A 
ATOM     29  C   UNL     1       3.515  14.330  18.939  0.00  0.00    +0.000 A 
ATOM     30  C   UNL     1       4.732  14.953  19.347  0.00  0.00    +0.000 A 
ATOM     31  C   UNL     1       4.713  15.041  20.717  0.00  0.00    +0.000 A 
ATOM     32  N   UNL     1       3.522  14.509  21.127  0.00  0.00    +0.000 N 
ATOM     33  H   UNL     1       3.175  14.571  22.089  0.00  0.00    +0.000 HD
ENDBRANCH  26  28
ENDBRANCH   5  26
BRANCH   1  34
ATOM     34  C   UNL     1      -5.889  15.357  20.472  0.00  0.00    +0.000 C 
BRANCH  34  36
ATOM     35  C   UNL     1      -7.916  15.733  22.625  0.00  0.00    +0.000 C 
ATOM     36  C   UNL     1      -6.546  16.082  21.949  0.00  0.00    +0.000 C 
ATOM     37  C   UNL     1      -5.739  16.833  23.074  0.00  0.00    +0.000 C 
ENDBRANCH  34  36
ENDBRANCH   1  34
TORSDOF 6
ENDMDL
MODEL 5
REMARK VINA RESULT:      -6.9      3.199      5.018
REMARK  Name = 
REMARK  8 active torsions:
REMARK  status: ('A' for Active; 'I' for Inactive)
REMARK    1  A    between atoms: C_1  and  C_2
REMARK    2  A    between atoms: C_2  and  C_3
REMARK    3  A    between atoms: C_2  and  C_4
REMARK    4  A    between atoms: C_4  and  C_5
REMARK    5  A    between atoms: C_9  and  C_10
REMARK    6  A    between atoms: C_10  and  C_12
REMARK    7  A    between atoms: C_29  and  C_30
REMARK    8  A    between atoms: N_32  and  O_33
REMARK                            x       y       z     vdW  Elec       q    Type
REMARK                         _______ _______ _______ _____ _____    ______ ____
ROOT
ATOM      1  C   UNL     1       6.956  14.794  23.818  0.00  0.00    +0.000 C 
ATOM      2  C   UNL     1       5.433  14.478  22.669  0.00  0.00    +0.000 C 
ATOM      3  O   UNL     1       5.003  13.304  22.837  0.00  0.00    +0.000 OA
ATOM      4  N   UNL     1       4.472  15.178  21.760  0.00  0.00    +0.000 N 
ATOM      5  C   UNL     1       3.044  15.655  20.619  0.00  0.00    +0.000 C 
ATOM      6  C   UNL     1       3.489  17.116  20.374  0.00  0.00    +0.000 C 
ATOM      7  C   UNL     1       4.756  16.883  19.530  0.00  0.00    +0.000 A 
ATOM      8  C   UNL     1       4.922  15.738  18.678  0.00  0.00    +0.000 A 
ATOM      9  C   UNL     1       6.148  15.190  18.427  0.00  0.00    +0.000 A 
ATOM     10  C   UNL     1       7.220  15.783  19.052  0.00  0.00    +0.000 A 
ATOM     11  C   UNL     1       7.104  17.003  19.749  0.00  0.00    +0.000 A 
ATOM     12  C   UNL     1       5.865  17.597  19.929  0.00  0.00    +0.000 A 
ATOM     13  O   UNL     1       8.301  14.943  19.250  0.00  0.00    +0.000 OA
ATOM     14  C   UNL     1       7.894  14.181  20.374  0.00  0.00    +0.000 C 
ATOM     15  C   UNL     1       8.836  13.050  20.836  0.00  0.00    +0.000 C 
ATOM     16  C   UNL     1       8.415  13.042  22.265  0.00  0.00    +0.000 C 
ATOM     17  C   UNL     1       8.841  12.559  23.579  0.00  0.00    +0.000 C 
ATOM     18  C   UNL     1       7.832  13.403  24.514  0.00  0.00    +0.000 C 
ATOM     19  H   UNL     1       3.986  14.284  21.777  0.00  0.00    +0.000 HD
ENDROOT
BRANCH  18  20
ATOM     20  C   UNL     1       7.271  12.386  25.524  0.00  0.00    +0.000 C 
ATOM     21  O   UNL     1       6.652  11.378  25.206  0.00  0.00    +0.000 OA
ATOM     22  N   UNL     1       7.717  12.398  26.774  0.00  0.00    +0.000 N 
ATOM     23  H   UNL     1       7.959  13.250  27.310  0.00  0.00    +0.000 HD
BRANCH  22  24
ATOM     24  O   UNL     1       7.361  11.318  27.627  0.00  0.00    +0.000 OA
ATOM     25  H   UNL     1       7.650  10.568  27.068  0.00  0.00    +0.000 HD
ENDBRANCH  22  24
ENDBRANCH  18  20
BRANCH   5  26
ATOM     26  C   UNL     1       2.176  15.728  18.946  0.00  0.00    +0.000 C 
ATOM     27  O   UNL     1       2.142  14.689  18.243  0.00  0.00    +0.000 OA
BRANCH  26  28
ATOM     28  C   UNL     1       1.451  16.776  18.215  0.00  0.00    +0.000 A 
ATOM     29  C   UNL     1       1.735  17.696  17.228  0.00  0.00    +0.000 A 
ATOM     30  C   UNL     1       0.565  18.455  16.927  0.00  0.00    +0.000 A 
ATOM     31  C   UNL     1      -0.482  17.893  17.616  0.00  0.00    +0.000 A 
ATOM     32  N   UNL     1       0.028  16.821  18.295  0.00  0.00    +0.000 N 
ATOM     33  H   UNL     1      -0.553  16.130  18.780  0.00  0.00    +0.000 HD
ENDBRANCH  26  28
ENDBRANCH   5  26
BRANCH   1  34
ATOM     34  C   UNL     1       8.268  16.010  23.727  0.00  0.00    +0.000 C 
BRANCH  34  36
ATOM     35  C   UNL     1      10.696  16.033  21.998  0.00  0.00    +0.000 C 
ATOM     36  C   UNL     1      10.010  16.061  23.406  0.00  0.00    +0.000 C 
ATOM     37  C   UNL     1      11.136  16.585  24.374  0.00  0.00    +0.000 C 
ENDBRANCH  34  36
ENDBRANCH   1  34
TORSDOF 6
ENDMDL
MODEL 6
REMARK VINA RESULT:      -6.8      2.830      8.441
REMARK  Name = 
REMARK  8 active torsions:
REMARK  status: ('A' for Active; 'I' for Inactive)
REMARK    1  A    between atoms: C_1  and  C_2
REMARK    2  A    between atoms: C_2  and  C_3
REMARK    3  A    between atoms: C_2  and  C_4
REMARK    4  A    between atoms: C_4  and  C_5
REMARK    5  A    between atoms: C_9  and  C_10
REMARK    6  A    between atoms: C_10  and  C_12
REMARK    7  A    between atoms: C_29  and  C_30
REMARK    8  A    between atoms: N_32  and  O_33
REMARK                            x       y       z     vdW  Elec       q    Type
REMARK                         _______ _______ _______ _____ _____    ______ ____
ROOT
ATOM      1  C   UNL     1       1.848  14.957  18.194  0.00  0.00    +0.000 C 
ATOM      2  C   UNL     1       3.561  14.061  18.256  0.00  0.00    +0.000 C 
ATOM      3  O   UNL     1       3.394  12.826  18.447  0.00  0.00    +0.000 OA
ATOM      4  N   UNL     1       5.019  14.279  17.999  0.00  0.00    +0.000 N 
ATOM      5  C   UNL     1       6.881  14.099  17.737  0.00  0.00    +0.000 C 
ATOM      6  C   UNL     1       7.172  15.595  17.473  0.00  0.00    +0.000 C 
ATOM      7  C   UNL     1       6.910  16.181  18.873  0.00  0.00    +0.000 A 
ATOM      8  C   UNL     1       7.108  15.427  20.081  0.00  0.00    +0.000 A 
ATOM      9  C   UNL     1       6.359  15.641  21.203  0.00  0.00    +0.000 A 
ATOM     10  C   UNL     1       5.387  16.610  21.111  0.00  0.00    +0.000 A 
ATOM     11  C   UNL     1       5.290  17.475  20.002  0.00  0.00    +0.000 A 
ATOM     12  C   UNL     1       6.110  17.303  18.898  0.00  0.00    +0.000 A 
ATOM     13  O   UNL     1       4.327  16.439  21.983  0.00  0.00    +0.000 OA
ATOM     14  C   UNL     1       3.568  15.424  21.346  0.00  0.00    +0.000 C 
ATOM     15  C   UNL     1       2.328  14.898  22.097  0.00  0.00    +0.000 C 
ATOM     16  C   UNL     1       1.563  14.467  20.893  0.00  0.00    +0.000 C 
ATOM     17  C   UNL     1       0.211  14.095  20.471  0.00  0.00    +0.000 C 
ATOM     18  C   UNL     1       0.409  14.144  18.871  0.00  0.00    +0.000 C 
ATOM     19  H   UNL     1       5.073  13.271  18.129  0.00  0.00    +0.000 HD
ENDROOT
BRANCH  18  20
ATOM     20  C   UNL     1      -0.239  12.852  18.343  0.00  0.00    +0.000 C 
ATOM     21  O   UNL     1      -0.244  11.791  18.956  0.00  0.00    +0.000 OA
ATOM     22  N   UNL     1      -1.101  12.921  17.337  0.00  0.00    +0.000 N 
ATOM     23  H   UNL     1      -1.024  13.567  16.532  0.00  0.00    +0.000 HD
BRANCH  22  24
ATOM     24  O   UNL     1      -1.856  11.760  17.015  0.00  0.00    +0.000 OA
ATOM     25  H   UNL     1      -1.186  11.270  16.495  0.00  0.00    +0.000 HD
ENDBRANCH  22  24
ENDBRANCH  18  20
BRANCH   5  26
ATOM     26  C   UNL     1       8.661  13.947  18.344  0.00  0.00    +0.000 C 
ATOM     27  O   UNL     1       9.536  14.680  17.824  0.00  0.00    +0.000 OA
BRANCH  26  28
ATOM     28  C   UNL     1       9.324  13.135  19.374  0.00  0.00    +0.000 A 
ATOM     29  C   UNL     1       8.992  12.588  20.595  0.00  0.00    +0.000 A 
ATOM     30  C   UNL     1      10.108  11.873  21.121  0.00  0.00    +0.000 A 
ATOM     31  C   UNL     1      11.077  11.842  20.149  0.00  0.00    +0.000 A 
ATOM     32  N   UNL     1      10.563  12.499  19.065  0.00  0.00    +0.000 N 
ATOM     33  H   UNL     1      11.010  12.508  18.144  0.00  0.00    +0.000 HD
ENDBRANCH  26  28
ENDBRANCH   5  26
BRANCH   1  34
ATOM     34  C   UNL     1       1.409  16.677  18.432  0.00  0.00    +0.000 C 
BRANCH  34  36
ATOM     35  C   UNL     1       0.002  18.630  16.672  0.00  0.00    +0.000 C 
ATOM     36  C   UNL     1       0.099  17.785  17.989  0.00  0.00    +0.000 C 
ATOM     37  C   UNL     1      -1.367  17.794  18.562  0.00  0.00    +0.000 C 
ENDBRANCH  34  36
ENDBRANCH   1  34
TORSDOF 6
ENDMDL
MODEL 7
REMARK VINA RESULT:      -6.8      2.686      8.478
REMARK  Name = 
REMARK  8 active torsions:
REMARK  status: ('A' for Active; 'I' for Inactive)
REMARK    1  A    between atoms: C_1  and  C_2
REMARK    2  A    between atoms: C_2  and  C_3
REMARK    3  A    between atoms: C_2  and  C_4
REMARK    4  A    between atoms: C_4  and  C_5
REMARK    5  A    between atoms: C_9  and  C_10
REMARK    6  A    between atoms: C_10  and  C_12
REMARK    7  A    between atoms: C_29  and  C_30
REMARK    8  A    between atoms: N_32  and  O_33
REMARK                            x       y       z     vdW  Elec       q    Type
REMARK                         _______ _______ _______ _____ _____    ______ ____
ROOT
ATOM      1  C   UNL     1       2.089  15.125  18.146  0.00  0.00    +0.000 C 
ATOM      2  C   UNL     1       3.715  14.090  18.293  0.00  0.00    +0.000 C 
ATOM      3  O   UNL     1       3.440  12.890  18.567  0.00  0.00    +0.000 OA
ATOM      4  N   UNL     1       5.189  14.161  18.042  0.00  0.00    +0.000 N 
ATOM      5  C   UNL     1       7.030  13.802  17.820  0.00  0.00    +0.000 C 
ATOM      6  C   UNL     1       7.454  15.245  17.456  0.00  0.00    +0.000 C 
ATOM      7  C   UNL     1       7.234  15.948  18.809  0.00  0.00    +0.000 A 
ATOM      8  C   UNL     1       7.355  15.267  20.068  0.00  0.00    +0.000 A 
ATOM      9  C   UNL     1       6.619  15.623  21.162  0.00  0.00    +0.000 A 
ATOM     10  C   UNL     1       5.737  16.664  20.990  0.00  0.00    +0.000 A 
ATOM     11  C   UNL     1       5.724  17.454  19.822  0.00  0.00    +0.000 A 
ATOM     12  C   UNL     1       6.535  17.134  18.745  0.00  0.00    +0.000 A 
ATOM     13  O   UNL     1       4.659  16.648  21.857  0.00  0.00    +0.000 OA
ATOM     14  C   UNL     1       3.819  15.661  21.282  0.00  0.00    +0.000 C 
ATOM     15  C   UNL     1       2.531  15.299  22.050  0.00  0.00    +0.000 C 
ATOM     16  C   UNL     1       1.741  14.853  20.869  0.00  0.00    +0.000 C 
ATOM     17  C   UNL     1       0.365  14.570  20.455  0.00  0.00    +0.000 C 
ATOM     18  C   UNL     1       0.579  14.490  18.858  0.00  0.00    +0.000 C 
ATOM     19  H   UNL     1       5.154  13.164  18.243  0.00  0.00    +0.000 HD
ENDROOT
BRANCH  18  20
ATOM     20  C   UNL     1      -0.176  13.225  18.412  0.00  0.00    +0.000 C 
ATOM     21  O   UNL     1      -0.368  12.255  19.135  0.00  0.00    +0.000 OA
ATOM     22  N   UNL     1      -0.930  13.268  17.321  0.00  0.00    +0.000 N 
ATOM     23  H   UNL     1      -0.701  13.798  16.462  0.00  0.00    +0.000 HD
BRANCH  22  24
ATOM     24  O   UNL     1      -1.792  12.170  17.054  0.00  0.00    +0.000 OA
ATOM     25  H   UNL     1      -2.584  12.460  17.552  0.00  0.00    +0.000 HD
ENDBRANCH  22  24
ENDBRANCH  18  20
BRANCH   5  26
ATOM     26  C   UNL     1       8.785  13.539  18.460  0.00  0.00    +0.000 C 
ATOM     27  O   UNL     1       8.947  12.856  19.501  0.00  0.00    +0.000 OA
BRANCH  26  28
ATOM     28  C   UNL     1      10.116  13.948  17.992  0.00  0.00    +0.000 A 
ATOM     29  C   UNL     1      10.924  13.695  16.904  0.00  0.00    +0.000 A 
ATOM     30  C   UNL     1      12.142  14.426  17.028  0.00  0.00    +0.000 A 
ATOM     31  C   UNL     1      12.019  15.256  18.115  0.00  0.00    +0.000 A 
ATOM     32  N   UNL     1      10.765  15.051  18.622  0.00  0.00    +0.000 N 
ATOM     33  H   UNL     1      10.346  15.638  19.350  0.00  0.00    +0.000 HD
ENDBRANCH  26  28
ENDBRANCH   5  26
BRANCH   1  34
ATOM     34  C   UNL     1       1.800  16.889  18.258  0.00  0.00    +0.000 C 
BRANCH  34  36
ATOM     35  C   UNL     1      -0.143  18.619  16.802  0.00  0.00    +0.000 C 
ATOM     36  C   UNL     1       0.445  18.022  18.127  0.00  0.00    +0.000 C 
ATOM     37  C   UNL     1      -0.679  18.282  19.200  0.00  0.00    +0.000 C 
ENDBRANCH  34  36
ENDBRANCH   1  34
TORSDOF 6
ENDMDL
MODEL 8
REMARK VINA RESULT:      -6.8      3.132      5.032
REMARK  Name = 
REMARK  8 active torsions:
REMARK  status: ('A' for Active; 'I' for Inactive)
REMARK    1  A    between atoms: C_1  and  C_2
REMARK    2  A    between atoms: C_2  and  C_3
REMARK    3  A    between atoms: C_2  and  C_4
REMARK    4  A    between atoms: C_4  and  C_5
REMARK    5  A    between atoms: C_9  and  C_10
REMARK    6  A    between atoms: C_10  and  C_12
REMARK    7  A    between atoms: C_29  and  C_30
REMARK    8  A    between atoms: N_32  and  O_33
REMARK                            x       y       z     vdW  Elec       q    Type
REMARK                         _______ _______ _______ _____ _____    ______ ____
ROOT
ATOM      1  C   UNL     1       6.699  14.706  23.990  0.00  0.00    +0.000 C 
ATOM      2  C   UNL     1       5.271  14.441  22.713  0.00  0.00    +0.000 C 
ATOM      3  O   UNL     1       4.836  13.260  22.792  0.00  0.00    +0.000 OA
ATOM      4  N   UNL     1       4.379  15.181  21.766  0.00  0.00    +0.000 N 
ATOM      5  C   UNL     1       3.041  15.709  20.542  0.00  0.00    +0.000 C 
ATOM      6  C   UNL     1       3.494  17.181  20.401  0.00  0.00    +0.000 C 
ATOM      7  C   UNL     1       4.825  16.991  19.648  0.00  0.00    +0.000 A 
ATOM      8  C   UNL     1       5.063  15.887  18.758  0.00  0.00    +0.000 A 
ATOM      9  C   UNL     1       6.308  15.354  18.578  0.00  0.00    +0.000 A 
ATOM     10  C   UNL     1       7.325  15.919  19.310  0.00  0.00    +0.000 A 
ATOM     11  C   UNL     1       7.148  17.105  20.053  0.00  0.00    +0.000 A 
ATOM     12  C   UNL     1       5.895  17.687  20.165  0.00  0.00    +0.000 A 
ATOM     13  O   UNL     1       8.392  15.074  19.552  0.00  0.00    +0.000 OA
ATOM     14  C   UNL     1       7.903  14.258  20.604  0.00  0.00    +0.000 C 
ATOM     15  C   UNL     1       8.814  13.109  21.084  0.00  0.00    +0.000 C 
ATOM     16  C   UNL     1       8.284  13.033  22.474  0.00  0.00    +0.000 C 
ATOM     17  C   UNL     1       8.610  12.489  23.794  0.00  0.00    +0.000 C 
ATOM     18  C   UNL     1       7.527  13.286  24.686  0.00  0.00    +0.000 C 
ATOM     19  H   UNL     1       3.898  14.286  21.703  0.00  0.00    +0.000 HD
ENDROOT
BRANCH  18  20
ATOM     20  C   UNL     1       6.896  12.221  25.601  0.00  0.00    +0.000 C 
ATOM     21  O   UNL     1       6.746  12.362  26.809  0.00  0.00    +0.000 OA
ATOM     22  N   UNL     1       6.194  11.233  25.061  0.00  0.00    +0.000 N 
ATOM     23  H   UNL     1       6.421  10.762  24.168  0.00  0.00    +0.000 HD
BRANCH  22  24
ATOM     24  O   UNL     1       5.435  10.396  25.924  0.00  0.00    +0.000 OA
ATOM     25  H   UNL     1       4.684  10.190  25.330  0.00  0.00    +0.000 HD
ENDBRANCH  22  24
ENDBRANCH  18  20
BRANCH   5  26
ATOM     26  C   UNL     1       2.304  15.858  18.812  0.00  0.00    +0.000 C 
ATOM     27  O   UNL     1       2.539  14.948  17.980  0.00  0.00    +0.000 OA
BRANCH  26  28
ATOM     28  C   UNL     1       1.435  16.843  18.152  0.00  0.00    +0.000 A 
ATOM     29  C   UNL     1       0.200  17.410  18.381  0.00  0.00    +0.000 A 
ATOM     30  C   UNL     1      -0.101  18.341  17.343  0.00  0.00    +0.000 A 
ATOM     31  C   UNL     1       1.021  18.467  16.561  0.00  0.00    +0.000 A 
ATOM     32  N   UNL     1       1.975  17.657  17.112  0.00  0.00    +0.000 N 
ATOM     33  H   UNL     1       2.957  17.659  16.821  0.00  0.00    +0.000 HD
ENDBRANCH  26  28
ENDBRANCH   5  26
BRANCH   1  34
ATOM     34  C   UNL     1       8.007  15.929  24.058  0.00  0.00    +0.000 C 
BRANCH  34  36
ATOM     35  C   UNL     1      10.488  16.110  22.414  0.00  0.00    +0.000 C 
ATOM     36  C   UNL     1       9.758  16.013  23.798  0.00  0.00    +0.000 C 
ATOM     37  C   UNL     1      10.849  16.457  24.842  0.00  0.00    +0.000 C 
ENDBRANCH  34  36
ENDBRANCH   1  34
TORSDOF 6
ENDMDL
MODEL 9
REMARK VINA RESULT:      -6.7      6.278     12.119
REMARK  Name = 
REMARK  8 active torsions:
REMARK  status: ('A' for Active; 'I' for Inactive)
REMARK    1  A    between atoms: C_1  and  C_2
REMARK    2  A    between atoms: C_2  and  C_3
REMARK    3  A    between atoms: C_2  and  C_4
REMARK    4  A    between atoms: C_4  and  C_5
REMARK    5  A    between atoms: C_9  and  C_10
REMARK    6  A    between atoms: C_10  and  C_12
REMARK    7  A    between atoms: C_29  and  C_30
REMARK    8  A    between atoms: N_32  and  O_33
REMARK                            x       y       z     vdW  Elec       q    Type
REMARK                         _______ _______ _______ _____ _____    ______ ____
ROOT
ATOM      1  C   UNL     1      -5.362  14.220  20.813  0.00  0.00    +0.000 C 
ATOM      2  C   UNL     1      -3.631  13.489  20.355  0.00  0.00    +0.000 C 
ATOM      3  O   UNL     1      -3.693  12.230  20.312  0.00  0.00    +0.000 OA
ATOM      4  N   UNL     1      -2.271  13.884  19.873  0.00  0.00    +0.000 N 
ATOM      5  C   UNL     1      -0.496  13.929  19.227  0.00  0.00    +0.000 C 
ATOM      6  C   UNL     1      -0.341  15.468  19.230  0.00  0.00    +0.000 C 
ATOM      7  C   UNL     1      -0.336  15.744  20.746  0.00  0.00    +0.000 A 
ATOM      8  C   UNL     1       0.145  14.790  21.708  0.00  0.00    +0.000 A 
ATOM      9  C   UNL     1      -0.366  14.713  22.972  0.00  0.00    +0.000 A 
ATOM     10  C   UNL     1      -1.383  15.588  23.274  0.00  0.00    +0.000 A 
ATOM     11  C   UNL     1      -1.750  16.640  22.410  0.00  0.00    +0.000 A 
ATOM     12  C   UNL     1      -1.168  16.762  21.158  0.00  0.00    +0.000 A 
ATOM     13  O   UNL     1      -2.230  15.155  24.278  0.00  0.00    +0.000 OA
ATOM     14  C   UNL     1      -3.052  14.218  23.602  0.00  0.00    +0.000 C 
ATOM     15  C   UNL     1      -4.083  13.446  24.450  0.00  0.00    +0.000 C 
ATOM     16  C   UNL     1      -5.058  13.190  23.353  0.00  0.00    +0.000 C 
ATOM     17  C   UNL     1      -6.447  12.785  23.131  0.00  0.00    +0.000 C 
ATOM     18  C   UNL     1      -6.587  13.163  21.569  0.00  0.00    +0.000 C 
ATOM     19  H   UNL     1      -2.140  12.879  19.777  0.00  0.00    +0.000 HD
ENDROOT
BRANCH  18  20
ATOM     20  C   UNL     1      -7.266  11.945  20.917  0.00  0.00    +0.000 C 
ATOM     21  O   UNL     1      -7.514  11.862  19.720  0.00  0.00    +0.000 OA
ATOM     22  N   UNL     1      -7.318  10.797  21.581  0.00  0.00    +0.000 N 
ATOM     23  H   UNL     1      -7.460  10.708  22.602  0.00  0.00    +0.000 HD
BRANCH  22  24
ATOM     24  O   UNL     1      -7.739   9.633  20.883  0.00  0.00    +0.000 OA
ATOM     25  H   UNL     1      -8.593   9.473  21.335  0.00  0.00    +0.000 HD
ENDBRANCH  22  24
ENDBRANCH  18  20
BRANCH   5  26
ATOM     26  C   UNL     1       1.376  13.825  19.435  0.00  0.00    +0.000 C 
ATOM     27  O   UNL     1       1.858  12.833  20.035  0.00  0.00    +0.000 OA
BRANCH  26  28
ATOM     28  C   UNL     1       2.500  14.672  19.014  0.00  0.00    +0.000 A 
ATOM     29  C   UNL     1       3.351  15.583  19.602  0.00  0.00    +0.000 A 
ATOM     30  C   UNL     1       4.272  16.078  18.631  0.00  0.00    +0.000 A 
ATOM     31  C   UNL     1       4.092  15.350  17.480  0.00  0.00    +0.000 A 
ATOM     32  N   UNL     1       3.111  14.434  17.746  0.00  0.00    +0.000 N 
ATOM     33  H   UNL     1       2.869  13.665  17.116  0.00  0.00    +0.000 HD
ENDBRANCH  26  28
ENDBRANCH   5  26
BRANCH   1  34
ATOM     34  C   UNL     1      -5.828  15.814  21.485  0.00  0.00    +0.000 C 
BRANCH  34  36
ATOM     35  C   UNL     1      -5.598  16.898  24.253  0.00  0.00    +0.000 C 
ATOM     36  C   UNL     1      -6.448  16.482  23.004  0.00  0.00    +0.000 C 
ATOM     37  C   UNL     1      -7.836  17.193  23.228  0.00  0.00    +0.000 C 
ENDBRANCH  34  36
ENDBRANCH   1  34
TORSDOF 6
ENDMDL
