MODEL 1
REMARK VINA RESULT:      -8.2      0.000      0.000
REMARK  Name = 
REMARK  12 active torsions:
REMARK  status: ('A' for Active; 'I' for Inactive)
REMARK    1  A    between atoms: C_1  and  C_2
REMARK    2  A    between atoms: C_2  and  C_3
REMARK    3  A    between atoms: C_2  and  C_4
REMARK    4  A    between atoms: C_4  and  C_5
REMARK    5  A    between atoms: C_5  and  C_6
REMARK    6  A    between atoms: C_8  and  N_9
REMARK    7  A    between atoms: N_9  and  C_10
REMARK    8  A    between atoms: C_10  and  C_11
REMARK    9  A    between atoms: N_19  and  C_20
REMARK   10  A    between atoms: C_20  and  C_21
REMARK   11  A    between atoms: C_21  and  C_22
REMARK   12  A    between atoms: C_21  and  C_23
REMARK                            x       y       z     vdW  Elec       q    Type
REMARK                         _______ _______ _______ _____ _____    ______ ____
ROOT
ATOM      1  C   UNL     1       7.388   7.221  17.377  0.00  0.00    +0.000 A 
ATOM      2  C   UNL     1       6.688   6.616  18.398  0.00  0.00    +0.000 A 
ATOM      3  C   UNL     1       6.163   5.370  18.139  0.00  0.00    +0.000 A 
ATOM      4  N   UNL     1       6.284   4.798  16.927  0.00  0.00    +0.000 NA
ATOM      5  C   UNL     1       6.986   5.446  15.991  0.00  0.00    +0.000 A 
ATOM      6  N   UNL     1       7.125   4.915  14.716  0.00  0.00    +0.000 N 
ATOM      7  N   UNL     1       7.593   6.619  16.192  0.00  0.00    +0.000 NA
ATOM      8  H   UNL     1       8.063   4.564  14.631  0.00  0.00    +0.000 HD
ENDROOT
BRANCH   3   9
ATOM      9  N   UNL     1       5.383   4.744  19.116  0.00  0.00    +0.000 N 
ATOM     10  H   UNL     1       5.244   3.753  18.990  0.00  0.00    +0.000 HD
BRANCH   9  11
ATOM     11  C   UNL     1       4.197   5.455  19.579  0.00  0.00    +0.000 C 
BRANCH  11  12
ATOM     12  C   UNL     1       2.999   4.537  19.535  0.00  0.00    +0.000 A 
ATOM     13  C   UNL     1       2.701   3.856  18.346  0.00  0.00    +0.000 A 
ATOM     14  C   UNL     1       1.610   2.994  18.271  0.00  0.00    +0.000 A 
ATOM     15  C   UNL     1       0.806   2.790  19.390  0.00  0.00    +0.000 A 
ATOM     16  C   UNL     1       1.096   3.449  20.584  0.00  0.00    +0.000 A 
ATOM     17  C   UNL     1       2.188   4.320  20.659  0.00  0.00    +0.000 A 
ENDBRANCH  11  12
ENDBRANCH   9  11
ENDBRANCH   3   9
BRANCH   1  18
ATOM     18  C   UNL     1       7.926   8.622  17.534  0.00  0.00    +0.000 C 
BRANCH  18  19
ATOM     19  C   UNL     1       8.676   8.799  18.854  0.00  0.00    +0.000 C 
BRANCH  19  21
ATOM     20  C   UNL     1       8.802  11.154  18.004  0.00  0.00    +0.000 C 
ATOM     21  C   UNL     1       9.418  10.144  18.975  0.00  0.00    +0.000 C 
ATOM     22  C   UNL     1       9.384  10.710  20.395  0.00  0.00    +0.000 C 
ENDBRANCH  19  21
ENDBRANCH  18  19
ENDBRANCH   1  18
BRANCH   6  23
ATOM     23  C   UNL     1       6.068   4.042  14.241  0.00  0.00    +0.000 C 
BRANCH  23  24
ATOM     24  C   UNL     1       6.396   3.566  12.810  0.00  0.00    +0.000 C 
ATOM     25  C   UNL     1       5.120   3.386  11.982  0.00  0.00    +0.000 C 
ATOM     26  C   UNL     1       7.334   4.543  12.094  0.00  0.00    +0.000 C 
ENDBRANCH  23  24
ENDBRANCH   6  23
TORSDOF 8
ENDMDL
MODEL 2
REMARK VINA RESULT:      -8.1      0.897      1.428
REMARK  Name = 
REMARK  12 active torsions:
REMARK  status: ('A' for Active; 'I' for Inactive)
REMARK    1  A    between atoms: C_1  and  C_2
REMARK    2  A    between atoms: C_2  and  C_3
REMARK    3  A    between atoms: C_2  and  C_4
REMARK    4  A    between atoms: C_4  and  C_5
REMARK    5  A    between atoms: C_5  and  C_6
REMARK    6  A    between atoms: C_8  and  N_9
REMARK    7  A    between atoms: N_9  and  C_10
REMARK    8  A    between atoms: C_10  and  C_11
REMARK    9  A    between atoms: N_19  and  C_20
REMARK   10  A    between atoms: C_20  and  C_21
REMARK   11  A    between atoms: C_21  and  C_22
REMARK   12  A    between atoms: C_21  and  C_23
REMARK                            x       y       z     vdW  Elec       q    Type
REMARK                         _______ _______ _______ _____ _____    ______ ____
ROOT
ATOM      1  C   UNL     1       7.397   7.162  17.408  0.00  0.00    +0.000 A 
ATOM      2  C   UNL     1       6.952   6.416  18.477  0.00  0.00    +0.000 A 
ATOM      3  C   UNL     1       6.626   5.101  18.226  0.00  0.00    +0.000 A 
ATOM      4  N   UNL     1       6.688   4.591  16.983  0.00  0.00    +0.000 NA
ATOM      5  C   UNL     1       7.137   5.378  15.999  0.00  0.00    +0.000 A 
ATOM      6  N   UNL     1       7.202   4.913  14.693  0.00  0.00    +0.000 N 
ATOM      7  N   UNL     1       7.549   6.636  16.179  0.00  0.00    +0.000 NA
ATOM      8  H   UNL     1       8.167   4.740  14.476  0.00  0.00    +0.000 HD
ENDROOT
BRANCH   3   9
ATOM      9  N   UNL     1       6.103   4.322  19.261  0.00  0.00    +0.000 N 
ATOM     10  H   UNL     1       6.783   3.929  19.895  0.00  0.00    +0.000 HD
BRANCH   9  11
ATOM     11  C   UNL     1       5.013   3.413  18.927  0.00  0.00    +0.000 C 
BRANCH  11  12
ATOM     12  C   UNL     1       3.724   3.909  19.540  0.00  0.00    +0.000 A 
ATOM     13  C   UNL     1       2.999   3.060  20.388  0.00  0.00    +0.000 A 
ATOM     14  C   UNL     1       1.812   3.486  20.979  0.00  0.00    +0.000 A 
ATOM     15  C   UNL     1       1.338   4.774  20.739  0.00  0.00    +0.000 A 
ATOM     16  C   UNL     1       2.055   5.635  19.909  0.00  0.00    +0.000 A 
ATOM     17  C   UNL     1       3.244   5.206  19.310  0.00  0.00    +0.000 A 
ENDBRANCH  11  12
ENDBRANCH   9  11
ENDBRANCH   3   9
BRANCH   1  18
ATOM     18  C   UNL     1       7.695   8.633  17.564  0.00  0.00    +0.000 C 
BRANCH  18  19
ATOM     19  C   UNL     1       8.711   8.893  18.676  0.00  0.00    +0.000 C 
BRANCH  19  21
ATOM     20  C   UNL     1       9.401  10.633  20.343  0.00  0.00    +0.000 C 
ATOM     21  C   UNL     1       9.051  10.382  18.875  0.00  0.00    +0.000 C 
ATOM     22  C   UNL     1      10.204  10.848  17.985  0.00  0.00    +0.000 C 
ENDBRANCH  19  21
ENDBRANCH  18  19
ENDBRANCH   1  18
BRANCH   6  23
ATOM     23  C   UNL     1       6.263   3.875  14.311  0.00  0.00    +0.000 C 
BRANCH  23  24
ATOM     24  C   UNL     1       6.458   3.525  12.821  0.00  0.00    +0.000 C 
ATOM     25  C   UNL     1       5.111   3.395  12.103  0.00  0.00    +0.000 C 
ATOM     26  C   UNL     1       7.317   4.573  12.105  0.00  0.00    +0.000 C 
ENDBRANCH  23  24
ENDBRANCH   6  23
TORSDOF 8
ENDMDL
MODEL 3
REMARK VINA RESULT:      -8.0      0.942      5.770
REMARK  Name = 
REMARK  12 active torsions:
REMARK  status: ('A' for Active; 'I' for Inactive)
REMARK    1  A    between atoms: C_1  and  C_2
REMARK    2  A    between atoms: C_2  and  C_3
REMARK    3  A    between atoms: C_2  and  C_4
REMARK    4  A    between atoms: C_4  and  C_5
REMARK    5  A    between atoms: C_5  and  C_6
REMARK    6  A    between atoms: C_8  and  N_9
REMARK    7  A    between atoms: N_9  and  C_10
REMARK    8  A    between atoms: C_10  and  C_11
REMARK    9  A    between atoms: N_19  and  C_20
REMARK   10  A    between atoms: C_20  and  C_21
REMARK   11  A    between atoms: C_21  and  C_22
REMARK   12  A    between atoms: C_21  and  C_23
REMARK                            x       y       z     vdW  Elec       q    Type
REMARK                         _______ _______ _______ _____ _____    ______ ____
ROOT
ATOM      1  C   UNL     1       6.758   4.984  15.929  0.00  0.00    +0.000 A 
ATOM      2  C   UNL     1       6.125   4.378  16.992  0.00  0.00    +0.000 A 
ATOM      3  C   UNL     1       6.057   5.095  18.166  0.00  0.00    +0.000 A 
ATOM      4  N   UNL     1       6.632   6.307  18.280  0.00  0.00    +0.000 NA
ATOM      5  C   UNL     1       7.220   6.830  17.199  0.00  0.00    +0.000 A 
ATOM      6  N   UNL     1       7.849   8.066  17.263  0.00  0.00    +0.000 N 
ATOM      7  N   UNL     1       7.255   6.232  16.005  0.00  0.00    +0.000 NA
ATOM      8  H   UNL     1       7.262   8.733  16.794  0.00  0.00    +0.000 HD
ENDROOT
BRANCH   3   9
ATOM      9  N   UNL     1       5.490   4.498  19.295  0.00  0.00    +0.000 N 
ATOM     10  H   UNL     1       5.499   3.489  19.303  0.00  0.00    +0.000 HD
BRANCH   9  11
ATOM     11  C   UNL     1       4.257   5.082  19.811  0.00  0.00    +0.000 C 
BRANCH  11  12
ATOM     12  C   UNL     1       3.084   4.196  19.464  0.00  0.00    +0.000 A 
ATOM     13  C   UNL     1       2.375   4.431  18.278  0.00  0.00    +0.000 A 
ATOM     14  C   UNL     1       1.294   3.628  17.921  0.00  0.00    +0.000 A 
ATOM     15  C   UNL     1       0.914   2.569  18.742  0.00  0.00    +0.000 A 
ATOM     16  C   UNL     1       1.617   2.313  19.918  0.00  0.00    +0.000 A 
ATOM     17  C   UNL     1       2.699   3.123  20.281  0.00  0.00    +0.000 A 
ENDBRANCH  11  12
ENDBRANCH   9  11
ENDBRANCH   3   9
BRANCH   1  18
ATOM     18  C   UNL     1       6.959   4.246  14.628  0.00  0.00    +0.000 C 
BRANCH  18  19
ATOM     19  C   UNL     1       5.660   4.133  13.830  0.00  0.00    +0.000 C 
BRANCH  19  21
ATOM     20  C   UNL     1       4.487   3.373  11.750  0.00  0.00    +0.000 C 
ATOM     21  C   UNL     1       5.780   3.268  12.562  0.00  0.00    +0.000 C 
ATOM     22  C   UNL     1       6.969   3.666  11.686  0.00  0.00    +0.000 C 
ENDBRANCH  19  21
ENDBRANCH  18  19
ENDBRANCH   1  18
BRANCH   6  23
ATOM     23  C   UNL     1       8.382   8.473  18.549  0.00  0.00    +0.000 C 
BRANCH  23  24
ATOM     24  C   UNL     1       9.038   9.864  18.419  0.00  0.00    +0.000 C 
ATOM     25  C   UNL     1       8.096  10.858  17.732  0.00  0.00    +0.000 C 
ATOM     26  C   UNL     1       9.455  10.419  19.785  0.00  0.00    +0.000 C 
ENDBRANCH  23  24
ENDBRANCH   6  23
TORSDOF 8
ENDMDL
MODEL 4
REMARK VINA RESULT:      -7.9      0.864      1.522
REMARK  Name = 
REMARK  12 active torsions:
REMARK  status: ('A' for Active; 'I' for Inactive)
REMARK    1  A    between atoms: C_1  and  C_2
REMARK    2  A    between atoms: C_2  and  C_3
REMARK    3  A    between atoms: C_2  and  C_4
REMARK    4  A    between atoms: C_4  and  C_5
REMARK    5  A    between atoms: C_5  and  C_6
REMARK    6  A    between atoms: C_8  and  N_9
REMARK    7  A    between atoms: N_9  and  C_10
REMARK    8  A    between atoms: C_10  and  C_11
REMARK    9  A    between atoms: N_19  and  C_20
REMARK   10  A    between atoms: C_20  and  C_21
REMARK   11  A    between atoms: C_21  and  C_22
REMARK   12  A    between atoms: C_21  and  C_23
REMARK                            x       y       z     vdW  Elec       q    Type
REMARK                         _______ _______ _______ _____ _____    ______ ____
ROOT
ATOM      1  C   UNL     1       7.638   6.542  18.078  0.00  0.00    +0.000 A 
ATOM      2  C   UNL     1       6.956   5.678  18.906  0.00  0.00    +0.000 A 
ATOM      3  C   UNL     1       6.354   4.591  18.312  0.00  0.00    +0.000 A 
ATOM      4  N   UNL     1       6.387   4.417  16.978  0.00  0.00    +0.000 NA
ATOM      5  C   UNL     1       7.077   5.297  16.243  0.00  0.00    +0.000 A 
ATOM      6  N   UNL     1       7.127   5.180  14.861  0.00  0.00    +0.000 N 
ATOM      7  N   UNL     1       7.754   6.328  16.755  0.00  0.00    +0.000 NA
ATOM      8  H   UNL     1       8.040   4.839  14.615  0.00  0.00    +0.000 HD
ENDROOT
BRANCH   3   9
ATOM      9  N   UNL     1       5.591   3.723  19.097  0.00  0.00    +0.000 N 
ATOM     10  H   UNL     1       6.116   3.111  19.703  0.00  0.00    +0.000 HD
BRANCH   9  11
ATOM     11  C   UNL     1       4.442   3.086  18.464  0.00  0.00    +0.000 C 
BRANCH  11  12
ATOM     12  C   UNL     1       3.176   3.468  19.194  0.00  0.00    +0.000 A 
ATOM     13  C   UNL     1       3.112   4.703  19.854  0.00  0.00    +0.000 A 
ATOM     14  C   UNL     1       1.958   5.092  20.530  0.00  0.00    +0.000 A 
ATOM     15  C   UNL     1       0.844   4.256  20.544  0.00  0.00    +0.000 A 
ATOM     16  C   UNL     1       0.887   3.031  19.880  0.00  0.00    +0.000 A 
ATOM     17  C   UNL     1       2.048   2.635  19.207  0.00  0.00    +0.000 A 
ENDBRANCH  11  12
ENDBRANCH   9  11
ENDBRANCH   3   9
BRANCH   1  18
ATOM     18  C   UNL     1       8.257   7.807  18.622  0.00  0.00    +0.000 C 
BRANCH  18  19
ATOM     19  C   UNL     1       8.029   8.998  17.692  0.00  0.00    +0.000 C 
BRANCH  19  21
ATOM     20  C   UNL     1       8.135  11.502  17.673  0.00  0.00    +0.000 C 
ATOM     21  C   UNL     1       8.900  10.224  18.024  0.00  0.00    +0.000 C 
ATOM     22  C   UNL     1       9.324  10.267  19.493  0.00  0.00    +0.000 C 
ENDBRANCH  19  21
ENDBRANCH  18  19
ENDBRANCH   1  18
BRANCH   6  23
ATOM     23  C   UNL     1       6.004   4.533  14.208  0.00  0.00    +0.000 C 
BRANCH  23  24
ATOM     24  C   UNL     1       6.272   4.440  12.691  0.00  0.00    +0.000 C 
ATOM     25  C   UNL     1       7.680   4.937  12.348  0.00  0.00    +0.000 C 
ATOM     26  C   UNL     1       6.098   3.007  12.177  0.00  0.00    +0.000 C 
ENDBRANCH  23  24
ENDBRANCH   6  23
TORSDOF 8
ENDMDL
MODEL 5
REMARK VINA RESULT:      -7.9      1.031      5.802
REMARK  Name = 
REMARK  12 active torsions:
REMARK  status: ('A' for Active; 'I' for Inactive)
REMARK    1  A    between atoms: C_1  and  C_2
REMARK    2  A    between atoms: C_2  and  C_3
REMARK    3  A    between atoms: C_2  and  C_4
REMARK    4  A    between atoms: C_4  and  C_5
REMARK    5  A    between atoms: C_5  and  C_6
REMARK    6  A    between atoms: C_8  and  N_9
REMARK    7  A    between atoms: N_9  and  C_10
REMARK    8  A    between atoms: C_10  and  C_11
REMARK    9  A    between atoms: N_19  and  C_20
REMARK   10  A    between atoms: C_20  and  C_21
REMARK   11  A    between atoms: C_21  and  C_22
REMARK   12  A    between atoms: C_21  and  C_23
REMARK                            x       y       z     vdW  Elec       q    Type
REMARK                         _______ _______ _______ _____ _____    ______ ____
ROOT
ATOM      1  C   UNL     1       6.893   5.086  15.875  0.00  0.00    +0.000 A 
ATOM      2  C   UNL     1       6.289   4.415  16.917  0.00  0.00    +0.000 A 
ATOM      3  C   UNL     1       6.206   5.081  18.120  0.00  0.00    +0.000 A 
ATOM      4  N   UNL     1       6.739   6.306  18.280  0.00  0.00    +0.000 NA
ATOM      5  C   UNL     1       7.301   6.893  17.217  0.00  0.00    +0.000 A 
ATOM      6  N   UNL     1       7.887   8.147  17.328  0.00  0.00    +0.000 N 
ATOM      7  N   UNL     1       7.347   6.346  16.000  0.00  0.00    +0.000 NA
ATOM      8  H   UNL     1       7.274   8.811  16.891  0.00  0.00    +0.000 HD
ENDROOT
BRANCH   3   9
ATOM      9  N   UNL     1       5.667   4.418  19.226  0.00  0.00    +0.000 N 
ATOM     10  H   UNL     1       6.299   4.288  20.003  0.00  0.00    +0.000 HD
BRANCH   9  11
ATOM     11  C   UNL     1       4.807   3.271  18.964  0.00  0.00    +0.000 C 
BRANCH  11  12
ATOM     12  C   UNL     1       3.404   3.561  19.442  0.00  0.00    +0.000 A 
ATOM     13  C   UNL     1       2.402   2.599  19.249  0.00  0.00    +0.000 A 
ATOM     14  C   UNL     1       1.099   2.827  19.685  0.00  0.00    +0.000 A 
ATOM     15  C   UNL     1       0.782   4.018  20.334  0.00  0.00    +0.000 A 
ATOM     16  C   UNL     1       1.769   4.979  20.546  0.00  0.00    +0.000 A 
ATOM     17  C   UNL     1       3.077   4.754  20.103  0.00  0.00    +0.000 A 
ENDBRANCH  11  12
ENDBRANCH   9  11
ENDBRANCH   3   9
BRANCH   1  18
ATOM     18  C   UNL     1       7.110   4.409  14.544  0.00  0.00    +0.000 C 
BRANCH  18  19
ATOM     19  C   UNL     1       5.798   3.906  13.940  0.00  0.00    +0.000 C 
BRANCH  19  21
ATOM     20  C   UNL     1       7.197   4.210  11.883  0.00  0.00    +0.000 C 
ATOM     21  C   UNL     1       5.818   3.801  12.404  0.00  0.00    +0.000 C 
ATOM     22  C   UNL     1       5.476   2.397  11.904  0.00  0.00    +0.000 C 
ENDBRANCH  19  21
ENDBRANCH  18  19
ENDBRANCH   1  18
BRANCH   6  23
ATOM     23  C   UNL     1       8.415   8.519  18.627  0.00  0.00    +0.000 C 
BRANCH  23  24
ATOM     24  C   UNL     1       9.078   9.910  18.535  0.00  0.00    +0.000 C 
ATOM     25  C   UNL     1       8.215  10.881  17.723  0.00  0.00    +0.000 C 
ATOM     26  C   UNL     1       9.340  10.501  19.924  0.00  0.00    +0.000 C 
ENDBRANCH  23  24
ENDBRANCH   6  23
TORSDOF 8
ENDMDL
MODEL 6
REMARK VINA RESULT:      -7.9      0.710      1.346
REMARK  Name = 
REMARK  12 active torsions:
REMARK  status: ('A' for Active; 'I' for Inactive)
REMARK    1  A    between atoms: C_1  and  C_2
REMARK    2  A    between atoms: C_2  and  C_3
REMARK    3  A    between atoms: C_2  and  C_4
REMARK    4  A    between atoms: C_4  and  C_5
REMARK    5  A    between atoms: C_5  and  C_6
REMARK    6  A    between atoms: C_8  and  N_9
REMARK    7  A    between atoms: N_9  and  C_10
REMARK    8  A    between atoms: C_10  and  C_11
REMARK    9  A    between atoms: N_19  and  C_20
REMARK   10  A    between atoms: C_20  and  C_21
REMARK   11  A    between atoms: C_21  and  C_22
REMARK   12  A    between atoms: C_21  and  C_23
REMARK                            x       y       z     vdW  Elec       q    Type
REMARK                         _______ _______ _______ _____ _____    ______ ____
ROOT
ATOM      1  C   UNL     1       7.260   7.252  17.392  0.00  0.00    +0.000 A 
ATOM      2  C   UNL     1       6.553   6.683  18.429  0.00  0.00    +0.000 A 
ATOM      3  C   UNL     1       6.103   5.395  18.242  0.00  0.00    +0.000 A 
ATOM      4  N   UNL     1       6.300   4.747  17.079  0.00  0.00    +0.000 NA
ATOM      5  C   UNL     1       7.003   5.365  16.124  0.00  0.00    +0.000 A 
ATOM      6  N   UNL     1       7.218   4.755  14.896  0.00  0.00    +0.000 N 
ATOM      7  N   UNL     1       7.540   6.580  16.260  0.00  0.00    +0.000 NA
ATOM      8  H   UNL     1       8.175   4.450  14.868  0.00  0.00    +0.000 HD
ENDROOT
BRANCH   3   9
ATOM      9  N   UNL     1       5.321   4.799  19.234  0.00  0.00    +0.000 N 
ATOM     10  H   UNL     1       5.621   4.967  20.183  0.00  0.00    +0.000 HD
BRANCH   9  11
ATOM     11  C   UNL     1       4.860   3.437  18.992  0.00  0.00    +0.000 C 
BRANCH  11  12
ATOM     12  C   UNL     1       3.385   3.330  19.302  0.00  0.00    +0.000 A 
ATOM     13  C   UNL     1       2.861   4.044  20.390  0.00  0.00    +0.000 A 
ATOM     14  C   UNL     1       1.505   3.978  20.701  0.00  0.00    +0.000 A 
ATOM     15  C   UNL     1       0.650   3.205  19.919  0.00  0.00    +0.000 A 
ATOM     16  C   UNL     1       1.152   2.501  18.826  0.00  0.00    +0.000 A 
ATOM     17  C   UNL     1       2.515   2.561  18.517  0.00  0.00    +0.000 A 
ENDBRANCH  11  12
ENDBRANCH   9  11
ENDBRANCH   3   9
BRANCH   1  18
ATOM     18  C   UNL     1       7.719   8.688  17.466  0.00  0.00    +0.000 C 
BRANCH  18  19
ATOM     19  C   UNL     1       8.698   8.914  18.617  0.00  0.00    +0.000 C 
BRANCH  19  21
ATOM     20  C   UNL     1       9.452  10.554  20.356  0.00  0.00    +0.000 C 
ATOM     21  C   UNL     1       8.991  10.398  18.905  0.00  0.00    +0.000 C 
ATOM     22  C   UNL     1      10.046  10.985  17.966  0.00  0.00    +0.000 C 
ENDBRANCH  19  21
ENDBRANCH  18  19
ENDBRANCH   1  18
BRANCH   6  23
ATOM     23  C   UNL     1       6.226   3.794  14.449  0.00  0.00    +0.000 C 
BRANCH  23  24
ATOM     24  C   UNL     1       6.391   3.548  12.935  0.00  0.00    +0.000 C 
ATOM     25  C   UNL     1       5.033   3.514  12.229  0.00  0.00    +0.000 C 
ATOM     26  C   UNL     1       7.275   4.618  12.285  0.00  0.00    +0.000 C 
ENDBRANCH  23  24
ENDBRANCH   6  23
TORSDOF 8
ENDMDL
MODEL 7
REMARK VINA RESULT:      -7.7      1.028      5.845
REMARK  Name = 
REMARK  12 active torsions:
REMARK  status: ('A' for Active; 'I' for Inactive)
REMARK    1  A    between atoms: C_1  and  C_2
REMARK    2  A    between atoms: C_2  and  C_3
REMARK    3  A    between atoms: C_2  and  C_4
REMARK    4  A    between atoms: C_4  and  C_5
REMARK    5  A    between atoms: C_5  and  C_6
REMARK    6  A    between atoms: C_8  and  N_9
REMARK    7  A    between atoms: N_9  and  C_10
REMARK    8  A    between atoms: C_10  and  C_11
REMARK    9  A    between atoms: N_19  and  C_20
REMARK   10  A    between atoms: C_20  and  C_21
REMARK   11  A    between atoms: C_21  and  C_22
REMARK   12  A    between atoms: C_21  and  C_23
REMARK                            x       y       z     vdW  Elec       q    Type
REMARK                         _______ _______ _______ _____ _____    ______ ____
ROOT
ATOM      1  C   UNL     1       6.475   5.376  15.845  0.00  0.00    +0.000 A 
ATOM      2  C   UNL     1       5.280   5.348  16.530  0.00  0.00    +0.000 A 
ATOM      3  C   UNL     1       5.059   6.360  17.437  0.00  0.00    +0.000 A 
ATOM      4  N   UNL     1       5.993   7.298  17.679  0.00  0.00    +0.000 NA
ATOM      5  C   UNL     1       7.125   7.261  16.966  0.00  0.00    +0.000 A 
ATOM      6  N   UNL     1       8.132   8.189  17.188  0.00  0.00    +0.000 N 
ATOM      7  N   UNL     1       7.376   6.360  16.013  0.00  0.00    +0.000 NA
ATOM      8  H   UNL     1       8.123   8.840  16.423  0.00  0.00    +0.000 HD
ENDROOT
BRANCH   3   9
ATOM      9  N   UNL     1       3.895   6.339  18.210  0.00  0.00    +0.000 N 
ATOM     10  H   UNL     1       3.429   7.227  18.317  0.00  0.00    +0.000 HD
BRANCH   9  11
ATOM     11  C   UNL     1       3.914   5.531  19.423  0.00  0.00    +0.000 C 
BRANCH  11  12
ATOM     12  C   UNL     1       2.804   4.507  19.376  0.00  0.00    +0.000 A 
ATOM     13  C   UNL     1       1.798   4.543  20.352  0.00  0.00    +0.000 A 
ATOM     14  C   UNL     1       0.753   3.622  20.336  0.00  0.00    +0.000 A 
ATOM     15  C   UNL     1       0.693   2.657  19.333  0.00  0.00    +0.000 A 
ATOM     16  C   UNL     1       1.678   2.616  18.347  0.00  0.00    +0.000 A 
ATOM     17  C   UNL     1       2.731   3.537  18.367  0.00  0.00    +0.000 A 
ENDBRANCH  11  12
ENDBRANCH   9  11
ENDBRANCH   3   9
BRANCH   1  18
ATOM     18  C   UNL     1       6.846   4.264  14.894  0.00  0.00    +0.000 C 
BRANCH  18  19
ATOM     19  C   UNL     1       5.644   3.786  14.080  0.00  0.00    +0.000 C 
BRANCH  19  21
ATOM     20  C   UNL     1       4.729   3.419  11.776  0.00  0.00    +0.000 C 
ATOM     21  C   UNL     1       5.992   3.372  12.638  0.00  0.00    +0.000 C 
ATOM     22  C   UNL     1       7.073   4.256  12.014  0.00  0.00    +0.000 C 
ENDBRANCH  19  21
ENDBRANCH  18  19
ENDBRANCH   1  18
BRANCH   6  23
ATOM     23  C   UNL     1       8.225   8.763  18.518  0.00  0.00    +0.000 C 
BRANCH  23  24
ATOM     24  C   UNL     1       9.069  10.055  18.464  0.00  0.00    +0.000 C 
ATOM     25  C   UNL     1       8.314  11.178  17.748  0.00  0.00    +0.000 C 
ATOM     26  C   UNL     1       9.468  10.523  19.868  0.00  0.00    +0.000 C 
ENDBRANCH  23  24
ENDBRANCH   6  23
TORSDOF 8
ENDMDL
MODEL 8
REMARK VINA RESULT:      -7.7      3.035      3.655
REMARK  Name = 
REMARK  12 active torsions:
REMARK  status: ('A' for Active; 'I' for Inactive)
REMARK    1  A    between atoms: C_1  and  C_2
REMARK    2  A    between atoms: C_2  and  C_3
REMARK    3  A    between atoms: C_2  and  C_4
REMARK    4  A    between atoms: C_4  and  C_5
REMARK    5  A    between atoms: C_5  and  C_6
REMARK    6  A    between atoms: C_8  and  N_9
REMARK    7  A    between atoms: N_9  and  C_10
REMARK    8  A    between atoms: C_10  and  C_11
REMARK    9  A    between atoms: N_19  and  C_20
REMARK   10  A    between atoms: C_20  and  C_21
REMARK   11  A    between atoms: C_21  and  C_22
REMARK   12  A    between atoms: C_21  and  C_23
REMARK                            x       y       z     vdW  Elec       q    Type
REMARK                         _______ _______ _______ _____ _____    ______ ____
ROOT
ATOM      1  C   UNL     1       4.438   6.417  17.176  0.00  0.00    +0.000 A 
ATOM      2  C   UNL     1       4.549   5.451  18.153  0.00  0.00    +0.000 A 
ATOM      3  C   UNL     1       5.264   4.320  17.831  0.00  0.00    +0.000 A 
ATOM      4  N   UNL     1       5.780   4.145  16.600  0.00  0.00    +0.000 NA
ATOM      5  C   UNL     1       5.636   5.133  15.710  0.00  0.00    +0.000 A 
ATOM      6  N   UNL     1       6.129   5.000  14.419  0.00  0.00    +0.000 N 
ATOM      7  N   UNL     1       5.027   6.292  15.973  0.00  0.00    +0.000 NA
ATOM      8  H   UNL     1       6.952   5.570  14.345  0.00  0.00    +0.000 HD
ENDROOT
BRANCH   3   9
ATOM      9  N   UNL     1       5.346   3.280  18.761  0.00  0.00    +0.000 N 
ATOM     10  H   UNL     1       6.280   2.974  18.988  0.00  0.00    +0.000 HD
BRANCH   9  11
ATOM     11  C   UNL     1       4.382   2.194  18.635  0.00  0.00    +0.000 C 
BRANCH  11  12
ATOM     12  C   UNL     1       3.086   2.576  19.310  0.00  0.00    +0.000 A 
ATOM     13  C   UNL     1       1.898   2.571  18.565  0.00  0.00    +0.000 A 
ATOM     14  C   UNL     1       0.683   2.908  19.155  0.00  0.00    +0.000 A 
ATOM     15  C   UNL     1       0.636   3.245  20.506  0.00  0.00    +0.000 A 
ATOM     16  C   UNL     1       1.805   3.242  21.264  0.00  0.00    +0.000 A 
ATOM     17  C   UNL     1       3.028   2.910  20.671  0.00  0.00    +0.000 A 
ENDBRANCH  11  12
ENDBRANCH   9  11
ENDBRANCH   3   9
BRANCH   1  18
ATOM     18  C   UNL     1       3.602   7.653  17.403  0.00  0.00    +0.000 C 
BRANCH  18  19
ATOM     19  C   UNL     1       2.516   7.420  18.453  0.00  0.00    +0.000 C 
BRANCH  19  21
ATOM     20  C   UNL     1       1.015   9.395  18.091  0.00  0.00    +0.000 C 
ATOM     21  C   UNL     1       1.965   8.716  19.079  0.00  0.00    +0.000 C 
ATOM     22  C   UNL     1       1.240   8.470  20.402  0.00  0.00    +0.000 C 
ENDBRANCH  19  21
ENDBRANCH  18  19
ENDBRANCH   1  18
BRANCH   6  23
ATOM     23  C   UNL     1       6.229   3.656  13.882  0.00  0.00    +0.000 C 
BRANCH  23  24
ATOM     24  C   UNL     1       6.101   3.703  12.345  0.00  0.00    +0.000 C 
ATOM     25  C   UNL     1       7.068   2.719  11.679  0.00  0.00    +0.000 C 
ATOM     26  C   UNL     1       4.670   3.396  11.891  0.00  0.00    +0.000 C 
ENDBRANCH  23  24
ENDBRANCH   6  23
TORSDOF 8
ENDMDL
MODEL 9
REMARK VINA RESULT:      -7.7      1.264      5.879
REMARK  Name = 
REMARK  12 active torsions:
REMARK  status: ('A' for Active; 'I' for Inactive)
REMARK    1  A    between atoms: C_1  and  C_2
REMARK    2  A    between atoms: C_2  and  C_3
REMARK    3  A    between atoms: C_2  and  C_4
REMARK    4  A    between atoms: C_4  and  C_5
REMARK    5  A    between atoms: C_5  and  C_6
REMARK    6  A    between atoms: C_8  and  N_9
REMARK    7  A    between atoms: N_9  and  C_10
REMARK    8  A    between atoms: C_10  and  C_11
REMARK    9  A    between atoms: N_19  and  C_20
REMARK   10  A    between atoms: C_20  and  C_21
REMARK   11  A    between atoms: C_21  and  C_22
REMARK   12  A    between atoms: C_21  and  C_23
REMARK                            x       y       z     vdW  Elec       q    Type
REMARK                         _______ _______ _______ _____ _____    ______ ____
ROOT
ATOM      1  C   UNL     1       6.056   4.997  15.774  0.00  0.00    +0.000 A 
ATOM      2  C   UNL     1       4.886   5.095  16.494  0.00  0.00    +0.000 A 
ATOM      3  C   UNL     1       4.795   6.132  17.395  0.00  0.00    +0.000 A 
ATOM      4  N   UNL     1       5.824   6.975  17.598  0.00  0.00    +0.000 NA
ATOM      5  C   UNL     1       6.924   6.818  16.853  0.00  0.00    +0.000 A 
ATOM      6  N   UNL     1       8.026   7.643  17.034  0.00  0.00    +0.000 N 
ATOM      7  N   UNL     1       7.056   5.888  15.904  0.00  0.00    +0.000 NA
ATOM      8  H   UNL     1       8.058   8.285  16.262  0.00  0.00    +0.000 HD
ENDROOT
BRANCH   3   9
ATOM      9  N   UNL     1       3.658   6.234  18.201  0.00  0.00    +0.000 N 
ATOM     10  H   UNL     1       3.833   6.270  19.194  0.00  0.00    +0.000 HD
BRANCH   9  11
ATOM     11  C   UNL     1       2.503   5.423  17.833  0.00  0.00    +0.000 C 
BRANCH  11  12
ATOM     12  C   UNL     1       2.094   4.553  18.997  0.00  0.00    +0.000 A 
ATOM     13  C   UNL     1       1.323   3.407  18.757  0.00  0.00    +0.000 A 
ATOM     14  C   UNL     1       0.935   2.575  19.805  0.00  0.00    +0.000 A 
ATOM     15  C   UNL     1       1.324   2.871  21.109  0.00  0.00    +0.000 A 
ATOM     16  C   UNL     1       2.102   4.000  21.363  0.00  0.00    +0.000 A 
ATOM     17  C   UNL     1       2.487   4.840  20.312  0.00  0.00    +0.000 A 
ENDBRANCH  11  12
ENDBRANCH   9  11
ENDBRANCH   3   9
BRANCH   1  18
ATOM     18  C   UNL     1       6.286   3.845  14.826  0.00  0.00    +0.000 C 
BRANCH  18  19
ATOM     19  C   UNL     1       5.996   4.233  13.377  0.00  0.00    +0.000 C 
BRANCH  19  21
ATOM     20  C   UNL     1       4.436   3.401  11.600  0.00  0.00    +0.000 C 
ATOM     21  C   UNL     1       5.641   3.040  12.470  0.00  0.00    +0.000 C 
ATOM     22  C   UNL     1       6.807   2.609  11.579  0.00  0.00    +0.000 C 
ENDBRANCH  19  21
ENDBRANCH  18  19
ENDBRANCH   1  18
BRANCH   6  23
ATOM     23  C   UNL     1       8.215   8.217  18.353  0.00  0.00    +0.000 C 
BRANCH  23  24
ATOM     24  C   UNL     1       8.838   9.623  18.220  0.00  0.00    +0.000 C 
ATOM     25  C   UNL     1       7.842  10.612  17.607  0.00  0.00    +0.000 C 
ATOM     26  C   UNL     1       9.317  10.156  19.574  0.00  0.00    +0.000 C 
ENDBRANCH  23  24
ENDBRANCH   6  23
TORSDOF 8
ENDMDL
