MODEL 1
REMARK VINA RESULT:      -7.7      0.000      0.000
REMARK  Name = 
REMARK  4 active torsions:
REMARK  status: ('A' for Active; 'I' for Inactive)
REMARK    1  A    between atoms: C_1  and  C_2
REMARK    2  A    between atoms: C_4  and  C_5
REMARK    3  A    between atoms: C_5  and  N_6
REMARK    4  A    between atoms: N_6  and  C_7
REMARK                            x       y       z     vdW  Elec       q    Type
REMARK                         _______ _______ _______ _____ _____    ______ ____
ROOT
ATOM      1  N   UNL     1       5.633   3.687  18.570  0.00  0.00    +0.000 N 
ATOM      2  H   UNL     1       6.278   3.037  19.013  0.00  0.00    +0.000 HD
ENDROOT
BRANCH   1   3
ATOM      3  C   UNL     1       4.287   3.610  18.876  0.00  0.00    +0.000 A 
ATOM      4  C   UNL     1       3.744   4.582  19.729  0.00  0.00    +0.000 A 
ATOM      5  C   UNL     1       2.409   4.518  20.127  0.00  0.00    +0.000 A 
ATOM      6  F   UNL     1       1.917   5.473  20.927  0.00  0.00    +0.000 F 
ATOM      7  C   UNL     1       1.597   3.477  19.702  0.00  0.00    +0.000 A 
ATOM      8  F   UNL     1       0.315   3.418  20.087  0.00  0.00    +0.000 F 
ATOM      9  C   UNL     1       2.105   2.488  18.875  0.00  0.00    +0.000 A 
ATOM     10  C   UNL     1       3.437   2.559  18.476  0.00  0.00    +0.000 A 
ATOM     11  F   UNL     1       3.895   1.582  17.677  0.00  0.00    +0.000 F 
ENDBRANCH   1   3
BRANCH   1  12
ATOM     12  C   UNL     1       6.286   4.886  18.033  0.00  0.00    +0.000 C 
BRANCH  12  16
ATOM     13  C   UNL     1       6.182   3.750  13.212  0.00  0.00    +0.000 C 
ATOM     14  C   UNL     1       6.468   4.290  14.551  0.00  0.00    +0.000 A 
ATOM     15  N   UNL     1       5.936   3.974  15.710  0.00  0.00    +0.000 NA
ATOM     16  C   UNL     1       6.589   4.843  16.563  0.00  0.00    +0.000 A 
ATOM     17  N   UNL     1       7.492   5.638  15.976  0.00  0.00    +0.000 NA
ATOM     18  O   UNL     1       7.410   5.271  14.630  0.00  0.00    +0.000 OA
ENDBRANCH  12  16
ENDBRANCH   1  12
TORSDOF 3
ENDMDL
MODEL 2
REMARK VINA RESULT:      -7.6      1.459      1.542
REMARK  Name = 
REMARK  4 active torsions:
REMARK  status: ('A' for Active; 'I' for Inactive)
REMARK    1  A    between atoms: C_1  and  C_2
REMARK    2  A    between atoms: C_4  and  C_5
REMARK    3  A    between atoms: C_5  and  N_6
REMARK    4  A    between atoms: N_6  and  C_7
REMARK                            x       y       z     vdW  Elec       q    Type
REMARK                         _______ _______ _______ _____ _____    ______ ____
ROOT
ATOM      1  N   UNL     1       5.452   3.660  18.974  0.00  0.00    +0.000 N 
ATOM      2  H   UNL     1       6.128   3.197  19.576  0.00  0.00    +0.000 HD
ENDROOT
BRANCH   1   3
ATOM      3  C   UNL     1       4.108   3.373  19.129  0.00  0.00    +0.000 A 
ATOM      4  C   UNL     1       3.194   3.981  18.257  0.00  0.00    +0.000 A 
ATOM      5  C   UNL     1       1.822   3.783  18.408  0.00  0.00    +0.000 A 
ATOM      6  F   UNL     1       0.977   4.363  17.545  0.00  0.00    +0.000 F 
ATOM      7  C   UNL     1       1.333   2.995  19.440  0.00  0.00    +0.000 A 
ATOM      8  F   UNL     1       0.014   2.808  19.582  0.00  0.00    +0.000 F 
ATOM      9  C   UNL     1       2.206   2.395  20.333  0.00  0.00    +0.000 A 
ATOM     10  C   UNL     1       3.576   2.591  20.175  0.00  0.00    +0.000 A 
ATOM     11  F   UNL     1       4.391   1.996  21.060  0.00  0.00    +0.000 F 
ENDBRANCH   1   3
BRANCH   1  12
ATOM     12  C   UNL     1       5.962   4.887  18.353  0.00  0.00    +0.000 C 
BRANCH  12  16
ATOM     13  C   UNL     1       6.199   3.823  13.521  0.00  0.00    +0.000 C 
ATOM     14  C   UNL     1       6.448   4.242  14.909  0.00  0.00    +0.000 A 
ATOM     15  N   UNL     1       5.674   4.135  15.965  0.00  0.00    +0.000 NA
ATOM     16  C   UNL     1       6.448   4.733  16.941  0.00  0.00    +0.000 A 
ATOM     17  N   UNL     1       7.644   5.166  16.525  0.00  0.00    +0.000 NA
ATOM     18  O   UNL     1       7.645   4.840  15.166  0.00  0.00    +0.000 OA
ENDBRANCH  12  16
ENDBRANCH   1  12
TORSDOF 3
ENDMDL
MODEL 3
REMARK VINA RESULT:      -7.6      1.453      2.274
REMARK  Name = 
REMARK  4 active torsions:
REMARK  status: ('A' for Active; 'I' for Inactive)
REMARK    1  A    between atoms: C_1  and  C_2
REMARK    2  A    between atoms: C_4  and  C_5
REMARK    3  A    between atoms: C_5  and  N_6
REMARK    4  A    between atoms: N_6  and  C_7
REMARK                            x       y       z     vdW  Elec       q    Type
REMARK                         _______ _______ _______ _____ _____    ______ ____
ROOT
ATOM      1  N   UNL     1       5.460   5.262  18.002  0.00  0.00    +0.000 N 
ATOM      2  H   UNL     1       5.480   6.279  17.965  0.00  0.00    +0.000 HD
ENDROOT
BRANCH   1   3
ATOM      3  C   UNL     1       4.243   4.619  18.132  0.00  0.00    +0.000 A 
ATOM      4  C   UNL     1       4.245   3.236  18.367  0.00  0.00    +0.000 A 
ATOM      5  C   UNL     1       3.049   2.522  18.440  0.00  0.00    +0.000 A 
ATOM      6  F   UNL     1       3.086   1.206  18.686  0.00  0.00    +0.000 F 
ATOM      7  C   UNL     1       1.833   3.165  18.260  0.00  0.00    +0.000 A 
ATOM      8  F   UNL     1       0.687   2.475  18.330  0.00  0.00    +0.000 F 
ATOM      9  C   UNL     1       1.794   4.526  18.006  0.00  0.00    +0.000 A 
ATOM     10  C   UNL     1       2.990   5.236  17.939  0.00  0.00    +0.000 A 
ATOM     11  F   UNL     1       2.914   6.553  17.689  0.00  0.00    +0.000 F 
ENDBRANCH   1   3
BRANCH   1  12
ATOM     12  C   UNL     1       6.667   4.632  17.456  0.00  0.00    +0.000 C 
BRANCH  12  16
ATOM     13  C   UNL     1       6.047   3.554  12.661  0.00  0.00    +0.000 C 
ATOM     14  C   UNL     1       6.446   4.107  13.965  0.00  0.00    +0.000 A 
ATOM     15  N   UNL     1       6.115   3.715  15.175  0.00  0.00    +0.000 NA
ATOM     16  C   UNL     1       6.772   4.645  15.958  0.00  0.00    +0.000 A 
ATOM     17  N   UNL     1       7.489   5.549  15.280  0.00  0.00    +0.000 NA
ATOM     18  O   UNL     1       7.269   5.193  13.947  0.00  0.00    +0.000 OA
ENDBRANCH  12  16
ENDBRANCH   1  12
TORSDOF 3
ENDMDL
MODEL 4
REMARK VINA RESULT:      -7.4      2.368      3.054
REMARK  Name = 
REMARK  4 active torsions:
REMARK  status: ('A' for Active; 'I' for Inactive)
REMARK    1  A    between atoms: C_1  and  C_2
REMARK    2  A    between atoms: C_4  and  C_5
REMARK    3  A    between atoms: C_5  and  N_6
REMARK    4  A    between atoms: N_6  and  C_7
REMARK                            x       y       z     vdW  Elec       q    Type
REMARK                         _______ _______ _______ _____ _____    ______ ____
ROOT
ATOM      1  N   UNL     1       5.710   3.743  18.369  0.00  0.00    +0.000 N 
ATOM      2  H   UNL     1       6.397   3.602  19.105  0.00  0.00    +0.000 HD
ENDROOT
BRANCH   1   3
ATOM      3  C   UNL     1       4.377   3.486  18.636  0.00  0.00    +0.000 A 
ATOM      4  C   UNL     1       3.408   4.126  17.851  0.00  0.00    +0.000 A 
ATOM      5  C   UNL     1       2.049   3.958  18.117  0.00  0.00    +0.000 A 
ATOM      6  F   UNL     1       1.147   4.568  17.335  0.00  0.00    +0.000 F 
ATOM      7  C   UNL     1       1.631   3.170  19.179  0.00  0.00    +0.000 A 
ATOM      8  F   UNL     1       0.325   3.012  19.432  0.00  0.00    +0.000 F 
ATOM      9  C   UNL     1       2.562   2.539  19.989  0.00  0.00    +0.000 A 
ATOM     10  C   UNL     1       3.918   2.705  19.716  0.00  0.00    +0.000 A 
ATOM     11  F   UNL     1       4.790   2.081  20.523  0.00  0.00    +0.000 F 
ENDBRANCH   1   3
BRANCH   1  12
ATOM     12  C   UNL     1       6.175   4.625  17.293  0.00  0.00    +0.000 C 
BRANCH  12  16
ATOM     13  C   UNL     1       8.092   9.176  17.681  0.00  0.00    +0.000 C 
ATOM     14  C   UNL     1       7.737   7.755  17.819  0.00  0.00    +0.000 A 
ATOM     15  N   UNL     1       6.917   7.025  17.097  0.00  0.00    +0.000 NA
ATOM     16  C   UNL     1       6.988   5.805  17.741  0.00  0.00    +0.000 A 
ATOM     17  N   UNL     1       7.821   5.767  18.788  0.00  0.00    +0.000 NA
ATOM     18  O   UNL     1       8.321   7.071  18.843  0.00  0.00    +0.000 OA
ENDBRANCH  12  16
ENDBRANCH   1  12
TORSDOF 3
ENDMDL
MODEL 5
REMARK VINA RESULT:      -7.4      1.654      1.851
REMARK  Name = 
REMARK  4 active torsions:
REMARK  status: ('A' for Active; 'I' for Inactive)
REMARK    1  A    between atoms: C_1  and  C_2
REMARK    2  A    between atoms: C_4  and  C_5
REMARK    3  A    between atoms: C_5  and  N_6
REMARK    4  A    between atoms: N_6  and  C_7
REMARK                            x       y       z     vdW  Elec       q    Type
REMARK                         _______ _______ _______ _____ _____    ______ ____
ROOT
ATOM      1  N   UNL     1       4.048   4.022  17.219  0.00  0.00    +0.000 N 
ATOM      2  H   UNL     1       3.853   3.545  16.341  0.00  0.00    +0.000 HD
ENDROOT
BRANCH   1   3
ATOM      3  C   UNL     1       3.246   3.762  18.315  0.00  0.00    +0.000 A 
ATOM      4  C   UNL     1       3.816   3.099  19.412  0.00  0.00    +0.000 A 
ATOM      5  C   UNL     1       3.041   2.750  20.517  0.00  0.00    +0.000 A 
ATOM      6  F   UNL     1       3.621   2.136  21.557  0.00  0.00    +0.000 F 
ATOM      7  C   UNL     1       1.683   3.034  20.544  0.00  0.00    +0.000 A 
ATOM      8  F   UNL     1       0.942   2.696  21.607  0.00  0.00    +0.000 F 
ATOM      9  C   UNL     1       1.082   3.669  19.469  0.00  0.00    +0.000 A 
ATOM     10  C   UNL     1       1.862   4.020  18.369  0.00  0.00    +0.000 A 
ATOM     11  F   UNL     1       1.245   4.632  17.346  0.00  0.00    +0.000 F 
ENDBRANCH   1   3
BRANCH   1  12
ATOM     12  C   UNL     1       5.411   4.555  17.307  0.00  0.00    +0.000 C 
BRANCH  12  16
ATOM     13  C   UNL     1       6.777   3.934  12.587  0.00  0.00    +0.000 C 
ATOM     14  C   UNL     1       6.637   4.328  13.997  0.00  0.00    +0.000 A 
ATOM     15  N   UNL     1       5.792   3.896  14.905  0.00  0.00    +0.000 NA
ATOM     16  C   UNL     1       6.140   4.665  15.999  0.00  0.00    +0.000 A 
ATOM     17  N   UNL     1       7.157   5.510  15.794  0.00  0.00    +0.000 NA
ATOM     18  O   UNL     1       7.489   5.288  14.455  0.00  0.00    +0.000 OA
ENDBRANCH  12  16
ENDBRANCH   1  12
TORSDOF 3
ENDMDL
MODEL 6
REMARK VINA RESULT:      -7.3      1.993      3.007
REMARK  Name = 
REMARK  4 active torsions:
REMARK  status: ('A' for Active; 'I' for Inactive)
REMARK    1  A    between atoms: C_1  and  C_2
REMARK    2  A    between atoms: C_4  and  C_5
REMARK    3  A    between atoms: C_5  and  N_6
REMARK    4  A    between atoms: N_6  and  C_7
REMARK                            x       y       z     vdW  Elec       q    Type
REMARK                         _______ _______ _______ _____ _____    ______ ____
ROOT
ATOM      1  N   UNL     1       3.961   4.624  17.143  0.00  0.00    +0.000 N 
ATOM      2  H   UNL     1       3.505   4.946  16.292  0.00  0.00    +0.000 HD
ENDROOT
BRANCH   1   3
ATOM      3  C   UNL     1       3.181   4.195  18.201  0.00  0.00    +0.000 A 
ATOM      4  C   UNL     1       2.096   3.351  17.926  0.00  0.00    +0.000 A 
ATOM      5  C   UNL     1       1.234   2.941  18.943  0.00  0.00    +0.000 A 
ATOM      6  F   UNL     1       0.218   2.118  18.650  0.00  0.00    +0.000 F 
ATOM      7  C   UNL     1       1.424   3.379  20.246  0.00  0.00    +0.000 A 
ATOM      8  F   UNL     1       0.594   2.983  21.220  0.00  0.00    +0.000 F 
ATOM      9  C   UNL     1       2.474   4.230  20.550  0.00  0.00    +0.000 A 
ATOM     10  C   UNL     1       3.335   4.633  19.532  0.00  0.00    +0.000 A 
ATOM     11  F   UNL     1       4.339   5.459  19.864  0.00  0.00    +0.000 F 
ENDBRANCH   1   3
BRANCH   1  12
ATOM     12  C   UNL     1       5.363   4.239  16.947  0.00  0.00    +0.000 C 
BRANCH  12  16
ATOM     13  C   UNL     1       7.968   8.343  17.896  0.00  0.00    +0.000 C 
ATOM     14  C   UNL     1       7.371   7.126  17.325  0.00  0.00    +0.000 A 
ATOM     15  N   UNL     1       6.399   6.374  17.791  0.00  0.00    +0.000 NA
ATOM     16  C   UNL     1       6.329   5.382  16.833  0.00  0.00    +0.000 A 
ATOM     17  N   UNL     1       7.189   5.517  15.816  0.00  0.00    +0.000 NA
ATOM     18  O   UNL     1       7.889   6.682  16.146  0.00  0.00    +0.000 OA
ENDBRANCH  12  16
ENDBRANCH   1  12
TORSDOF 3
ENDMDL
MODEL 7
REMARK VINA RESULT:      -7.3      1.577      2.191
REMARK  Name = 
REMARK  4 active torsions:
REMARK  status: ('A' for Active; 'I' for Inactive)
REMARK    1  A    between atoms: C_1  and  C_2
REMARK    2  A    between atoms: C_4  and  C_5
REMARK    3  A    between atoms: C_5  and  N_6
REMARK    4  A    between atoms: N_6  and  C_7
REMARK                            x       y       z     vdW  Elec       q    Type
REMARK                         _______ _______ _______ _____ _____    ______ ____
ROOT
ATOM      1  N   UNL     1       3.761   5.034  17.218  0.00  0.00    +0.000 N 
ATOM      2  H   UNL     1       3.408   4.925  16.270  0.00  0.00    +0.000 HD
ENDROOT
BRANCH   1   3
ATOM      3  C   UNL     1       3.064   4.456  18.264  0.00  0.00    +0.000 A 
ATOM      4  C   UNL     1       2.013   3.580  17.957  0.00  0.00    +0.000 A 
ATOM      5  C   UNL     1       1.232   3.020  18.967  0.00  0.00    +0.000 A 
ATOM      6  F   UNL     1       0.248   2.170  18.641  0.00  0.00    +0.000 F 
ATOM      7  C   UNL     1       1.467   3.338  20.297  0.00  0.00    +0.000 A 
ATOM      8  F   UNL     1       0.713   2.799  21.265  0.00  0.00    +0.000 F 
ATOM      9  C   UNL     1       2.483   4.217  20.636  0.00  0.00    +0.000 A 
ATOM     10  C   UNL     1       3.264   4.769  19.624  0.00  0.00    +0.000 A 
ATOM     11  F   UNL     1       4.238   5.617  19.989  0.00  0.00    +0.000 F 
ENDBRANCH   1   3
BRANCH   1  12
ATOM     12  C   UNL     1       5.182   5.392  17.278  0.00  0.00    +0.000 C 
BRANCH  12  16
ATOM     13  C   UNL     1       6.503   3.785  12.783  0.00  0.00    +0.000 C 
ATOM     14  C   UNL     1       6.423   4.393  14.120  0.00  0.00    +0.000 A 
ATOM     15  N   UNL     1       5.459   4.330  15.010  0.00  0.00    +0.000 NA
ATOM     16  C   UNL     1       5.961   5.124  16.023  0.00  0.00    +0.000 A 
ATOM     17  N   UNL     1       7.176   5.634  15.790  0.00  0.00    +0.000 NA
ATOM     18  O   UNL     1       7.485   5.149  14.517  0.00  0.00    +0.000 OA
ENDBRANCH  12  16
ENDBRANCH   1  12
TORSDOF 3
ENDMDL
MODEL 8
REMARK VINA RESULT:      -7.3      1.376      2.212
REMARK  Name = 
REMARK  4 active torsions:
REMARK  status: ('A' for Active; 'I' for Inactive)
REMARK    1  A    between atoms: C_1  and  C_2
REMARK    2  A    between atoms: C_4  and  C_5
REMARK    3  A    between atoms: C_5  and  N_6
REMARK    4  A    between atoms: N_6  and  C_7
REMARK                            x       y       z     vdW  Elec       q    Type
REMARK                         _______ _______ _______ _____ _____    ______ ____
ROOT
ATOM      1  N   UNL     1       6.070   3.936  17.672  0.00  0.00    +0.000 N 
ATOM      2  H   UNL     1       6.778   3.301  18.031  0.00  0.00    +0.000 HD
ENDROOT
BRANCH   1   3
ATOM      3  C   UNL     1       4.823   3.957  18.270  0.00  0.00    +0.000 A 
ATOM      4  C   UNL     1       3.840   3.081  17.787  0.00  0.00    +0.000 A 
ATOM      5  C   UNL     1       2.546   3.104  18.305  0.00  0.00    +0.000 A 
ATOM      6  F   UNL     1       1.636   2.239  17.835  0.00  0.00    +0.000 F 
ATOM      7  C   UNL     1       2.199   4.011  19.295  0.00  0.00    +0.000 A 
ATOM      8  F   UNL     1       0.954   4.030  19.789  0.00  0.00    +0.000 F 
ATOM      9  C   UNL     1       3.138   4.906  19.782  0.00  0.00    +0.000 A 
ATOM     10  C   UNL     1       4.432   4.875  19.266  0.00  0.00    +0.000 A 
ATOM     11  F   UNL     1       5.314   5.758  19.759  0.00  0.00    +0.000 F 
ENDBRANCH   1   3
BRANCH   1  12
ATOM     12  C   UNL     1       6.619   5.043  16.882  0.00  0.00    +0.000 C 
BRANCH  12  16
ATOM     13  C   UNL     1       5.869   3.267  12.320  0.00  0.00    +0.000 C 
ATOM     14  C   UNL     1       6.343   3.965  13.525  0.00  0.00    +0.000 A 
ATOM     15  N   UNL     1       5.942   3.847  14.771  0.00  0.00    +0.000 NA
ATOM     16  C   UNL     1       6.737   4.780  15.409  0.00  0.00    +0.000 A 
ATOM     17  N   UNL     1       7.599   5.425  14.614  0.00  0.00    +0.000 NA
ATOM     18  O   UNL     1       7.335   4.884  13.353  0.00  0.00    +0.000 OA
ENDBRANCH  12  16
ENDBRANCH   1  12
TORSDOF 3
ENDMDL
MODEL 9
REMARK VINA RESULT:      -7.2      2.102      2.758
REMARK  Name = 
REMARK  4 active torsions:
REMARK  status: ('A' for Active; 'I' for Inactive)
REMARK    1  A    between atoms: C_1  and  C_2
REMARK    2  A    between atoms: C_4  and  C_5
REMARK    3  A    between atoms: C_5  and  N_6
REMARK    4  A    between atoms: N_6  and  C_7
REMARK                            x       y       z     vdW  Elec       q    Type
REMARK                         _______ _______ _______ _____ _____    ______ ____
ROOT
ATOM      1  N   UNL     1       4.009   4.193  17.336  0.00  0.00    +0.000 N 
ATOM      2  H   UNL     1       3.585   4.330  16.422  0.00  0.00    +0.000 HD
ENDROOT
BRANCH   1   3
ATOM      3  C   UNL     1       3.199   3.876  18.411  0.00  0.00    +0.000 A 
ATOM      4  C   UNL     1       3.773   3.200  19.497  0.00  0.00    +0.000 A 
ATOM      5  C   UNL     1       2.992   2.793  20.579  0.00  0.00    +0.000 A 
ATOM      6  F   UNL     1       3.575   2.167  21.610  0.00  0.00    +0.000 F 
ATOM      7  C   UNL     1       1.626   3.033  20.591  0.00  0.00    +0.000 A 
ATOM      8  F   UNL     1       0.879   2.640  21.631  0.00  0.00    +0.000 F 
ATOM      9  C   UNL     1       1.021   3.680  19.525  0.00  0.00    +0.000 A 
ATOM     10  C   UNL     1       1.806   4.088  18.449  0.00  0.00    +0.000 A 
ATOM     11  F   UNL     1       1.186   4.710  17.434  0.00  0.00    +0.000 F 
ENDBRANCH   1   3
BRANCH   1  12
ATOM     12  C   UNL     1       5.447   3.907  17.279  0.00  0.00    +0.000 C 
BRANCH  12  16
ATOM     13  C   UNL     1       7.798   8.246  17.702  0.00  0.00    +0.000 C 
ATOM     14  C   UNL     1       7.263   6.942  17.280  0.00  0.00    +0.000 A 
ATOM     15  N   UNL     1       6.369   6.177  17.865  0.00  0.00    +0.000 NA
ATOM     16  C   UNL     1       6.324   5.094  17.008  0.00  0.00    +0.000 A 
ATOM     17  N   UNL     1       7.125   5.187  15.940  0.00  0.00    +0.000 NA
ATOM     18  O   UNL     1       7.755   6.421  16.121  0.00  0.00    +0.000 OA
ENDBRANCH  12  16
ENDBRANCH   1  12
TORSDOF 3
ENDMDL
