MODEL 1
REMARK VINA RESULT:      -6.6      0.000      0.000
REMARK  Name = 
REMARK  6 active torsions:
REMARK  status: ('A' for Active; 'I' for Inactive)
REMARK    1  A    between atoms: C_1  and  O_2
REMARK    2  A    between atoms: O_2  and  C_3
REMARK    3  A    between atoms: C_9  and  C_10
REMARK    4  A    between atoms: C_10  and  C_11
REMARK    5  A    between atoms: C_11  and  N_12
REMARK    6  A    between atoms: C_13  and  C_14
REMARK                            x       y       z     vdW  Elec       q    Type
REMARK                         _______ _______ _______ _____ _____    ______ ____
ROOT
ATOM      1  C   UNL     1       6.545   5.726  16.391  0.00  0.00    +0.000 A 
ATOM      2  C   UNL     1       7.411   6.530  17.146  0.00  0.00    +0.000 A 
ATOM      3  C   UNL     1       7.541   6.350  18.525  0.00  0.00    +0.000 A 
ATOM      4  C   UNL     1       6.813   5.367  19.202  0.00  0.00    +0.000 A 
ATOM      5  C   UNL     1       5.945   4.572  18.444  0.00  0.00    +0.000 A 
ATOM      6  N   UNL     1       5.103   3.548  18.828  0.00  0.00    +0.000 N 
ATOM      7  C   UNL     1       4.412   3.055  17.743  0.00  0.00    +0.000 A 
ATOM      8  C   UNL     1       4.840   3.771  16.642  0.00  0.00    +0.000 A 
ATOM      9  C   UNL     1       5.798   4.733  17.067  0.00  0.00    +0.000 A 
ATOM     10  H   UNL     1       5.005   3.219  19.779  0.00  0.00    +0.000 HD
ENDROOT
BRANCH   1  12
ATOM     11  C   UNL     1       6.983   4.932  14.200  0.00  0.00    +0.000 C 
ATOM     12  O   UNL     1       6.327   5.867  15.045  0.00  0.00    +0.000 OA
ENDBRANCH   1  12
BRANCH   7  13
ATOM     13  C   UNL     1       3.390   1.966  17.875  0.00  0.00    +0.000 C 
BRANCH  13  14
ATOM     14  C   UNL     1       1.983   2.501  18.173  0.00  0.00    +0.000 C 
BRANCH  14  15
ATOM     15  N   UNL     1       1.560   2.243  19.540  0.00  0.00    +0.000 N 
ATOM     16  C   UNL     1       1.877   3.097  20.569  0.00  0.00    +0.000 C 
ATOM     17  C   UNL     1       1.406   2.644  21.925  0.00  0.00    +0.000 C 
ATOM     18  O   UNL     1       2.495   4.145  20.417  0.00  0.00    +0.000 OA
ATOM     19  H   UNL     1       1.021   1.412  19.726  0.00  0.00    +0.000 HD
ENDBRANCH  14  15
ENDBRANCH  13  14
ENDBRANCH   7  13
TORSDOF 4
ENDMDL
MODEL 2
REMARK VINA RESULT:      -6.6      1.728      6.137
REMARK  Name = 
REMARK  6 active torsions:
REMARK  status: ('A' for Active; 'I' for Inactive)
REMARK    1  A    between atoms: C_1  and  O_2
REMARK    2  A    between atoms: O_2  and  C_3
REMARK    3  A    between atoms: C_9  and  C_10
REMARK    4  A    between atoms: C_10  and  C_11
REMARK    5  A    between atoms: C_11  and  N_12
REMARK    6  A    between atoms: C_13  and  C_14
REMARK                            x       y       z     vdW  Elec       q    Type
REMARK                         _______ _______ _______ _____ _____    ______ ____
ROOT
ATOM      1  C   UNL     1       2.453   4.150  19.899  0.00  0.00    +0.000 A 
ATOM      2  C   UNL     1       1.390   3.303  19.553  0.00  0.00    +0.000 A 
ATOM      3  C   UNL     1       1.501   2.409  18.485  0.00  0.00    +0.000 A 
ATOM      4  C   UNL     1       2.671   2.327  17.724  0.00  0.00    +0.000 A 
ATOM      5  C   UNL     1       3.726   3.180  18.071  0.00  0.00    +0.000 A 
ATOM      6  N   UNL     1       4.976   3.332  17.507  0.00  0.00    +0.000 N 
ATOM      7  C   UNL     1       5.688   4.311  18.164  0.00  0.00    +0.000 A 
ATOM      8  C   UNL     1       4.878   4.776  19.181  0.00  0.00    +0.000 A 
ATOM      9  C   UNL     1       3.638   4.081  19.131  0.00  0.00    +0.000 A 
ATOM     10  H   UNL     1       5.310   2.802  16.714  0.00  0.00    +0.000 HD
ENDROOT
BRANCH   1  12
ATOM     11  C   UNL     1       1.753   6.308  20.592  0.00  0.00    +0.000 C 
ATOM     12  O   UNL     1       2.408   5.085  20.901  0.00  0.00    +0.000 OA
ENDBRANCH   1  12
BRANCH   7  13
ATOM     13  C   UNL     1       7.065   4.721  17.735  0.00  0.00    +0.000 C 
BRANCH  13  14
ATOM     14  C   UNL     1       7.053   5.784  16.628  0.00  0.00    +0.000 C 
BRANCH  14  15
ATOM     15  N   UNL     1       7.346   5.232  15.315  0.00  0.00    +0.000 N 
ATOM     16  C   UNL     1       6.360   4.710  14.512  0.00  0.00    +0.000 C 
ATOM     17  C   UNL     1       6.853   4.133  13.211  0.00  0.00    +0.000 C 
ATOM     18  O   UNL     1       5.171   4.703  14.812  0.00  0.00    +0.000 OA
ATOM     19  H   UNL     1       8.302   5.237  14.995  0.00  0.00    +0.000 HD
ENDBRANCH  14  15
ENDBRANCH  13  14
ENDBRANCH   7  13
TORSDOF 4
ENDMDL
MODEL 3
REMARK VINA RESULT:      -6.6      2.104      5.711
REMARK  Name = 
REMARK  6 active torsions:
REMARK  status: ('A' for Active; 'I' for Inactive)
REMARK    1  A    between atoms: C_1  and  O_2
REMARK    2  A    between atoms: O_2  and  C_3
REMARK    3  A    between atoms: C_9  and  C_10
REMARK    4  A    between atoms: C_10  and  C_11
REMARK    5  A    between atoms: C_11  and  N_12
REMARK    6  A    between atoms: C_13  and  C_14
REMARK                            x       y       z     vdW  Elec       q    Type
REMARK                         _______ _______ _______ _____ _____    ______ ____
ROOT
ATOM      1  C   UNL     1       2.147   5.584  19.786  0.00  0.00    +0.000 A 
ATOM      2  C   UNL     1       1.328   4.785  20.596  0.00  0.00    +0.000 A 
ATOM      3  C   UNL     1       1.215   3.411  20.370  0.00  0.00    +0.000 A 
ATOM      4  C   UNL     1       1.910   2.785  19.330  0.00  0.00    +0.000 A 
ATOM      5  C   UNL     1       2.720   3.590  18.522  0.00  0.00    +0.000 A 
ATOM      6  N   UNL     1       3.503   3.265  17.433  0.00  0.00    +0.000 N 
ATOM      7  C   UNL     1       4.120   4.387  16.926  0.00  0.00    +0.000 A 
ATOM      8  C   UNL     1       3.735   5.446  17.724  0.00  0.00    +0.000 A 
ATOM      9  C   UNL     1       2.849   4.963  18.728  0.00  0.00    +0.000 A 
ATOM     10  H   UNL     1       3.596   2.331  17.058  0.00  0.00    +0.000 HD
ENDROOT
BRANCH   1  12
ATOM     11  C   UNL     1       1.435   7.570  20.870  0.00  0.00    +0.000 C 
ATOM     12  O   UNL     1       2.278   6.943  19.913  0.00  0.00    +0.000 OA
ENDBRANCH   1  12
BRANCH   7  13
ATOM     13  C   UNL     1       4.995   4.336  15.710  0.00  0.00    +0.000 C 
BRANCH  13  14
ATOM     14  C   UNL     1       6.449   3.970  16.036  0.00  0.00    +0.000 C 
BRANCH  14  15
ATOM     15  N   UNL     1       6.865   4.432  17.351  0.00  0.00    +0.000 N 
ATOM     16  C   UNL     1       7.407   5.680  17.542  0.00  0.00    +0.000 C 
ATOM     17  C   UNL     1       7.831   5.968  18.958  0.00  0.00    +0.000 C 
ATOM     18  O   UNL     1       7.545   6.506  16.647  0.00  0.00    +0.000 OA
ATOM     19  H   UNL     1       6.748   3.811  18.137  0.00  0.00    +0.000 HD
ENDBRANCH  14  15
ENDBRANCH  13  14
ENDBRANCH   7  13
TORSDOF 4
ENDMDL
MODEL 4
REMARK VINA RESULT:      -6.6      2.304      6.019
REMARK  Name = 
REMARK  6 active torsions:
REMARK  status: ('A' for Active; 'I' for Inactive)
REMARK    1  A    between atoms: C_1  and  O_2
REMARK    2  A    between atoms: O_2  and  C_3
REMARK    3  A    between atoms: C_9  and  C_10
REMARK    4  A    between atoms: C_10  and  C_11
REMARK    5  A    between atoms: C_11  and  N_12
REMARK    6  A    between atoms: C_13  and  C_14
REMARK                            x       y       z     vdW  Elec       q    Type
REMARK                         _______ _______ _______ _____ _____    ______ ____
ROOT
ATOM      1  C   UNL     1       2.201   2.880  18.818  0.00  0.00    +0.000 A 
ATOM      2  C   UNL     1       1.410   2.637  19.950  0.00  0.00    +0.000 A 
ATOM      3  C   UNL     1       1.078   3.669  20.831  0.00  0.00    +0.000 A 
ATOM      4  C   UNL     1       1.522   4.978  20.618  0.00  0.00    +0.000 A 
ATOM      5  C   UNL     1       2.316   5.212  19.489  0.00  0.00    +0.000 A 
ATOM      6  N   UNL     1       2.901   6.375  19.032  0.00  0.00    +0.000 N 
ATOM      7  C   UNL     1       3.619   6.138  17.882  0.00  0.00    +0.000 A 
ATOM      8  C   UNL     1       3.472   4.796  17.592  0.00  0.00    +0.000 A 
ATOM      9  C   UNL     1       2.662   4.199  18.597  0.00  0.00    +0.000 A 
ATOM     10  H   UNL     1       2.817   7.272  19.491  0.00  0.00    +0.000 HD
ENDROOT
BRANCH   1  12
ATOM     11  C   UNL     1       3.760   1.169  18.299  0.00  0.00    +0.000 C 
ATOM     12  O   UNL     1       2.608   1.916  17.932  0.00  0.00    +0.000 OA
ENDBRANCH   1  12
BRANCH   7  13
ATOM     13  C   UNL     1       4.399   7.216  17.190  0.00  0.00    +0.000 C 
BRANCH  13  14
ATOM     14  C   UNL     1       5.825   6.782  16.826  0.00  0.00    +0.000 C 
BRANCH  14  15
ATOM     15  N   UNL     1       5.888   6.059  15.566  0.00  0.00    +0.000 N 
ATOM     16  C   UNL     1       6.784   5.037  15.361  0.00  0.00    +0.000 C 
ATOM     17  C   UNL     1       6.747   4.439  13.980  0.00  0.00    +0.000 C 
ATOM     18  O   UNL     1       7.560   4.631  16.220  0.00  0.00    +0.000 OA
ATOM     19  H   UNL     1       5.253   6.323  14.828  0.00  0.00    +0.000 HD
ENDBRANCH  14  15
ENDBRANCH  13  14
ENDBRANCH   7  13
TORSDOF 4
ENDMDL
MODEL 5
REMARK VINA RESULT:      -6.5      2.419      5.841
REMARK  Name = 
REMARK  6 active torsions:
REMARK  status: ('A' for Active; 'I' for Inactive)
REMARK    1  A    between atoms: C_1  and  O_2
REMARK    2  A    between atoms: O_2  and  C_3
REMARK    3  A    between atoms: C_9  and  C_10
REMARK    4  A    between atoms: C_10  and  C_11
REMARK    5  A    between atoms: C_11  and  N_12
REMARK    6  A    between atoms: C_13  and  C_14
REMARK                            x       y       z     vdW  Elec       q    Type
REMARK                         _______ _______ _______ _____ _____    ______ ____
ROOT
ATOM      1  C   UNL     1       2.648   4.237  20.138  0.00  0.00    +0.000 A 
ATOM      2  C   UNL     1       1.928   5.239  20.803  0.00  0.00    +0.000 A 
ATOM      3  C   UNL     1       1.880   6.543  20.302  0.00  0.00    +0.000 A 
ATOM      4  C   UNL     1       2.548   6.894  19.125  0.00  0.00    +0.000 A 
ATOM      5  C   UNL     1       3.270   5.890  18.470  0.00  0.00    +0.000 A 
ATOM      6  N   UNL     1       4.025   5.938  17.316  0.00  0.00    +0.000 N 
ATOM      7  C   UNL     1       4.580   4.707  17.047  0.00  0.00    +0.000 A 
ATOM      8  C   UNL     1       4.152   3.853  18.044  0.00  0.00    +0.000 A 
ATOM      9  C   UNL     1       3.333   4.583  18.950  0.00  0.00    +0.000 A 
ATOM     10  H   UNL     1       4.156   6.770  16.757  0.00  0.00    +0.000 HD
ENDROOT
BRANCH   1  12
ATOM     11  C   UNL     1       1.813   2.504  21.525  0.00  0.00    +0.000 C 
ATOM     12  O   UNL     1       2.782   2.948  20.586  0.00  0.00    +0.000 OA
ENDBRANCH   1  12
BRANCH   7  13
ATOM     13  C   UNL     1       5.489   4.479  15.877  0.00  0.00    +0.000 C 
BRANCH  13  14
ATOM     14  C   UNL     1       6.973   4.632  16.234  0.00  0.00    +0.000 C 
BRANCH  14  15
ATOM     15  N   UNL     1       7.376   6.022  16.379  0.00  0.00    +0.000 N 
ATOM     16  C   UNL     1       7.415   6.641  17.605  0.00  0.00    +0.000 C 
ATOM     17  C   UNL     1       7.801   8.096  17.559  0.00  0.00    +0.000 C 
ATOM     18  O   UNL     1       7.157   6.075  18.661  0.00  0.00    +0.000 OA
ATOM     19  H   UNL     1       7.632   6.536  15.550  0.00  0.00    +0.000 HD
ENDBRANCH  14  15
ENDBRANCH  13  14
ENDBRANCH   7  13
TORSDOF 4
ENDMDL
MODEL 6
REMARK VINA RESULT:      -6.5      2.168      5.956
REMARK  Name = 
REMARK  6 active torsions:
REMARK  status: ('A' for Active; 'I' for Inactive)
REMARK    1  A    between atoms: C_1  and  O_2
REMARK    2  A    between atoms: O_2  and  C_3
REMARK    3  A    between atoms: C_9  and  C_10
REMARK    4  A    between atoms: C_10  and  C_11
REMARK    5  A    between atoms: C_11  and  N_12
REMARK    6  A    between atoms: C_13  and  C_14
REMARK                            x       y       z     vdW  Elec       q    Type
REMARK                         _______ _______ _______ _____ _____    ______ ____
ROOT
ATOM      1  C   UNL     1       2.461   5.492  19.947  0.00  0.00    +0.000 A 
ATOM      2  C   UNL     1       1.631   4.617  20.662  0.00  0.00    +0.000 A 
ATOM      3  C   UNL     1       2.022   3.300  20.915  0.00  0.00    +0.000 A 
ATOM      4  C   UNL     1       3.250   2.807  20.464  0.00  0.00    +0.000 A 
ATOM      5  C   UNL     1       4.071   3.684  19.746  0.00  0.00    +0.000 A 
ATOM      6  N   UNL     1       5.311   3.484  19.174  0.00  0.00    +0.000 N 
ATOM      7  C   UNL     1       5.744   4.628  18.541  0.00  0.00    +0.000 A 
ATOM      8  C   UNL     1       4.764   5.582  18.732  0.00  0.00    +0.000 A 
ATOM      9  C   UNL     1       3.702   5.002  19.481  0.00  0.00    +0.000 A 
ATOM     10  H   UNL     1       5.820   2.611  19.211  0.00  0.00    +0.000 HD
ENDROOT
BRANCH   1  12
ATOM     11  C   UNL     1       1.693   7.611  20.687  0.00  0.00    +0.000 C 
ATOM     12  O   UNL     1       2.132   6.782  19.619  0.00  0.00    +0.000 OA
ENDBRANCH   1  12
BRANCH   7  13
ATOM     13  C   UNL     1       7.042   4.684  17.793  0.00  0.00    +0.000 C 
BRANCH  13  14
ATOM     14  C   UNL     1       7.055   5.761  16.700  0.00  0.00    +0.000 C 
BRANCH  14  15
ATOM     15  N   UNL     1       7.258   5.211  15.370  0.00  0.00    +0.000 N 
ATOM     16  C   UNL     1       6.239   4.605  14.674  0.00  0.00    +0.000 C 
ATOM     17  C   UNL     1       6.643   4.044  13.336  0.00  0.00    +0.000 C 
ATOM     18  O   UNL     1       5.090   4.517  15.091  0.00  0.00    +0.000 OA
ATOM     19  H   UNL     1       8.175   5.281  14.956  0.00  0.00    +0.000 HD
ENDBRANCH  14  15
ENDBRANCH  13  14
ENDBRANCH   7  13
TORSDOF 4
ENDMDL
MODEL 7
REMARK VINA RESULT:      -6.5      2.195      5.765
REMARK  Name = 
REMARK  6 active torsions:
REMARK  status: ('A' for Active; 'I' for Inactive)
REMARK    1  A    between atoms: C_1  and  O_2
REMARK    2  A    between atoms: O_2  and  C_3
REMARK    3  A    between atoms: C_9  and  C_10
REMARK    4  A    between atoms: C_10  and  C_11
REMARK    5  A    between atoms: C_11  and  N_12
REMARK    6  A    between atoms: C_13  and  C_14
REMARK                            x       y       z     vdW  Elec       q    Type
REMARK                         _______ _______ _______ _____ _____    ______ ____
ROOT
ATOM      1  C   UNL     1       2.006   4.912  19.100  0.00  0.00    +0.000 A 
ATOM      2  C   UNL     1       1.267   4.003  19.871  0.00  0.00    +0.000 A 
ATOM      3  C   UNL     1       1.558   2.637  19.849  0.00  0.00    +0.000 A 
ATOM      4  C   UNL     1       2.592   2.127  19.057  0.00  0.00    +0.000 A 
ATOM      5  C   UNL     1       3.321   3.039  18.286  0.00  0.00    +0.000 A 
ATOM      6  N   UNL     1       4.371   2.835  17.414  0.00  0.00    +0.000 N 
ATOM      7  C   UNL     1       4.774   4.026  16.851  0.00  0.00    +0.000 A 
ATOM      8  C   UNL     1       3.972   5.011  17.393  0.00  0.00    +0.000 A 
ATOM      9  C   UNL     1       3.049   4.406  18.291  0.00  0.00    +0.000 A 
ATOM     10  H   UNL     1       4.776   1.930  17.213  0.00  0.00    +0.000 HD
ENDROOT
BRANCH   1  12
ATOM     11  C   UNL     1       2.150   7.030  20.159  0.00  0.00    +0.000 C 
ATOM     12  O   UNL     1       1.756   6.258  19.032  0.00  0.00    +0.000 OA
ENDBRANCH   1  12
BRANCH   7  13
ATOM     13  C   UNL     1       5.869   4.096  15.829  0.00  0.00    +0.000 C 
BRANCH  13  14
ATOM     14  C   UNL     1       7.220   4.504  16.430  0.00  0.00    +0.000 C 
BRANCH  14  15
ATOM     15  N   UNL     1       7.400   5.946  16.486  0.00  0.00    +0.000 N 
ATOM     16  C   UNL     1       7.523   6.615  17.680  0.00  0.00    +0.000 C 
ATOM     17  C   UNL     1       7.645   8.110  17.549  0.00  0.00    +0.000 C 
ATOM     18  O   UNL     1       7.533   6.059  18.772  0.00  0.00    +0.000 OA
ATOM     19  H   UNL     1       7.432   6.459  15.618  0.00  0.00    +0.000 HD
ENDBRANCH  14  15
ENDBRANCH  13  14
ENDBRANCH   7  13
TORSDOF 4
ENDMDL
MODEL 8
REMARK VINA RESULT:      -6.5      2.006      6.030
REMARK  Name = 
REMARK  6 active torsions:
REMARK  status: ('A' for Active; 'I' for Inactive)
REMARK    1  A    between atoms: C_1  and  O_2
REMARK    2  A    between atoms: O_2  and  C_3
REMARK    3  A    between atoms: C_9  and  C_10
REMARK    4  A    between atoms: C_10  and  C_11
REMARK    5  A    between atoms: C_11  and  N_12
REMARK    6  A    between atoms: C_13  and  C_14
REMARK                            x       y       z     vdW  Elec       q    Type
REMARK                         _______ _______ _______ _____ _____    ______ ____
ROOT
ATOM      1  C   UNL     1       2.366   5.259  20.191  0.00  0.00    +0.000 A 
ATOM      2  C   UNL     1       1.403   4.284  20.486  0.00  0.00    +0.000 A 
ATOM      3  C   UNL     1       1.673   2.926  20.298  0.00  0.00    +0.000 A 
ATOM      4  C   UNL     1       2.909   2.492  19.808  0.00  0.00    +0.000 A 
ATOM      5  C   UNL     1       3.863   3.471  19.509  0.00  0.00    +0.000 A 
ATOM      6  N   UNL     1       5.143   3.350  19.008  0.00  0.00    +0.000 N 
ATOM      7  C   UNL     1       5.721   4.590  18.850  0.00  0.00    +0.000 A 
ATOM      8  C   UNL     1       4.793   5.518  19.277  0.00  0.00    +0.000 A 
ATOM      9  C   UNL     1       3.617   4.831  19.688  0.00  0.00    +0.000 A 
ATOM     10  H   UNL     1       5.584   2.469  18.782  0.00  0.00    +0.000 HD
ENDROOT
BRANCH   1  12
ATOM     11  C   UNL     1       2.224   7.360  19.098  0.00  0.00    +0.000 C 
ATOM     12  O   UNL     1       2.165   6.611  20.305  0.00  0.00    +0.000 OA
ENDBRANCH   1  12
BRANCH   7  13
ATOM     13  C   UNL     1       7.097   4.762  18.278  0.00  0.00    +0.000 C 
BRANCH  13  14
ATOM     14  C   UNL     1       7.091   5.458  16.910  0.00  0.00    +0.000 C 
BRANCH  14  15
ATOM     15  N   UNL     1       6.514   4.634  15.861  0.00  0.00    +0.000 N 
ATOM     16  C   UNL     1       6.908   4.749  14.550  0.00  0.00    +0.000 C 
ATOM     17  C   UNL     1       6.164   3.856  13.592  0.00  0.00    +0.000 C 
ATOM     18  O   UNL     1       7.789   5.512  14.169  0.00  0.00    +0.000 OA
ATOM     19  H   UNL     1       5.805   3.963  16.114  0.00  0.00    +0.000 HD
ENDBRANCH  14  15
ENDBRANCH  13  14
ENDBRANCH   7  13
TORSDOF 4
ENDMDL
MODEL 9
REMARK VINA RESULT:      -6.4      1.356      1.458
REMARK  Name = 
REMARK  6 active torsions:
REMARK  status: ('A' for Active; 'I' for Inactive)
REMARK    1  A    between atoms: C_1  and  O_2
REMARK    2  A    between atoms: O_2  and  C_3
REMARK    3  A    between atoms: C_9  and  C_10
REMARK    4  A    between atoms: C_10  and  C_11
REMARK    5  A    between atoms: C_11  and  N_12
REMARK    6  A    between atoms: C_13  and  C_14
REMARK                            x       y       z     vdW  Elec       q    Type
REMARK                         _______ _______ _______ _____ _____    ______ ____
ROOT
ATOM      1  C   UNL     1       6.418   4.281  16.420  0.00  0.00    +0.000 A 
ATOM      2  C   UNL     1       7.572   4.698  17.099  0.00  0.00    +0.000 A 
ATOM      3  C   UNL     1       7.500   5.195  18.403  0.00  0.00    +0.000 A 
ATOM      4  C   UNL     1       6.279   5.297  19.075  0.00  0.00    +0.000 A 
ATOM      5  C   UNL     1       5.130   4.885  18.389  0.00  0.00    +0.000 A 
ATOM      6  N   UNL     1       3.807   4.879  18.782  0.00  0.00    +0.000 N 
ATOM      7  C   UNL     1       3.003   4.404  17.770  0.00  0.00    +0.000 A 
ATOM      8  C   UNL     1       3.837   4.083  16.718  0.00  0.00    +0.000 A 
ATOM      9  C   UNL     1       5.177   4.387  17.088  0.00  0.00    +0.000 A 
ATOM     10  H   UNL     1       3.481   5.193  19.686  0.00  0.00    +0.000 HD
ENDROOT
BRANCH   1  12
ATOM     11  C   UNL     1       6.897   4.715  14.138  0.00  0.00    +0.000 C 
ATOM     12  O   UNL     1       6.398   3.825  15.127  0.00  0.00    +0.000 OA
ENDBRANCH   1  12
BRANCH   7  13
ATOM     13  C   UNL     1       1.511   4.330  17.903  0.00  0.00    +0.000 C 
BRANCH  13  14
ATOM     14  C   UNL     1       1.023   2.965  18.405  0.00  0.00    +0.000 C 
BRANCH  14  15
ATOM     15  N   UNL     1       0.780   2.945  19.838  0.00  0.00    +0.000 N 
ATOM     16  C   UNL     1       1.771   2.631  20.737  0.00  0.00    +0.000 C 
ATOM     17  C   UNL     1       1.327   2.606  22.176  0.00  0.00    +0.000 C 
ATOM     18  O   UNL     1       2.928   2.385  20.415  0.00  0.00    +0.000 OA
ATOM     19  H   UNL     1      -0.145   3.170  20.171  0.00  0.00    +0.000 HD
ENDBRANCH  14  15
ENDBRANCH  13  14
ENDBRANCH   7  13
TORSDOF 4
ENDMDL
