MODEL 1
REMARK VINA RESULT:      -6.0      0.000      0.000
REMARK  Name = 
REMARK  7 active torsions:
REMARK  status: ('A' for Active; 'I' for Inactive)
REMARK    1  A    between atoms: C_1  and  O_2
REMARK    2  A    between atoms: O_2  and  C_3
REMARK    3  A    between atoms: C_3  and  C_4
REMARK    4  A    between atoms: C_4  and  N_5
REMARK    5  A    between atoms: N_5  and  C_6
REMARK    6  A    between atoms: C_6  and  C_7
REMARK    7  A    between atoms: C_12  and  C_14
REMARK                            x       y       z     vdW  Elec       q    Type
REMARK                         _______ _______ _______ _____ _____    ______ ____
ROOT
ATOM      1  N   UNL     1       3.118   4.831  18.607  0.00  0.00    +0.000 N 
ATOM      2  C   UNL     1       4.159   4.515  17.726  0.00  0.00    +0.000 C 
ATOM      3  O   UNL     1       4.068   3.550  16.964  0.00  0.00    +0.000 OA
ENDROOT
BRANCH   2   4
ATOM      4  C   UNL     1       5.372   5.453  17.638  0.00  0.00    +0.000 C 
ATOM      5  C   UNL     1       5.421   6.103  16.259  0.00  0.00    +0.000 C 
ATOM      6  C   UNL     1       6.260   5.126  15.453  0.00  0.00    +0.000 C 
ATOM      7  N   UNL     1       7.327   4.743  16.379  0.00  0.00    +0.000 NA
ATOM      8  C   UNL     1       6.701   4.687  17.713  0.00  0.00    +0.000 C 
ATOM      9  H   UNL     1       8.050   5.464  16.375  0.00  0.00    +0.000 HD
ENDBRANCH   2   4
BRANCH   1  10
ATOM     10  C   UNL     1       1.889   4.020  18.485  0.00  0.00    +0.000 C 
BRANCH  10  11
ATOM     11  C   UNL     1       1.109   3.872  19.798  0.00  0.00    +0.000 C 
BRANCH  11  13
ATOM     12  C   UNL     1       2.179   2.722  21.567  0.00  0.00    +0.000 C 
ATOM     13  O   UNL     1       1.409   2.597  20.378  0.00  0.00    +0.000 OA
ENDBRANCH  11  13
ENDBRANCH  10  11
ENDBRANCH   1  10
BRANCH   1  14
ATOM     14  C   UNL     1       3.209   5.938  19.572  0.00  0.00    +0.000 C 
BRANCH  14  15
ATOM     15  C   UNL     1       2.527   7.214  19.179  0.00  0.00    +0.000 A 
ATOM     16  C   UNL     1       2.490   7.820  17.933  0.00  0.00    +0.000 A 
ATOM     17  C   UNL     1       1.734   9.028  17.936  0.00  0.00    +0.000 A 
ATOM     18  C   UNL     1       1.195   9.296  19.176  0.00  0.00    +0.000 A 
ATOM     19  S   UNL     1       1.574   8.079  20.314  0.00  0.00    +0.000 S 
ENDBRANCH  14  15
ENDBRANCH   1  14
TORSDOF 6
ENDMDL
MODEL 2
REMARK VINA RESULT:      -6.0      3.571      5.464
REMARK  Name = 
REMARK  7 active torsions:
REMARK  status: ('A' for Active; 'I' for Inactive)
REMARK    1  A    between atoms: C_1  and  O_2
REMARK    2  A    between atoms: O_2  and  C_3
REMARK    3  A    between atoms: C_3  and  C_4
REMARK    4  A    between atoms: C_4  and  N_5
REMARK    5  A    between atoms: N_5  and  C_6
REMARK    6  A    between atoms: C_6  and  C_7
REMARK    7  A    between atoms: C_12  and  C_14
REMARK                            x       y       z     vdW  Elec       q    Type
REMARK                         _______ _______ _______ _____ _____    ______ ____
ROOT
ATOM      1  N   UNL     1       5.870   4.351  16.347  0.00  0.00    +0.000 N 
ATOM      2  C   UNL     1       6.907   4.710  17.219  0.00  0.00    +0.000 C 
ATOM      3  O   UNL     1       8.043   4.257  17.065  0.00  0.00    +0.000 OA
ENDROOT
BRANCH   2   4
ATOM      4  C   UNL     1       6.639   5.767  18.300  0.00  0.00    +0.000 C 
ATOM      5  C   UNL     1       6.421   7.128  17.647  0.00  0.00    +0.000 C 
ATOM      6  C   UNL     1       7.824   7.706  17.588  0.00  0.00    +0.000 C 
ATOM      7  N   UNL     1       8.403   7.337  18.881  0.00  0.00    +0.000 NA
ATOM      8  C   UNL     1       7.866   5.999  19.195  0.00  0.00    +0.000 C 
ATOM      9  H   UNL     1       8.092   8.001  19.590  0.00  0.00    +0.000 HD
ENDBRANCH   2   4
BRANCH   1  10
ATOM     10  C   UNL     1       6.247   3.504  15.197  0.00  0.00    +0.000 C 
BRANCH  10  11
ATOM     11  C   UNL     1       6.280   4.252  13.859  0.00  0.00    +0.000 C 
BRANCH  11  13
ATOM     12  C   UNL     1       7.996   5.386  12.691  0.00  0.00    +0.000 C 
ATOM     13  O   UNL     1       7.286   5.270  13.917  0.00  0.00    +0.000 OA
ENDBRANCH  11  13
ENDBRANCH  10  11
ENDBRANCH   1  10
BRANCH   1  14
ATOM     14  C   UNL     1       4.489   4.824  16.528  0.00  0.00    +0.000 C 
BRANCH  14  15
ATOM     15  C   UNL     1       3.577   3.918  17.300  0.00  0.00    +0.000 A 
ATOM     16  C   UNL     1       3.802   2.610  17.699  0.00  0.00    +0.000 A 
ATOM     17  C   UNL     1       2.704   2.066  18.427  0.00  0.00    +0.000 A 
ATOM     18  C   UNL     1       1.685   2.981  18.585  0.00  0.00    +0.000 A 
ATOM     19  S   UNL     1       2.070   4.492  17.887  0.00  0.00    +0.000 S 
ENDBRANCH  14  15
ENDBRANCH   1  14
TORSDOF 6
ENDMDL
MODEL 3
REMARK VINA RESULT:      -6.0      3.522      5.318
REMARK  Name = 
REMARK  7 active torsions:
REMARK  status: ('A' for Active; 'I' for Inactive)
REMARK    1  A    between atoms: C_1  and  O_2
REMARK    2  A    between atoms: O_2  and  C_3
REMARK    3  A    between atoms: C_3  and  C_4
REMARK    4  A    between atoms: C_4  and  N_5
REMARK    5  A    between atoms: N_5  and  C_6
REMARK    6  A    between atoms: C_6  and  C_7
REMARK    7  A    between atoms: C_12  and  C_14
REMARK                            x       y       z     vdW  Elec       q    Type
REMARK                         _______ _______ _______ _____ _____    ______ ____
ROOT
ATOM      1  N   UNL     1       5.614   4.354  16.564  0.00  0.00    +0.000 N 
ATOM      2  C   UNL     1       6.751   4.793  17.253  0.00  0.00    +0.000 C 
ATOM      3  O   UNL     1       7.875   4.407  16.924  0.00  0.00    +0.000 OA
ENDROOT
BRANCH   2   4
ATOM      4  C   UNL     1       6.593   5.855  18.352  0.00  0.00    +0.000 C 
ATOM      5  C   UNL     1       6.418   7.231  17.717  0.00  0.00    +0.000 C 
ATOM      6  C   UNL     1       7.847   7.732  17.594  0.00  0.00    +0.000 C 
ATOM      7  N   UNL     1       8.465   7.322  18.856  0.00  0.00    +0.000 NA
ATOM      8  C   UNL     1       7.872   6.013  19.189  0.00  0.00    +0.000 C 
ATOM      9  H   UNL     1       8.225   7.997  19.583  0.00  0.00    +0.000 HD
ENDBRANCH   2   4
BRANCH   1  10
ATOM     10  C   UNL     1       5.855   3.507  15.378  0.00  0.00    +0.000 C 
BRANCH  10  11
ATOM     11  C   UNL     1       5.644   4.232  14.043  0.00  0.00    +0.000 C 
BRANCH  11  13
ATOM     12  C   UNL     1       5.776   3.018  12.017  0.00  0.00    +0.000 C 
ATOM     13  O   UNL     1       6.507   3.655  13.056  0.00  0.00    +0.000 OA
ENDBRANCH  11  13
ENDBRANCH  10  11
ENDBRANCH   1  10
BRANCH   1  14
ATOM     14  C   UNL     1       4.252   4.745  16.959  0.00  0.00    +0.000 C 
BRANCH  14  15
ATOM     15  C   UNL     1       3.506   3.767  17.815  0.00  0.00    +0.000 A 
ATOM     16  C   UNL     1       2.734   2.688  17.412  0.00  0.00    +0.000 A 
ATOM     17  C   UNL     1       2.180   1.973  18.513  0.00  0.00    +0.000 A 
ATOM     18  C   UNL     1       2.565   2.510  19.724  0.00  0.00    +0.000 A 
ATOM     19  S   UNL     1       3.613   3.844  19.526  0.00  0.00    +0.000 S 
ENDBRANCH  14  15
ENDBRANCH   1  14
TORSDOF 6
ENDMDL
MODEL 4
REMARK VINA RESULT:      -5.9      1.543      1.840
REMARK  Name = 
REMARK  7 active torsions:
REMARK  status: ('A' for Active; 'I' for Inactive)
REMARK    1  A    between atoms: C_1  and  O_2
REMARK    2  A    between atoms: O_2  and  C_3
REMARK    3  A    between atoms: C_3  and  C_4
REMARK    4  A    between atoms: C_4  and  N_5
REMARK    5  A    between atoms: N_5  and  C_6
REMARK    6  A    between atoms: C_6  and  C_7
REMARK    7  A    between atoms: C_12  and  C_14
REMARK                            x       y       z     vdW  Elec       q    Type
REMARK                         _______ _______ _______ _____ _____    ______ ____
ROOT
ATOM      1  N   UNL     1       4.191   4.274  18.354  0.00  0.00    +0.000 N 
ATOM      2  C   UNL     1       5.472   4.678  17.957  0.00  0.00    +0.000 C 
ATOM      3  O   UNL     1       6.476   4.143  18.432  0.00  0.00    +0.000 OA
ENDROOT
BRANCH   2   4
ATOM      4  C   UNL     1       5.612   5.717  16.835  0.00  0.00    +0.000 C 
ATOM      5  C   UNL     1       5.343   5.058  15.486  0.00  0.00    +0.000 C 
ATOM      6  C   UNL     1       6.720   4.579  15.061  0.00  0.00    +0.000 C 
ATOM      7  N   UNL     1       7.600   5.687  15.436  0.00  0.00    +0.000 NA
ATOM      8  C   UNL     1       7.055   6.226  16.696  0.00  0.00    +0.000 C 
ATOM      9  H   UNL     1       7.560   6.407  14.714  0.00  0.00    +0.000 HD
ENDBRANCH   2   4
BRANCH   1  10
ATOM     10  C   UNL     1       4.125   3.118  19.271  0.00  0.00    +0.000 C 
BRANCH  10  11
ATOM     11  C   UNL     1       3.163   2.015  18.814  0.00  0.00    +0.000 C 
BRANCH  11  13
ATOM     12  C   UNL     1       0.826   2.375  18.882  0.00  0.00    +0.000 C 
ATOM     13  O   UNL     1       1.988   2.049  19.632  0.00  0.00    +0.000 OA
ENDBRANCH  11  13
ENDBRANCH  10  11
ENDBRANCH   1  10
BRANCH   1  14
ATOM     14  C   UNL     1       2.970   4.924  17.854  0.00  0.00    +0.000 C 
BRANCH  14  15
ATOM     15  C   UNL     1       2.540   6.165  18.576  0.00  0.00    +0.000 A 
ATOM     16  C   UNL     1       2.401   7.449  18.070  0.00  0.00    +0.000 A 
ATOM     17  C   UNL     1       1.963   8.379  19.056  0.00  0.00    +0.000 A 
ATOM     18  C   UNL     1       1.755   7.776  20.279  0.00  0.00    +0.000 A 
ATOM     19  S   UNL     1       2.056   6.096  20.221  0.00  0.00    +0.000 S 
ENDBRANCH  14  15
ENDBRANCH   1  14
TORSDOF 6
ENDMDL
MODEL 5
REMARK VINA RESULT:      -5.9      1.462      1.699
REMARK  Name = 
REMARK  7 active torsions:
REMARK  status: ('A' for Active; 'I' for Inactive)
REMARK    1  A    between atoms: C_1  and  O_2
REMARK    2  A    between atoms: O_2  and  C_3
REMARK    3  A    between atoms: C_3  and  C_4
REMARK    4  A    between atoms: C_4  and  N_5
REMARK    5  A    between atoms: N_5  and  C_6
REMARK    6  A    between atoms: C_6  and  C_7
REMARK    7  A    between atoms: C_12  and  C_14
REMARK                            x       y       z     vdW  Elec       q    Type
REMARK                         _______ _______ _______ _____ _____    ______ ____
ROOT
ATOM      1  N   UNL     1       3.865   4.586  18.649  0.00  0.00    +0.000 N 
ATOM      2  C   UNL     1       5.169   4.928  18.268  0.00  0.00    +0.000 C 
ATOM      3  O   UNL     1       6.140   4.339  18.748  0.00  0.00    +0.000 OA
ENDROOT
BRANCH   2   4
ATOM      4  C   UNL     1       5.372   5.968  17.156  0.00  0.00    +0.000 C 
ATOM      5  C   UNL     1       5.380   5.275  15.797  0.00  0.00    +0.000 C 
ATOM      6  C   UNL     1       6.848   4.939  15.597  0.00  0.00    +0.000 C 
ATOM      7  N   UNL     1       7.543   6.134  16.076  0.00  0.00    +0.000 NA
ATOM      8  C   UNL     1       6.760   6.623  17.226  0.00  0.00    +0.000 C 
ATOM      9  H   UNL     1       7.541   6.842  15.340  0.00  0.00    +0.000 HD
ENDBRANCH   2   4
BRANCH   1  10
ATOM     10  C   UNL     1       3.731   3.428  19.556  0.00  0.00    +0.000 C 
BRANCH  10  11
ATOM     11  C   UNL     1       2.470   2.589  19.312  0.00  0.00    +0.000 C 
BRANCH  11  13
ATOM     12  C   UNL     1       2.271   3.078  21.618  0.00  0.00    +0.000 C 
ATOM     13  O   UNL     1       1.578   2.754  20.419  0.00  0.00    +0.000 OA
ENDBRANCH  11  13
ENDBRANCH  10  11
ENDBRANCH   1  10
BRANCH   1  14
ATOM     14  C   UNL     1       2.683   5.301  18.144  0.00  0.00    +0.000 C 
BRANCH  14  15
ATOM     15  C   UNL     1       2.252   6.502  18.930  0.00  0.00    +0.000 A 
ATOM     16  C   UNL     1       1.924   6.576  20.275  0.00  0.00    +0.000 A 
ATOM     17  C   UNL     1       1.565   7.896  20.676  0.00  0.00    +0.000 A 
ATOM     18  C   UNL     1       1.655   8.795  19.635  0.00  0.00    +0.000 A 
ATOM     19  S   UNL     1       2.199   8.053  18.196  0.00  0.00    +0.000 S 
ENDBRANCH  14  15
ENDBRANCH   1  14
TORSDOF 6
ENDMDL
MODEL 6
REMARK VINA RESULT:      -5.9      2.354      4.327
REMARK  Name = 
REMARK  7 active torsions:
REMARK  status: ('A' for Active; 'I' for Inactive)
REMARK    1  A    between atoms: C_1  and  O_2
REMARK    2  A    between atoms: O_2  and  C_3
REMARK    3  A    between atoms: C_3  and  C_4
REMARK    4  A    between atoms: C_4  and  N_5
REMARK    5  A    between atoms: N_5  and  C_6
REMARK    6  A    between atoms: C_6  and  C_7
REMARK    7  A    between atoms: C_12  and  C_14
REMARK                            x       y       z     vdW  Elec       q    Type
REMARK                         _______ _______ _______ _____ _____    ______ ____
ROOT
ATOM      1  N   UNL     1       3.254   5.878  17.878  0.00  0.00    +0.000 N 
ATOM      2  C   UNL     1       4.426   6.021  17.123  0.00  0.00    +0.000 C 
ATOM      3  O   UNL     1       5.051   7.084  17.127  0.00  0.00    +0.000 OA
ENDROOT
BRANCH   2   4
ATOM      4  C   UNL     1       4.988   4.800  16.380  0.00  0.00    +0.000 C 
ATOM      5  C   UNL     1       5.946   4.039  17.291  0.00  0.00    +0.000 C 
ATOM      6  C   UNL     1       7.284   4.693  16.998  0.00  0.00    +0.000 C 
ATOM      7  N   UNL     1       7.270   4.872  15.545  0.00  0.00    +0.000 NA
ATOM      8  C   UNL     1       5.877   5.205  15.194  0.00  0.00    +0.000 C 
ATOM      9  H   UNL     1       7.531   3.993  15.096  0.00  0.00    +0.000 HD
ENDBRANCH   2   4
BRANCH   1  10
ATOM     10  C   UNL     1       2.890   7.018  18.743  0.00  0.00    +0.000 C 
BRANCH  10  11
ATOM     11  C   UNL     1       2.099   8.117  18.022  0.00  0.00    +0.000 C 
BRANCH  11  13
ATOM     12  C   UNL     1       0.627   9.931  18.397  0.00  0.00    +0.000 C 
ATOM     13  O   UNL     1       1.474   8.959  18.998  0.00  0.00    +0.000 OA
ENDBRANCH  11  13
ENDBRANCH  10  11
ENDBRANCH   1  10
BRANCH   1  14
ATOM     14  C   UNL     1       2.449   4.647  17.857  0.00  0.00    +0.000 C 
BRANCH  14  15
ATOM     15  C   UNL     1       2.238   3.974  19.179  0.00  0.00    +0.000 A 
ATOM     16  C   UNL     1       1.075   3.901  19.931  0.00  0.00    +0.000 A 
ATOM     17  C   UNL     1       1.252   3.167  21.139  0.00  0.00    +0.000 A 
ATOM     18  C   UNL     1       2.535   2.678  21.263  0.00  0.00    +0.000 A 
ATOM     19  S   UNL     1       3.504   3.078  19.914  0.00  0.00    +0.000 S 
ENDBRANCH  14  15
ENDBRANCH   1  14
TORSDOF 6
ENDMDL
MODEL 7
REMARK VINA RESULT:      -5.8      3.508      5.295
REMARK  Name = 
REMARK  7 active torsions:
REMARK  status: ('A' for Active; 'I' for Inactive)
REMARK    1  A    between atoms: C_1  and  O_2
REMARK    2  A    between atoms: O_2  and  C_3
REMARK    3  A    between atoms: C_3  and  C_4
REMARK    4  A    between atoms: C_4  and  N_5
REMARK    5  A    between atoms: N_5  and  C_6
REMARK    6  A    between atoms: C_6  and  C_7
REMARK    7  A    between atoms: C_12  and  C_14
REMARK                            x       y       z     vdW  Elec       q    Type
REMARK                         _______ _______ _______ _____ _____    ______ ____
ROOT
ATOM      1  N   UNL     1       5.741   4.354  16.417  0.00  0.00    +0.000 N 
ATOM      2  C   UNL     1       6.840   4.804  17.160  0.00  0.00    +0.000 C 
ATOM      3  O   UNL     1       7.982   4.430  16.884  0.00  0.00    +0.000 OA
ENDROOT
BRANCH   2   4
ATOM      4  C   UNL     1       6.619   5.861  18.252  0.00  0.00    +0.000 C 
ATOM      5  C   UNL     1       6.422   7.231  17.610  0.00  0.00    +0.000 C 
ATOM      6  C   UNL     1       7.838   7.774  17.528  0.00  0.00    +0.000 C 
ATOM      7  N   UNL     1       8.432   7.384  18.807  0.00  0.00    +0.000 NA
ATOM      8  C   UNL     1       7.868   6.058  19.125  0.00  0.00    +0.000 C 
ATOM      9  H   UNL     1       8.151   8.052  19.525  0.00  0.00    +0.000 HD
ENDBRANCH   2   4
BRANCH   1  10
ATOM     10  C   UNL     1       6.046   3.512  15.243  0.00  0.00    +0.000 C 
BRANCH  10  11
ATOM     11  C   UNL     1       5.757   4.192  13.898  0.00  0.00    +0.000 C 
BRANCH  11  13
ATOM     12  C   UNL     1       5.026   3.223  11.868  0.00  0.00    +0.000 C 
ATOM     13  O   UNL     1       6.065   3.281  12.838  0.00  0.00    +0.000 OA
ENDBRANCH  11  13
ENDBRANCH  10  11
ENDBRANCH   1  10
BRANCH   1  14
ATOM     14  C   UNL     1       4.358   4.731  16.748  0.00  0.00    +0.000 C 
BRANCH  14  15
ATOM     15  C   UNL     1       3.751   4.041  17.933  0.00  0.00    +0.000 A 
ATOM     16  C   UNL     1       3.313   4.603  19.122  0.00  0.00    +0.000 A 
ATOM     17  C   UNL     1       2.784   3.632  20.021  0.00  0.00    +0.000 A 
ATOM     18  C   UNL     1       2.809   2.363  19.483  0.00  0.00    +0.000 A 
ATOM     19  S   UNL     1       3.437   2.355  17.895  0.00  0.00    +0.000 S 
ENDBRANCH  14  15
ENDBRANCH   1  14
TORSDOF 6
ENDMDL
MODEL 8
REMARK VINA RESULT:      -5.8      2.319      4.004
REMARK  Name = 
REMARK  7 active torsions:
REMARK  status: ('A' for Active; 'I' for Inactive)
REMARK    1  A    between atoms: C_1  and  O_2
REMARK    2  A    between atoms: O_2  and  C_3
REMARK    3  A    between atoms: C_3  and  C_4
REMARK    4  A    between atoms: C_4  and  N_5
REMARK    5  A    between atoms: N_5  and  C_6
REMARK    6  A    between atoms: C_6  and  C_7
REMARK    7  A    between atoms: C_12  and  C_14
REMARK                            x       y       z     vdW  Elec       q    Type
REMARK                         _______ _______ _______ _____ _____    ______ ____
ROOT
ATOM      1  N   UNL     1       3.048   5.666  17.760  0.00  0.00    +0.000 N 
ATOM      2  C   UNL     1       4.380   5.820  17.354  0.00  0.00    +0.000 C 
ATOM      3  O   UNL     1       4.885   6.941  17.264  0.00  0.00    +0.000 OA
ENDROOT
BRANCH   2   4
ATOM      4  C   UNL     1       5.240   4.567  17.132  0.00  0.00    +0.000 C 
ATOM      5  C   UNL     1       6.318   4.485  18.208  0.00  0.00    +0.000 C 
ATOM      6  C   UNL     1       7.474   5.252  17.589  0.00  0.00    +0.000 C 
ATOM      7  N   UNL     1       7.469   4.816  16.192  0.00  0.00    +0.000 NA
ATOM      8  C   UNL     1       6.050   4.647  15.828  0.00  0.00    +0.000 C 
ATOM      9  H   UNL     1       7.946   3.916  16.120  0.00  0.00    +0.000 HD
ENDBRANCH   2   4
BRANCH   1  10
ATOM     10  C   UNL     1       2.344   6.898  18.171  0.00  0.00    +0.000 C 
BRANCH  10  11
ATOM     11  C   UNL     1       2.373   7.156  19.683  0.00  0.00    +0.000 C 
BRANCH  11  13
ATOM     12  C   UNL     1       1.271   8.425  21.347  0.00  0.00    +0.000 C 
ATOM     13  O   UNL     1       1.615   8.336  19.971  0.00  0.00    +0.000 OA
ENDBRANCH  11  13
ENDBRANCH  10  11
ENDBRANCH   1  10
BRANCH   1  14
ATOM     14  C   UNL     1       2.390   4.353  17.826  0.00  0.00    +0.000 C 
BRANCH  14  15
ATOM     15  C   UNL     1       2.189   3.782  19.197  0.00  0.00    +0.000 A 
ATOM     16  C   UNL     1       1.020   3.724  19.941  0.00  0.00    +0.000 A 
ATOM     17  C   UNL     1       1.210   3.100  21.207  0.00  0.00    +0.000 A 
ATOM     18  C   UNL     1       2.511   2.677  21.385  0.00  0.00    +0.000 A 
ATOM     19  S   UNL     1       3.480   3.004  20.017  0.00  0.00    +0.000 S 
ENDBRANCH  14  15
ENDBRANCH   1  14
TORSDOF 6
ENDMDL
MODEL 9
REMARK VINA RESULT:      -5.8      1.181      1.302
REMARK  Name = 
REMARK  7 active torsions:
REMARK  status: ('A' for Active; 'I' for Inactive)
REMARK    1  A    between atoms: C_1  and  O_2
REMARK    2  A    between atoms: O_2  and  C_3
REMARK    3  A    between atoms: C_3  and  C_4
REMARK    4  A    between atoms: C_4  and  N_5
REMARK    5  A    between atoms: N_5  and  C_6
REMARK    6  A    between atoms: C_6  and  C_7
REMARK    7  A    between atoms: C_12  and  C_14
REMARK                            x       y       z     vdW  Elec       q    Type
REMARK                         _______ _______ _______ _____ _____    ______ ____
ROOT
ATOM      1  N   UNL     1       3.142   5.230  18.238  0.00  0.00    +0.000 N 
ATOM      2  C   UNL     1       4.331   5.012  17.531  0.00  0.00    +0.000 C 
ATOM      3  O   UNL     1       4.375   4.195  16.609  0.00  0.00    +0.000 OA
ENDROOT
BRANCH   2   4
ATOM      4  C   UNL     1       5.554   5.889  17.842  0.00  0.00    +0.000 C 
ATOM      5  C   UNL     1       6.553   5.806  16.692  0.00  0.00    +0.000 C 
ATOM      6  C   UNL     1       7.432   4.633  17.091  0.00  0.00    +0.000 C 
ATOM      7  N   UNL     1       7.629   4.823  18.528  0.00  0.00    +0.000 NA
ATOM      8  C   UNL     1       6.354   5.359  19.042  0.00  0.00    +0.000 C 
ATOM      9  H   UNL     1       8.369   5.509  18.679  0.00  0.00    +0.000 HD
ENDBRANCH   2   4
BRANCH   1  10
ATOM     10  C   UNL     1       1.947   4.515  17.744  0.00  0.00    +0.000 C 
BRANCH  10  11
ATOM     11  C   UNL     1       1.406   3.462  18.718  0.00  0.00    +0.000 C 
BRANCH  11  13
ATOM     12  C   UNL     1       2.931   1.663  18.539  0.00  0.00    +0.000 C 
ATOM     13  O   UNL     1       2.506   2.772  19.321  0.00  0.00    +0.000 OA
ENDBRANCH  11  13
ENDBRANCH  10  11
ENDBRANCH   1  10
BRANCH   1  14
ATOM     14  C   UNL     1       3.061   6.154  19.380  0.00  0.00    +0.000 C 
BRANCH  14  15
ATOM     15  C   UNL     1       2.389   7.469  19.120  0.00  0.00    +0.000 A 
ATOM     16  C   UNL     1       2.353   8.196  17.940  0.00  0.00    +0.000 A 
ATOM     17  C   UNL     1       1.608   9.404  18.067  0.00  0.00    +0.000 A 
ATOM     18  C   UNL     1       1.077   9.552  19.330  0.00  0.00    +0.000 A 
ATOM     19  S   UNL     1       1.449   8.225  20.339  0.00  0.00    +0.000 S 
ENDBRANCH  14  15
ENDBRANCH   1  14
TORSDOF 6
ENDMDL
