MODEL 1
REMARK VINA RESULT:      -8.0      0.000      0.000
REMARK  Name = 
REMARK  1 active torsions:
REMARK  status: ('A' for Active; 'I' for Inactive)
REMARK    1  A    between atoms: C_8  and  C_9
REMARK                            x       y       z     vdW  Elec       q    Type
REMARK                         _______ _______ _______ _____ _____    ______ ____
ROOT
ATOM      1  O   UNL     1       6.737   3.189  11.758  0.00  0.00    +0.000 OA
ATOM      2  C   UNL     1       6.761   3.853  12.791  0.00  0.00    +0.000 C 
ATOM      3  C   UNL     1       7.652   5.081  12.978  0.00  0.00    +0.000 C 
ATOM      4  O   UNL     1       7.945   5.534  14.291  0.00  0.00    +0.000 OA
ATOM      5  C   UNL     1       6.964   5.273  15.207  0.00  0.00    +0.000 A 
ATOM      6  C   UNL     1       7.032   5.985  16.402  0.00  0.00    +0.000 A 
ATOM      7  C   UNL     1       6.088   5.755  17.408  0.00  0.00    +0.000 A 
ATOM      8  C   UNL     1       5.093   4.785  17.233  0.00  0.00    +0.000 A 
ATOM      9  C   UNL     1       5.029   4.069  16.027  0.00  0.00    +0.000 A 
ATOM     10  C   UNL     1       5.963   4.318  15.020  0.00  0.00    +0.000 A 
ATOM     11  N   UNL     1       5.916   3.585  13.834  0.00  0.00    +0.000 N 
ATOM     12  H   UNL     1       5.259   2.826  13.706  0.00  0.00    +0.000 HD
ENDROOT
BRANCH   8  13
ATOM     13  C   UNL     1       4.096   4.480  18.311  0.00  0.00    +0.000 C 
ATOM     14  N   UNL     1       4.393   3.541  19.168  0.00  0.00    +0.000 NA
ATOM     15  N   UNL     1       3.509   3.352  20.198  0.00  0.00    +0.000 N 
ATOM     16  C   UNL     1       3.481   2.283  21.050  0.00  0.00    +0.000 A 
ATOM     17  N   UNL     1       2.537   2.438  21.954  0.00  0.00    +0.000 NA
ATOM     18  N   UNL     1       1.929   3.655  21.717  0.00  0.00    +0.000 NA
ATOM     19  C   UNL     1       2.520   4.178  20.671  0.00  0.00    +0.000 A 
ATOM     20  S   UNL     1       2.214   5.696  19.928  0.00  0.00    +0.000 S 
ATOM     21  C   UNL     1       2.771   5.244  18.271  0.00  0.00    +0.000 C 
ENDBRANCH   8  13
TORSDOF 1
ENDMDL
MODEL 2
REMARK VINA RESULT:      -7.7      5.162      8.009
REMARK  Name = 
REMARK  1 active torsions:
REMARK  status: ('A' for Active; 'I' for Inactive)
REMARK    1  A    between atoms: C_8  and  C_9
REMARK                            x       y       z     vdW  Elec       q    Type
REMARK                         _______ _______ _______ _____ _____    ______ ____
ROOT
ATOM      1  O   UNL     1       0.347   9.582  23.722  0.00  0.00    +0.000 OA
ATOM      2  C   UNL     1       0.573   9.596  22.515  0.00  0.00    +0.000 C 
ATOM      3  C   UNL     1       0.229  10.780  21.612  0.00  0.00    +0.000 C 
ATOM      4  O   UNL     1       0.122  10.578  20.211  0.00  0.00    +0.000 OA
ATOM      5  C   UNL     1       0.916   9.576  19.727  0.00  0.00    +0.000 A 
ATOM      6  C   UNL     1       1.119   9.561  18.349  0.00  0.00    +0.000 A 
ATOM      7  C   UNL     1       1.888   8.550  17.765  0.00  0.00    +0.000 A 
ATOM      8  C   UNL     1       2.430   7.530  18.557  0.00  0.00    +0.000 A 
ATOM      9  C   UNL     1       2.222   7.548  19.946  0.00  0.00    +0.000 A 
ATOM     10  C   UNL     1       1.468   8.571  20.523  0.00  0.00    +0.000 A 
ATOM     11  N   UNL     1       1.238   8.571  21.899  0.00  0.00    +0.000 N 
ATOM     12  H   UNL     1       1.549   7.809  22.488  0.00  0.00    +0.000 HD
ENDROOT
BRANCH   8  13
ATOM     13  C   UNL     1       3.219   6.405  17.957  0.00  0.00    +0.000 C 
ATOM     14  N   UNL     1       4.075   6.695  17.015  0.00  0.00    +0.000 NA
ATOM     15  N   UNL     1       4.849   5.663  16.555  0.00  0.00    +0.000 N 
ATOM     16  C   UNL     1       5.616   5.674  15.422  0.00  0.00    +0.000 A 
ATOM     17  N   UNL     1       6.272   4.539  15.298  0.00  0.00    +0.000 NA
ATOM     18  N   UNL     1       5.954   3.754  16.389  0.00  0.00    +0.000 NA
ATOM     19  C   UNL     1       5.109   4.439  17.118  0.00  0.00    +0.000 A 
ATOM     20  S   UNL     1       4.390   3.989  18.612  0.00  0.00    +0.000 S 
ATOM     21  C   UNL     1       2.897   4.991  18.444  0.00  0.00    +0.000 C 
ENDBRANCH   8  13
TORSDOF 1
ENDMDL
MODEL 3
REMARK VINA RESULT:      -7.7      4.008      5.025
REMARK  Name = 
REMARK  1 active torsions:
REMARK  status: ('A' for Active; 'I' for Inactive)
REMARK    1  A    between atoms: C_8  and  C_9
REMARK                            x       y       z     vdW  Elec       q    Type
REMARK                         _______ _______ _______ _____ _____    ______ ____
ROOT
ATOM      1  O   UNL     1       7.567   5.693  15.080  0.00  0.00    +0.000 OA
ATOM      2  C   UNL     1       6.551   5.441  15.723  0.00  0.00    +0.000 C 
ATOM      3  C   UNL     1       6.086   4.018  16.030  0.00  0.00    +0.000 C 
ATOM      4  O   UNL     1       4.732   3.791  16.391  0.00  0.00    +0.000 OA
ATOM      5  C   UNL     1       4.139   4.842  17.033  0.00  0.00    +0.000 A 
ATOM      6  C   UNL     1       2.954   4.562  17.710  0.00  0.00    +0.000 A 
ATOM      7  C   UNL     1       2.263   5.586  18.365  0.00  0.00    +0.000 A 
ATOM      8  C   UNL     1       2.740   6.903  18.315  0.00  0.00    +0.000 A 
ATOM      9  C   UNL     1       3.934   7.181  17.631  0.00  0.00    +0.000 A 
ATOM     10  C   UNL     1       4.628   6.149  16.996  0.00  0.00    +0.000 A 
ATOM     11  N   UNL     1       5.799   6.432  16.292  0.00  0.00    +0.000 N 
ATOM     12  H   UNL     1       6.128   7.382  16.172  0.00  0.00    +0.000 HD
ENDROOT
BRANCH   8  13
ATOM     13  C   UNL     1       1.997   8.031  18.965  0.00  0.00    +0.000 C 
ATOM     14  N   UNL     1       1.850   7.998  20.262  0.00  0.00    +0.000 NA
ATOM     15  N   UNL     1       1.254   9.089  20.837  0.00  0.00    +0.000 N 
ATOM     16  C   UNL     1       0.775   9.165  22.116  0.00  0.00    +0.000 A 
ATOM     17  N   UNL     1       0.309  10.371  22.363  0.00  0.00    +0.000 NA
ATOM     18  N   UNL     1       0.500  11.132  21.227  0.00  0.00    +0.000 NA
ATOM     19  C   UNL     1       1.060  10.352  20.336  0.00  0.00    +0.000 A 
ATOM     20  S   UNL     1       1.563  10.751  18.742  0.00  0.00    +0.000 S 
ATOM     21  C   UNL     1       1.400   9.095  18.042  0.00  0.00    +0.000 C 
ENDBRANCH   8  13
TORSDOF 1
ENDMDL
MODEL 4
REMARK VINA RESULT:      -7.6      4.792      6.236
REMARK  Name = 
REMARK  1 active torsions:
REMARK  status: ('A' for Active; 'I' for Inactive)
REMARK    1  A    between atoms: C_8  and  C_9
REMARK                            x       y       z     vdW  Elec       q    Type
REMARK                         _______ _______ _______ _____ _____    ______ ____
ROOT
ATOM      1  O   UNL     1       4.308   2.215  19.604  0.00  0.00    +0.000 OA
ATOM      2  C   UNL     1       4.102   3.303  19.073  0.00  0.00    +0.000 C 
ATOM      3  C   UNL     1       4.518   3.627  17.639  0.00  0.00    +0.000 C 
ATOM      4  O   UNL     1       4.636   4.984  17.238  0.00  0.00    +0.000 OA
ATOM      5  C   UNL     1       3.802   5.840  17.904  0.00  0.00    +0.000 A 
ATOM      6  C   UNL     1       3.620   7.095  17.328  0.00  0.00    +0.000 A 
ATOM      7  C   UNL     1       2.811   8.044  17.960  0.00  0.00    +0.000 A 
ATOM      8  C   UNL     1       2.208   7.750  19.190  0.00  0.00    +0.000 A 
ATOM      9  C   UNL     1       2.395   6.484  19.767  0.00  0.00    +0.000 A 
ATOM     10  C   UNL     1       3.189   5.535  19.120  0.00  0.00    +0.000 A 
ATOM     11  N   UNL     1       3.397   4.288  19.710  0.00  0.00    +0.000 N 
ATOM     12  H   UNL     1       3.040   4.072  20.632  0.00  0.00    +0.000 HD
ENDROOT
BRANCH   8  13
ATOM     13  C   UNL     1       1.375   8.763  19.917  0.00  0.00    +0.000 C 
ATOM     14  N   UNL     1       1.166   8.578  21.192  0.00  0.00    +0.000 NA
ATOM     15  N   UNL     1       0.483   9.569  21.848  0.00  0.00    +0.000 N 
ATOM     16  C   UNL     1      -0.062   9.479  23.100  0.00  0.00    +0.000 A 
ATOM     17  N   UNL     1      -0.604  10.627  23.450  0.00  0.00    +0.000 NA
ATOM     18  N   UNL     1      -0.396  11.518  22.416  0.00  0.00    +0.000 NA
ATOM     19  C   UNL     1       0.248  10.869  21.477  0.00  0.00    +0.000 A 
ATOM     20  S   UNL     1       0.808  11.467  19.967  0.00  0.00    +0.000 S 
ATOM     21  C   UNL     1       0.769   9.894  19.083  0.00  0.00    +0.000 C 
ENDBRANCH   8  13
TORSDOF 1
ENDMDL
MODEL 5
REMARK VINA RESULT:      -7.5      1.515      1.753
REMARK  Name = 
REMARK  1 active torsions:
REMARK  status: ('A' for Active; 'I' for Inactive)
REMARK    1  A    between atoms: C_8  and  C_9
REMARK                            x       y       z     vdW  Elec       q    Type
REMARK                         _______ _______ _______ _____ _____    ______ ____
ROOT
ATOM      1  O   UNL     1       7.012   3.029  11.394  0.00  0.00    +0.000 OA
ATOM      2  C   UNL     1       6.971   3.699  12.422  0.00  0.00    +0.000 C 
ATOM      3  C   UNL     1       7.690   5.039  12.578  0.00  0.00    +0.000 C 
ATOM      4  O   UNL     1       7.952   5.541  13.880  0.00  0.00    +0.000 OA
ATOM      5  C   UNL     1       7.040   5.157  14.823  0.00  0.00    +0.000 A 
ATOM      6  C   UNL     1       7.040   5.883  16.012  0.00  0.00    +0.000 A 
ATOM      7  C   UNL     1       6.164   5.536  17.044  0.00  0.00    +0.000 A 
ATOM      8  C   UNL     1       5.305   4.437  16.901  0.00  0.00    +0.000 A 
ATOM      9  C   UNL     1       5.308   3.708  15.701  0.00  0.00    +0.000 A 
ATOM     10  C   UNL     1       6.174   4.073  14.668  0.00  0.00    +0.000 A 
ATOM     11  N   UNL     1       6.197   3.329  13.488  0.00  0.00    +0.000 N 
ATOM     12  H   UNL     1       5.647   2.486  13.382  0.00  0.00    +0.000 HD
ENDROOT
BRANCH   8  13
ATOM     13  C   UNL     1       4.388   4.010  18.007  0.00  0.00    +0.000 C 
ATOM     14  N   UNL     1       3.115   3.906  17.738  0.00  0.00    +0.000 NA
ATOM     15  N   UNL     1       2.317   3.420  18.740  0.00  0.00    +0.000 N 
ATOM     16  C   UNL     1       0.949   3.464  18.773  0.00  0.00    +0.000 A 
ATOM     17  N   UNL     1       0.496   2.865  19.855  0.00  0.00    +0.000 NA
ATOM     18  N   UNL     1       1.586   2.386  20.554  0.00  0.00    +0.000 NA
ATOM     19  C   UNL     1       2.653   2.728  19.875  0.00  0.00    +0.000 A 
ATOM     20  S   UNL     1       4.296   2.380  20.237  0.00  0.00    +0.000 S 
ATOM     21  C   UNL     1       5.012   3.804  19.389  0.00  0.00    +0.000 C 
ENDBRANCH   8  13
TORSDOF 1
ENDMDL
MODEL 6
REMARK VINA RESULT:      -7.4      5.016      7.834
REMARK  Name = 
REMARK  1 active torsions:
REMARK  status: ('A' for Active; 'I' for Inactive)
REMARK    1  A    between atoms: C_8  and  C_9
REMARK                            x       y       z     vdW  Elec       q    Type
REMARK                         _______ _______ _______ _____ _____    ______ ____
ROOT
ATOM      1  O   UNL     1      -0.665   8.906  22.788  0.00  0.00    +0.000 OA
ATOM      2  C   UNL     1      -0.122   9.017  21.692  0.00  0.00    +0.000 C 
ATOM      3  C   UNL     1      -0.390  10.180  20.737  0.00  0.00    +0.000 C 
ATOM      4  O   UNL     1      -0.075  10.037  19.360  0.00  0.00    +0.000 OA
ATOM      5  C   UNL     1       0.970   9.192  19.109  0.00  0.00    +0.000 A 
ATOM      6  C   UNL     1       1.542   9.279  17.842  0.00  0.00    +0.000 A 
ATOM      7  C   UNL     1       2.592   8.427  17.488  0.00  0.00    +0.000 A 
ATOM      8  C   UNL     1       3.052   7.461  18.392  0.00  0.00    +0.000 A 
ATOM      9  C   UNL     1       2.472   7.376  19.668  0.00  0.00    +0.000 A 
ATOM     10  C   UNL     1       1.436   8.243  20.020  0.00  0.00    +0.000 A 
ATOM     11  N   UNL     1       0.841   8.136  21.277  0.00  0.00    +0.000 N 
ATOM     12  H   UNL     1       1.096   7.401  21.924  0.00  0.00    +0.000 HD
ENDROOT
BRANCH   8  13
ATOM     13  C   UNL     1       4.144   6.500  18.026  0.00  0.00    +0.000 C 
ATOM     14  N   UNL     1       4.626   6.558  16.814  0.00  0.00    +0.000 NA
ATOM     15  N   UNL     1       5.687   5.736  16.540  0.00  0.00    +0.000 N 
ATOM     16  C   UNL     1       6.181   5.445  15.298  0.00  0.00    +0.000 A 
ATOM     17  N   UNL     1       7.235   4.662  15.393  0.00  0.00    +0.000 NA
ATOM     18  N   UNL     1       7.470   4.441  16.735  0.00  0.00    +0.000 NA
ATOM     19  C   UNL     1       6.540   5.085  17.396  0.00  0.00    +0.000 A 
ATOM     20  S   UNL     1       6.337   5.205  19.098  0.00  0.00    +0.000 S 
ATOM     21  C   UNL     1       4.552   5.474  19.085  0.00  0.00    +0.000 C 
ENDBRANCH   8  13
TORSDOF 1
ENDMDL
MODEL 7
REMARK VINA RESULT:      -7.3      1.538      1.741
REMARK  Name = 
REMARK  1 active torsions:
REMARK  status: ('A' for Active; 'I' for Inactive)
REMARK    1  A    between atoms: C_8  and  C_9
REMARK                            x       y       z     vdW  Elec       q    Type
REMARK                         _______ _______ _______ _____ _____    ______ ____
ROOT
ATOM      1  O   UNL     1       7.120   3.059  11.335  0.00  0.00    +0.000 OA
ATOM      2  C   UNL     1       7.035   3.724  12.365  0.00  0.00    +0.000 C 
ATOM      3  C   UNL     1       7.804   5.025  12.588  0.00  0.00    +0.000 C 
ATOM      4  O   UNL     1       7.992   5.504  13.912  0.00  0.00    +0.000 OA
ATOM      5  C   UNL     1       6.993   5.159  14.779  0.00  0.00    +0.000 A 
ATOM      6  C   UNL     1       6.940   5.875  15.973  0.00  0.00    +0.000 A 
ATOM      7  C   UNL     1       5.972   5.565  16.933  0.00  0.00    +0.000 A 
ATOM      8  C   UNL     1       5.075   4.512  16.714  0.00  0.00    +0.000 A 
ATOM      9  C   UNL     1       5.132   3.792  15.510  0.00  0.00    +0.000 A 
ATOM     10  C   UNL     1       6.090   4.121  14.549  0.00  0.00    +0.000 A 
ATOM     11  N   UNL     1       6.165   3.385  13.366  0.00  0.00    +0.000 N 
ATOM     12  H   UNL     1       5.584   2.571  13.210  0.00  0.00    +0.000 HD
ENDROOT
BRANCH   8  13
ATOM     13  C   UNL     1       4.056   4.122  17.744  0.00  0.00    +0.000 C 
ATOM     14  N   UNL     1       3.519   5.071  18.461  0.00  0.00    +0.000 NA
ATOM     15  N   UNL     1       2.524   4.696  19.324  0.00  0.00    +0.000 N 
ATOM     16  C   UNL     1       2.004   5.457  20.335  0.00  0.00    +0.000 A 
ATOM     17  N   UNL     1       1.028   4.814  20.941  0.00  0.00    +0.000 NA
ATOM     18  N   UNL     1       0.872   3.599  20.305  0.00  0.00    +0.000 NA
ATOM     19  C   UNL     1       1.769   3.550  19.351  0.00  0.00    +0.000 A 
ATOM     20  S   UNL     1       2.034   2.296  18.207  0.00  0.00    +0.000 S 
ATOM     21  C   UNL     1       3.786   2.626  17.925  0.00  0.00    +0.000 C 
ENDBRANCH   8  13
TORSDOF 1
ENDMDL
MODEL 8
REMARK VINA RESULT:      -7.2      5.255      7.529
REMARK  Name = 
REMARK  1 active torsions:
REMARK  status: ('A' for Active; 'I' for Inactive)
REMARK    1  A    between atoms: C_8  and  C_9
REMARK                            x       y       z     vdW  Elec       q    Type
REMARK                         _______ _______ _______ _____ _____    ______ ____
ROOT
ATOM      1  O   UNL     1      -0.227  11.239  22.771  0.00  0.00    +0.000 OA
ATOM      2  C   UNL     1       0.263  10.826  21.724  0.00  0.00    +0.000 C 
ATOM      3  C   UNL     1       0.514  11.717  20.507  0.00  0.00    +0.000 C 
ATOM      4  O   UNL     1       0.675  11.120  19.229  0.00  0.00    +0.000 OA
ATOM      5  C   UNL     1       1.213   9.864  19.261  0.00  0.00    +0.000 A 
ATOM      6  C   UNL     1       1.712   9.377  18.055  0.00  0.00    +0.000 A 
ATOM      7  C   UNL     1       2.248   8.087  17.990  0.00  0.00    +0.000 A 
ATOM      8  C   UNL     1       2.255   7.267  19.126  0.00  0.00    +0.000 A 
ATOM      9  C   UNL     1       1.750   7.762  20.339  0.00  0.00    +0.000 A 
ATOM     10  C   UNL     1       1.234   9.058  20.400  0.00  0.00    +0.000 A 
ATOM     11  N   UNL     1       0.706   9.537  21.600  0.00  0.00    +0.000 N 
ATOM     12  H   UNL     1       0.625   8.945  22.417  0.00  0.00    +0.000 HD
ENDROOT
BRANCH   8  13
ATOM     13  C   UNL     1       2.779   5.863  19.077  0.00  0.00    +0.000 C 
ATOM     14  N   UNL     1       1.924   4.901  18.860  0.00  0.00    +0.000 NA
ATOM     15  N   UNL     1       2.445   3.641  18.724  0.00  0.00    +0.000 N 
ATOM     16  C   UNL     1       1.737   2.470  18.745  0.00  0.00    +0.000 A 
ATOM     17  N   UNL     1       2.537   1.445  18.537  0.00  0.00    +0.000 NA
ATOM     18  N   UNL     1       3.811   1.942  18.348  0.00  0.00    +0.000 NA
ATOM     19  C   UNL     1       3.732   3.244  18.464  0.00  0.00    +0.000 A 
ATOM     20  S   UNL     1       4.991   4.402  18.297  0.00  0.00    +0.000 S 
ATOM     21  C   UNL     1       4.268   5.664  19.366  0.00  0.00    +0.000 C 
ENDBRANCH   8  13
TORSDOF 1
ENDMDL
MODEL 9
REMARK VINA RESULT:      -7.2      5.326      7.773
REMARK  Name = 
REMARK  1 active torsions:
REMARK  status: ('A' for Active; 'I' for Inactive)
REMARK    1  A    between atoms: C_8  and  C_9
REMARK                            x       y       z     vdW  Elec       q    Type
REMARK                         _______ _______ _______ _____ _____    ______ ____
ROOT
ATOM      1  O   UNL     1      -0.267  12.794  18.230  0.00  0.00    +0.000 OA
ATOM      2  C   UNL     1       0.060  11.756  18.798  0.00  0.00    +0.000 C 
ATOM      3  C   UNL     1      -0.374  11.406  20.221  0.00  0.00    +0.000 C 
ATOM      4  O   UNL     1       0.359  10.435  20.954  0.00  0.00    +0.000 OA
ATOM      5  C   UNL     1       0.948   9.475  20.179  0.00  0.00    +0.000 A 
ATOM      6  C   UNL     1       1.373   8.325  20.839  0.00  0.00    +0.000 A 
ATOM      7  C   UNL     1       2.017   7.307  20.129  0.00  0.00    +0.000 A 
ATOM      8  C   UNL     1       2.268   7.454  18.759  0.00  0.00    +0.000 A 
ATOM      9  C   UNL     1       1.838   8.615  18.096  0.00  0.00    +0.000 A 
ATOM     10  C   UNL     1       1.179   9.618  18.809  0.00  0.00    +0.000 A 
ATOM     11  N   UNL     1       0.779  10.784  18.156  0.00  0.00    +0.000 N 
ATOM     12  H   UNL     1       1.012  10.954  17.186  0.00  0.00    +0.000 HD
ENDROOT
BRANCH   8  13
ATOM     13  C   UNL     1       2.999   6.402  17.978  0.00  0.00    +0.000 C 
ATOM     14  N   UNL     1       4.053   6.769  17.300  0.00  0.00    +0.000 NA
ATOM     15  N   UNL     1       4.755   5.770  16.678  0.00  0.00    +0.000 N 
ATOM     16  C   UNL     1       5.721   5.940  15.724  0.00  0.00    +0.000 A 
ATOM     17  N   UNL     1       6.229   4.777  15.371  0.00  0.00    +0.000 NA
ATOM     18  N   UNL     1       5.603   3.804  16.125  0.00  0.00    +0.000 NA
ATOM     19  C   UNL     1       4.733   4.415  16.890  0.00  0.00    +0.000 A 
ATOM     20  S   UNL     1       3.684   3.727  18.063  0.00  0.00    +0.000 S 
ATOM     21  C   UNL     1       2.401   4.994  17.978  0.00  0.00    +0.000 C 
ENDBRANCH   8  13
TORSDOF 1
ENDMDL
