MODEL 1
REMARK VINA RESULT:      -7.7      0.000      0.000
REMARK  Name = 
REMARK  7 active torsions:
REMARK  status: ('A' for Active; 'I' for Inactive)
REMARK    1  A    between atoms: C_1  and  N_2
REMARK    2  A    between atoms: C_3  and  C_5
REMARK    3  A    between atoms: C_8  and  O_9
REMARK    4  A    between atoms: O_9  and  C_10
REMARK    5  A    between atoms: C_13  and  C_14
REMARK    6  A    between atoms: C_14  and  C_17
REMARK    7  A    between atoms: C_17  and  O_18
REMARK                            x       y       z     vdW  Elec       q    Type
REMARK                         _______ _______ _______ _____ _____    ______ ____
ROOT
ATOM      1  C   UNL     1       4.449   5.006  16.942  0.00  0.00    +0.000 A 
ATOM      2  C   UNL     1       4.030   5.941  17.872  0.00  0.00    +0.000 A 
ATOM      3  C   UNL     1       3.055   5.431  18.805  0.00  0.00    +0.000 A 
ATOM      4  C   UNL     1       2.364   6.051  19.871  0.00  0.00    +0.000 A 
ATOM      5  C   UNL     1       1.412   5.278  20.533  0.00  0.00    +0.000 A 
ATOM      6  N   UNL     1       1.183   3.969  20.301  0.00  0.00    +0.000 NA
ATOM      7  C   UNL     1       1.884   3.357  19.324  0.00  0.00    +0.000 A 
ATOM      8  C   UNL     1       2.796   4.082  18.554  0.00  0.00    +0.000 A 
ATOM      9  S   UNL     1       3.717   3.491  17.232  0.00  0.00    +0.000 S 
ENDROOT
BRANCH   1  12
ATOM     10  C   UNL     1       6.472   4.148  13.891  0.00  0.00    +0.000 C 
ATOM     11  N   UNL     1       5.572   4.121  15.012  0.00  0.00    +0.000 N 
ATOM     12  C   UNL     1       5.389   5.210  15.843  0.00  0.00    +0.000 C 
ATOM     13  O   UNL     1       5.975   6.271  15.652  0.00  0.00    +0.000 OA
ATOM     14  H   UNL     1       5.067   3.270  15.221  0.00  0.00    +0.000 HD
ENDBRANCH   1  12
BRANCH   4  15
ATOM     15  O   UNL     1       2.589   7.383  20.157  0.00  0.00    +0.000 OA
BRANCH  15  16
ATOM     16  C   UNL     1       1.631   8.311  19.810  0.00  0.00    +0.000 A 
ATOM     17  C   UNL     1       0.732   8.879  20.718  0.00  0.00    +0.000 A 
ATOM     18  C   UNL     1      -0.212   9.812  20.282  0.00  0.00    +0.000 A 
ATOM     19  C   UNL     1      -0.237  10.233  18.945  0.00  0.00    +0.000 A 
ATOM     20  C   UNL     1       0.697   9.690  18.048  0.00  0.00    +0.000 A 
ATOM     21  C   UNL     1       1.625   8.736  18.481  0.00  0.00    +0.000 A 
BRANCH  19  22
ATOM     22  C   UNL     1      -1.238  11.277  18.496  0.00  0.00    +0.000 C 
ATOM     23  F   UNL     1      -2.093  11.639  19.507  0.00  0.00    +0.000 F 
ATOM     24  F   UNL     1      -0.634  12.440  18.114  0.00  0.00    +0.000 F 
BRANCH  22  25
ATOM     25  C   UNL     1      -2.116  10.775  17.331  0.00  0.00    +0.000 C 
BRANCH  25  26
ATOM     26  O   UNL     1      -2.181  11.715  16.246  0.00  0.00    +0.000 OA
ATOM     27  H   UNL     1      -1.822  12.561  16.579  0.00  0.00    +0.000 HD
ENDBRANCH  25  26
ENDBRANCH  22  25
ENDBRANCH  19  22
ENDBRANCH  15  16
ENDBRANCH   4  15
TORSDOF 6
ENDMDL
MODEL 2
REMARK VINA RESULT:      -7.6      0.832      1.309
REMARK  Name = 
REMARK  7 active torsions:
REMARK  status: ('A' for Active; 'I' for Inactive)
REMARK    1  A    between atoms: C_1  and  N_2
REMARK    2  A    between atoms: C_3  and  C_5
REMARK    3  A    between atoms: C_8  and  O_9
REMARK    4  A    between atoms: O_9  and  C_10
REMARK    5  A    between atoms: C_13  and  C_14
REMARK    6  A    between atoms: C_14  and  C_17
REMARK    7  A    between atoms: C_17  and  O_18
REMARK                            x       y       z     vdW  Elec       q    Type
REMARK                         _______ _______ _______ _____ _____    ______ ____
ROOT
ATOM      1  C   UNL     1       4.348   5.183  16.978  0.00  0.00    +0.000 A 
ATOM      2  C   UNL     1       3.942   6.022  18.000  0.00  0.00    +0.000 A 
ATOM      3  C   UNL     1       2.963   5.431  18.879  0.00  0.00    +0.000 A 
ATOM      4  C   UNL     1       2.281   5.946  20.005  0.00  0.00    +0.000 A 
ATOM      5  C   UNL     1       1.321   5.120  20.587  0.00  0.00    +0.000 A 
ATOM      6  N   UNL     1       1.076   3.845  20.222  0.00  0.00    +0.000 NA
ATOM      7  C   UNL     1       1.768   3.328  19.185  0.00  0.00    +0.000 A 
ATOM      8  C   UNL     1       2.687   4.117  18.492  0.00  0.00    +0.000 A 
ATOM      9  S   UNL     1       3.599   3.655  17.113  0.00  0.00    +0.000 S 
ENDROOT
BRANCH   1  12
ATOM     10  C   UNL     1       6.735   4.513  14.151  0.00  0.00    +0.000 C 
ATOM     11  N   UNL     1       5.789   4.391  15.226  0.00  0.00    +0.000 N 
ATOM     12  C   UNL     1       5.288   5.487  15.903  0.00  0.00    +0.000 C 
ATOM     13  O   UNL     1       5.614   6.632  15.603  0.00  0.00    +0.000 OA
ATOM     14  H   UNL     1       5.490   3.470  15.521  0.00  0.00    +0.000 HD
ENDBRANCH   1  12
BRANCH   4  15
ATOM     15  O   UNL     1       2.523   7.238  20.425  0.00  0.00    +0.000 OA
BRANCH  15  16
ATOM     16  C   UNL     1       1.618   8.226  20.101  0.00  0.00    +0.000 A 
ATOM     17  C   UNL     1       1.543   8.830  18.842  0.00  0.00    +0.000 A 
ATOM     18  C   UNL     1       0.597   9.828  18.596  0.00  0.00    +0.000 A 
ATOM     19  C   UNL     1      -0.325  10.199  19.585  0.00  0.00    +0.000 A 
ATOM     20  C   UNL     1      -0.271   9.558  20.833  0.00  0.00    +0.000 A 
ATOM     21  C   UNL     1       0.694   8.577  21.086  0.00  0.00    +0.000 A 
BRANCH  19  22
ATOM     22  C   UNL     1      -1.373  11.253  19.291  0.00  0.00    +0.000 C 
ATOM     23  F   UNL     1      -2.454  10.730  18.627  0.00  0.00    +0.000 F 
ATOM     24  F   UNL     1      -1.890  11.797  20.431  0.00  0.00    +0.000 F 
BRANCH  22  25
ATOM     25  C   UNL     1      -0.819  12.391  18.411  0.00  0.00    +0.000 C 
BRANCH  25  26
ATOM     26  O   UNL     1      -1.474  12.467  17.134  0.00  0.00    +0.000 OA
ATOM     27  H   UNL     1      -0.773  12.541  16.458  0.00  0.00    +0.000 HD
ENDBRANCH  25  26
ENDBRANCH  22  25
ENDBRANCH  19  22
ENDBRANCH  15  16
ENDBRANCH   4  15
TORSDOF 6
ENDMDL
MODEL 3
REMARK VINA RESULT:      -7.2      4.868      7.961
REMARK  Name = 
REMARK  7 active torsions:
REMARK  status: ('A' for Active; 'I' for Inactive)
REMARK    1  A    between atoms: C_1  and  N_2
REMARK    2  A    between atoms: C_3  and  C_5
REMARK    3  A    between atoms: C_8  and  O_9
REMARK    4  A    between atoms: O_9  and  C_10
REMARK    5  A    between atoms: C_13  and  C_14
REMARK    6  A    between atoms: C_14  and  C_17
REMARK    7  A    between atoms: C_17  and  O_18
REMARK                            x       y       z     vdW  Elec       q    Type
REMARK                         _______ _______ _______ _____ _____    ______ ____
ROOT
ATOM      1  C   UNL     1      -2.377  10.959  17.643  0.00  0.00    +0.000 A 
ATOM      2  C   UNL     1      -1.115  10.413  17.793  0.00  0.00    +0.000 A 
ATOM      3  C   UNL     1      -0.500  10.716  19.062  0.00  0.00    +0.000 A 
ATOM      4  C   UNL     1       0.766  10.384  19.594  0.00  0.00    +0.000 A 
ATOM      5  C   UNL     1       1.080  10.917  20.843  0.00  0.00    +0.000 A 
ATOM      6  N   UNL     1       0.232  11.629  21.614  0.00  0.00    +0.000 NA
ATOM      7  C   UNL     1      -1.000  11.898  21.135  0.00  0.00    +0.000 A 
ATOM      8  C   UNL     1      -1.364  11.474  19.855  0.00  0.00    +0.000 A 
ATOM      9  S   UNL     1      -2.853  11.785  19.059  0.00  0.00    +0.000 S 
ENDROOT
BRANCH   1  12
ATOM     10  C   UNL     1      -3.406  10.091  14.132  0.00  0.00    +0.000 C 
ATOM     11  N   UNL     1      -2.694  10.246  15.371  0.00  0.00    +0.000 N 
ATOM     12  C   UNL     1      -3.245  10.876  16.471  0.00  0.00    +0.000 C 
ATOM     13  O   UNL     1      -4.388  11.319  16.453  0.00  0.00    +0.000 OA
ATOM     14  H   UNL     1      -1.743   9.906  15.442  0.00  0.00    +0.000 HD
ENDBRANCH   1  12
BRANCH   4  15
ATOM     15  O   UNL     1       1.653   9.634  18.847  0.00  0.00    +0.000 OA
BRANCH  15  16
ATOM     16  C   UNL     1       1.862   8.315  19.184  0.00  0.00    +0.000 A 
ATOM     17  C   UNL     1       1.551   7.773  20.435  0.00  0.00    +0.000 A 
ATOM     18  C   UNL     1       1.798   6.423  20.698  0.00  0.00    +0.000 A 
ATOM     19  C   UNL     1       2.308   5.582  19.699  0.00  0.00    +0.000 A 
ATOM     20  C   UNL     1       2.578   6.124  18.432  0.00  0.00    +0.000 A 
ATOM     21  C   UNL     1       2.355   7.482  18.179  0.00  0.00    +0.000 A 
BRANCH  19  22
ATOM     22  C   UNL     1       2.531   4.111  19.984  0.00  0.00    +0.000 C 
ATOM     23  F   UNL     1       1.940   3.309  19.039  0.00  0.00    +0.000 F 
ATOM     24  F   UNL     1       3.853   3.775  19.953  0.00  0.00    +0.000 F 
BRANCH  22  25
ATOM     25  C   UNL     1       1.949   3.691  21.349  0.00  0.00    +0.000 C 
BRANCH  25  26
ATOM     26  O   UNL     1       2.731   2.670  21.989  0.00  0.00    +0.000 OA
ATOM     27  H   UNL     1       2.999   3.020  22.861  0.00  0.00    +0.000 HD
ENDBRANCH  25  26
ENDBRANCH  22  25
ENDBRANCH  19  22
ENDBRANCH  15  16
ENDBRANCH   4  15
TORSDOF 6
ENDMDL
MODEL 4
REMARK VINA RESULT:      -7.1      1.093      1.553
REMARK  Name = 
REMARK  7 active torsions:
REMARK  status: ('A' for Active; 'I' for Inactive)
REMARK    1  A    between atoms: C_1  and  N_2
REMARK    2  A    between atoms: C_3  and  C_5
REMARK    3  A    between atoms: C_8  and  O_9
REMARK    4  A    between atoms: O_9  and  C_10
REMARK    5  A    between atoms: C_13  and  C_14
REMARK    6  A    between atoms: C_14  and  C_17
REMARK    7  A    between atoms: C_17  and  O_18
REMARK                            x       y       z     vdW  Elec       q    Type
REMARK                         _______ _______ _______ _____ _____    ______ ____
ROOT
ATOM      1  C   UNL     1       4.702   4.284  17.336  0.00  0.00    +0.000 A 
ATOM      2  C   UNL     1       4.280   5.293  18.183  0.00  0.00    +0.000 A 
ATOM      3  C   UNL     1       3.115   4.947  18.959  0.00  0.00    +0.000 A 
ATOM      4  C   UNL     1       2.362   5.684  19.901  0.00  0.00    +0.000 A 
ATOM      5  C   UNL     1       1.224   5.066  20.415  0.00  0.00    +0.000 A 
ATOM      6  N   UNL     1       0.856   3.793  20.162  0.00  0.00    +0.000 NA
ATOM      7  C   UNL     1       1.606   3.064  19.309  0.00  0.00    +0.000 A 
ATOM      8  C   UNL     1       2.714   3.638  18.683  0.00  0.00    +0.000 A 
ATOM      9  S   UNL     1       3.735   2.890  17.523  0.00  0.00    +0.000 S 
ENDROOT
BRANCH   1  12
ATOM     10  C   UNL     1       6.444   4.215  14.005  0.00  0.00    +0.000 C 
ATOM     11  N   UNL     1       5.470   4.206  15.061  0.00  0.00    +0.000 N 
ATOM     12  C   UNL     1       5.817   4.327  16.393  0.00  0.00    +0.000 C 
ATOM     13  O   UNL     1       6.984   4.471  16.743  0.00  0.00    +0.000 OA
ATOM     14  H   UNL     1       4.492   4.083  14.832  0.00  0.00    +0.000 HD
ENDBRANCH   1  12
BRANCH   4  15
ATOM     15  O   UNL     1       2.722   6.982  20.207  0.00  0.00    +0.000 OA
BRANCH  15  16
ATOM     16  C   UNL     1       1.936   8.017  19.751  0.00  0.00    +0.000 A 
ATOM     17  C   UNL     1       1.909   8.447  18.420  0.00  0.00    +0.000 A 
ATOM     18  C   UNL     1       1.085   9.509  18.040  0.00  0.00    +0.000 A 
ATOM     19  C   UNL     1       0.234  10.122  18.971  0.00  0.00    +0.000 A 
ATOM     20  C   UNL     1       0.234   9.657  20.296  0.00  0.00    +0.000 A 
ATOM     21  C   UNL     1       1.080   8.610  20.680  0.00  0.00    +0.000 A 
BRANCH  19  22
ATOM     22  C   UNL     1      -0.686  11.244  18.536  0.00  0.00    +0.000 C 
ATOM     23  F   UNL     1       0.011  12.369  18.173  0.00  0.00    +0.000 F 
ATOM     24  F   UNL     1      -1.417  10.912  17.432  0.00  0.00    +0.000 F 
BRANCH  22  25
ATOM     25  C   UNL     1      -1.657  11.665  19.658  0.00  0.00    +0.000 C 
BRANCH  25  26
ATOM     26  O   UNL     1      -2.836  12.312  19.151  0.00  0.00    +0.000 OA
ATOM     27  H   UNL     1      -3.482  11.608  18.949  0.00  0.00    +0.000 HD
ENDBRANCH  25  26
ENDBRANCH  22  25
ENDBRANCH  19  22
ENDBRANCH  15  16
ENDBRANCH   4  15
TORSDOF 6
ENDMDL
MODEL 5
REMARK VINA RESULT:      -7.1      1.103      1.134
REMARK  Name = 
REMARK  7 active torsions:
REMARK  status: ('A' for Active; 'I' for Inactive)
REMARK    1  A    between atoms: C_1  and  N_2
REMARK    2  A    between atoms: C_3  and  C_5
REMARK    3  A    between atoms: C_8  and  O_9
REMARK    4  A    between atoms: O_9  and  C_10
REMARK    5  A    between atoms: C_13  and  C_14
REMARK    6  A    between atoms: C_14  and  C_17
REMARK    7  A    between atoms: C_17  and  O_18
REMARK                            x       y       z     vdW  Elec       q    Type
REMARK                         _______ _______ _______ _____ _____    ______ ____
ROOT
ATOM      1  C   UNL     1       5.489   4.578  16.693  0.00  0.00    +0.000 A 
ATOM      2  C   UNL     1       4.931   5.466  17.595  0.00  0.00    +0.000 A 
ATOM      3  C   UNL     1       3.682   5.012  18.154  0.00  0.00    +0.000 A 
ATOM      4  C   UNL     1       2.790   5.615  19.070  0.00  0.00    +0.000 A 
ATOM      5  C   UNL     1       1.609   4.926  19.342  0.00  0.00    +0.000 A 
ATOM      6  N   UNL     1       1.312   3.694  18.881  0.00  0.00    +0.000 NA
ATOM      7  C   UNL     1       2.188   3.087  18.053  0.00  0.00    +0.000 A 
ATOM      8  C   UNL     1       3.356   3.746  17.662  0.00  0.00    +0.000 A 
ATOM      9  S   UNL     1       4.542   3.164  16.567  0.00  0.00    +0.000 S 
ENDROOT
BRANCH   1  12
ATOM     10  C   UNL     1       7.647   5.334  13.708  0.00  0.00    +0.000 C 
ATOM     11  N   UNL     1       6.544   5.132  14.607  0.00  0.00    +0.000 N 
ATOM     12  C   UNL     1       6.719   4.753  15.924  0.00  0.00    +0.000 C 
ATOM     13  O   UNL     1       7.836   4.588  16.403  0.00  0.00    +0.000 OA
ATOM     14  H   UNL     1       5.599   5.247  14.264  0.00  0.00    +0.000 HD
ENDBRANCH   1  12
BRANCH   4  15
ATOM     15  O   UNL     1       3.071   6.866  19.585  0.00  0.00    +0.000 OA
BRANCH  15  16
ATOM     16  C   UNL     1       2.130   7.864  19.463  0.00  0.00    +0.000 A 
ATOM     17  C   UNL     1       1.403   8.384  20.538  0.00  0.00    +0.000 A 
ATOM     18  C   UNL     1       0.463   9.396  20.328  0.00  0.00    +0.000 A 
ATOM     19  C   UNL     1       0.274   9.943  19.050  0.00  0.00    +0.000 A 
ATOM     20  C   UNL     1       1.039   9.445  17.983  0.00  0.00    +0.000 A 
ATOM     21  C   UNL     1       1.961   8.413  18.191  0.00  0.00    +0.000 A 
BRANCH  19  22
ATOM     22  C   UNL     1      -0.718  11.069  18.844  0.00  0.00    +0.000 C 
ATOM     23  F   UNL     1      -1.456  11.318  19.974  0.00  0.00    +0.000 F 
ATOM     24  F   UNL     1      -0.101  12.253  18.560  0.00  0.00    +0.000 F 
BRANCH  22  25
ATOM     25  C   UNL     1      -1.722  10.757  17.717  0.00  0.00    +0.000 C 
BRANCH  25  26
ATOM     26  O   UNL     1      -1.813  11.816  16.751  0.00  0.00    +0.000 OA
ATOM     27  H   UNL     1      -2.433  11.519  16.058  0.00  0.00    +0.000 HD
ENDBRANCH  25  26
ENDBRANCH  22  25
ENDBRANCH  19  22
ENDBRANCH  15  16
ENDBRANCH   4  15
TORSDOF 6
ENDMDL
MODEL 6
REMARK VINA RESULT:      -7.0      4.851      7.908
REMARK  Name = 
REMARK  7 active torsions:
REMARK  status: ('A' for Active; 'I' for Inactive)
REMARK    1  A    between atoms: C_1  and  N_2
REMARK    2  A    between atoms: C_3  and  C_5
REMARK    3  A    between atoms: C_8  and  O_9
REMARK    4  A    between atoms: O_9  and  C_10
REMARK    5  A    between atoms: C_13  and  C_14
REMARK    6  A    between atoms: C_14  and  C_17
REMARK    7  A    between atoms: C_17  and  O_18
REMARK                            x       y       z     vdW  Elec       q    Type
REMARK                         _______ _______ _______ _____ _____    ______ ____
ROOT
ATOM      1  C   UNL     1      -2.419  10.923  17.659  0.00  0.00    +0.000 A 
ATOM      2  C   UNL     1      -1.114  10.479  17.771  0.00  0.00    +0.000 A 
ATOM      3  C   UNL     1      -0.492  10.823  19.026  0.00  0.00    +0.000 A 
ATOM      4  C   UNL     1       0.811  10.590  19.522  0.00  0.00    +0.000 A 
ATOM      5  C   UNL     1       1.115  11.139  20.766  0.00  0.00    +0.000 A 
ATOM      6  N   UNL     1       0.234  11.777  21.564  0.00  0.00    +0.000 NA
ATOM      7  C   UNL     1      -1.029  11.949  21.120  0.00  0.00    +0.000 A 
ATOM      8  C   UNL     1      -1.392  11.505  19.848  0.00  0.00    +0.000 A 
ATOM      9  S   UNL     1      -2.921  11.701  19.093  0.00  0.00    +0.000 S 
ENDROOT
BRANCH   1  12
ATOM     10  C   UNL     1      -3.445  10.094  14.138  0.00  0.00    +0.000 C 
ATOM     11  N   UNL     1      -2.716  10.286  15.362  0.00  0.00    +0.000 N 
ATOM     12  C   UNL     1      -3.309  10.777  16.510  0.00  0.00    +0.000 C 
ATOM     13  O   UNL     1      -4.502  11.058  16.548  0.00  0.00    +0.000 OA
ATOM     14  H   UNL     1      -1.726  10.078  15.387  0.00  0.00    +0.000 HD
ENDBRANCH   1  12
BRANCH   4  15
ATOM     15  O   UNL     1       1.734   9.918  18.745  0.00  0.00    +0.000 OA
BRANCH  15  16
ATOM     16  C   UNL     1       1.911   8.566  18.939  0.00  0.00    +0.000 A 
ATOM     17  C   UNL     1       2.383   7.693  17.954  0.00  0.00    +0.000 A 
ATOM     18  C   UNL     1       2.530   6.331  18.231  0.00  0.00    +0.000 A 
ATOM     19  C   UNL     1       2.260   5.830  19.513  0.00  0.00    +0.000 A 
ATOM     20  C   UNL     1       1.828   6.720  20.509  0.00  0.00    +0.000 A 
ATOM     21  C   UNL     1       1.656   8.079  20.222  0.00  0.00    +0.000 A 
BRANCH  19  22
ATOM     22  C   UNL     1       2.465   4.359  19.812  0.00  0.00    +0.000 C 
ATOM     23  F   UNL     1       1.859   3.556  18.879  0.00  0.00    +0.000 F 
ATOM     24  F   UNL     1       3.783   4.005  19.777  0.00  0.00    +0.000 F 
BRANCH  22  25
ATOM     25  C   UNL     1       1.886   3.962  21.185  0.00  0.00    +0.000 C 
BRANCH  25  26
ATOM     26  O   UNL     1       0.816   3.009  21.075  0.00  0.00    +0.000 OA
ATOM     27  H   UNL     1       0.006   3.513  20.865  0.00  0.00    +0.000 HD
ENDBRANCH  25  26
ENDBRANCH  22  25
ENDBRANCH  19  22
ENDBRANCH  15  16
ENDBRANCH   4  15
TORSDOF 6
ENDMDL
MODEL 7
REMARK VINA RESULT:      -7.0      1.232      1.346
REMARK  Name = 
REMARK  7 active torsions:
REMARK  status: ('A' for Active; 'I' for Inactive)
REMARK    1  A    between atoms: C_1  and  N_2
REMARK    2  A    between atoms: C_3  and  C_5
REMARK    3  A    between atoms: C_8  and  O_9
REMARK    4  A    between atoms: O_9  and  C_10
REMARK    5  A    between atoms: C_13  and  C_14
REMARK    6  A    between atoms: C_14  and  C_17
REMARK    7  A    between atoms: C_17  and  O_18
REMARK                            x       y       z     vdW  Elec       q    Type
REMARK                         _______ _______ _______ _____ _____    ______ ____
ROOT
ATOM      1  C   UNL     1       4.665   4.276  17.378  0.00  0.00    +0.000 A 
ATOM      2  C   UNL     1       4.244   5.299  18.208  0.00  0.00    +0.000 A 
ATOM      3  C   UNL     1       3.091   4.961  19.005  0.00  0.00    +0.000 A 
ATOM      4  C   UNL     1       2.343   5.713  19.939  0.00  0.00    +0.000 A 
ATOM      5  C   UNL     1       1.216   5.097  20.480  0.00  0.00    +0.000 A 
ATOM      6  N   UNL     1       0.854   3.817  20.257  0.00  0.00    +0.000 NA
ATOM      7  C   UNL     1       1.600   3.075  19.411  0.00  0.00    +0.000 A 
ATOM      8  C   UNL     1       2.697   3.643  18.761  0.00  0.00    +0.000 A 
ATOM      9  S   UNL     1       3.710   2.879  17.605  0.00  0.00    +0.000 S 
ENDROOT
BRANCH   1  12
ATOM     10  C   UNL     1       6.368   4.156  14.028  0.00  0.00    +0.000 C 
ATOM     11  N   UNL     1       5.406   4.161  15.096  0.00  0.00    +0.000 N 
ATOM     12  C   UNL     1       5.768   4.307  16.421  0.00  0.00    +0.000 C 
ATOM     13  O   UNL     1       6.938   4.463  16.755  0.00  0.00    +0.000 OA
ATOM     14  H   UNL     1       4.426   4.029  14.880  0.00  0.00    +0.000 HD
ENDBRANCH   1  12
BRANCH   4  15
ATOM     15  O   UNL     1       2.696   7.019  20.214  0.00  0.00    +0.000 OA
BRANCH  15  16
ATOM     16  C   UNL     1       1.828   8.031  19.870  0.00  0.00    +0.000 A 
ATOM     17  C   UNL     1       0.961   8.654  20.773  0.00  0.00    +0.000 A 
ATOM     18  C   UNL     1       0.108   9.673  20.341  0.00  0.00    +0.000 A 
ATOM     19  C   UNL     1       0.146  10.123  19.013  0.00  0.00    +0.000 A 
ATOM     20  C   UNL     1       1.050   9.521  18.122  0.00  0.00    +0.000 A 
ATOM     21  C   UNL     1       1.885   8.483  18.551  0.00  0.00    +0.000 A 
BRANCH  19  22
ATOM     22  C   UNL     1      -0.754  11.257  18.568  0.00  0.00    +0.000 C 
ATOM     23  F   UNL     1      -0.037  12.369  18.204  0.00  0.00    +0.000 F 
ATOM     24  F   UNL     1      -1.484  10.932  17.462  0.00  0.00    +0.000 F 
BRANCH  22  25
ATOM     25  C   UNL     1      -1.723  11.699  19.683  0.00  0.00    +0.000 C 
BRANCH  25  26
ATOM     26  O   UNL     1      -1.390  12.988  20.223  0.00  0.00    +0.000 OA
ATOM     27  H   UNL     1      -1.846  13.064  21.083  0.00  0.00    +0.000 HD
ENDBRANCH  25  26
ENDBRANCH  22  25
ENDBRANCH  19  22
ENDBRANCH  15  16
ENDBRANCH   4  15
TORSDOF 6
ENDMDL
MODEL 8
REMARK VINA RESULT:      -7.0      1.903      2.374
REMARK  Name = 
REMARK  7 active torsions:
REMARK  status: ('A' for Active; 'I' for Inactive)
REMARK    1  A    between atoms: C_1  and  N_2
REMARK    2  A    between atoms: C_3  and  C_5
REMARK    3  A    between atoms: C_8  and  O_9
REMARK    4  A    between atoms: O_9  and  C_10
REMARK    5  A    between atoms: C_13  and  C_14
REMARK    6  A    between atoms: C_14  and  C_17
REMARK    7  A    between atoms: C_17  and  O_18
REMARK                            x       y       z     vdW  Elec       q    Type
REMARK                         _______ _______ _______ _____ _____    ______ ____
ROOT
ATOM      1  C   UNL     1       5.586   5.744  17.304  0.00  0.00    +0.000 A 
ATOM      2  C   UNL     1       4.725   6.003  18.355  0.00  0.00    +0.000 A 
ATOM      3  C   UNL     1       3.561   5.152  18.372  0.00  0.00    +0.000 A 
ATOM      4  C   UNL     1       2.445   5.107  19.239  0.00  0.00    +0.000 A 
ATOM      5  C   UNL     1       1.438   4.198  18.917  0.00  0.00    +0.000 A 
ATOM      6  N   UNL     1       1.503   3.299  17.913  0.00  0.00    +0.000 NA
ATOM      7  C   UNL     1       2.594   3.298  17.119  0.00  0.00    +0.000 A 
ATOM      8  C   UNL     1       3.609   4.235  17.321  0.00  0.00    +0.000 A 
ATOM      9  S   UNL     1       5.026   4.428  16.371  0.00  0.00    +0.000 S 
ENDROOT
BRANCH   1  12
ATOM     10  C   UNL     1       8.217   8.423  17.497  0.00  0.00    +0.000 C 
ATOM     11  N   UNL     1       7.054   7.603  17.701  0.00  0.00    +0.000 N 
ATOM     12  C   UNL     1       6.824   6.447  16.979  0.00  0.00    +0.000 C 
ATOM     13  O   UNL     1       7.618   6.048  16.133  0.00  0.00    +0.000 OA
ATOM     14  H   UNL     1       6.361   7.888  18.381  0.00  0.00    +0.000 HD
ENDBRANCH   1  12
BRANCH   4  15
ATOM     15  O   UNL     1       2.354   5.993  20.294  0.00  0.00    +0.000 OA
BRANCH  15  16
ATOM     16  C   UNL     1       1.850   7.255  20.064  0.00  0.00    +0.000 A 
ATOM     17  C   UNL     1       1.943   7.918  18.836  0.00  0.00    +0.000 A 
ATOM     18  C   UNL     1       1.407   9.200  18.687  0.00  0.00    +0.000 A 
ATOM     19  C   UNL     1       0.724   9.817  19.745  0.00  0.00    +0.000 A 
ATOM     20  C   UNL     1       0.597   9.127  20.961  0.00  0.00    +0.000 A 
ATOM     21  C   UNL     1       1.157   7.854  21.117  0.00  0.00    +0.000 A 
BRANCH  19  22
ATOM     22  C   UNL     1       0.111  11.189  19.557  0.00  0.00    +0.000 C 
ATOM     23  F   UNL     1      -0.633  11.574  20.644  0.00  0.00    +0.000 F 
ATOM     24  F   UNL     1       1.058  12.162  19.417  0.00  0.00    +0.000 F 
BRANCH  22  25
ATOM     25  C   UNL     1      -0.829  11.241  18.335  0.00  0.00    +0.000 C 
BRANCH  25  26
ATOM     26  O   UNL     1      -0.895  12.551  17.747  0.00  0.00    +0.000 OA
ATOM     27  H   UNL     1      -1.285  12.445  16.858  0.00  0.00    +0.000 HD
ENDBRANCH  25  26
ENDBRANCH  22  25
ENDBRANCH  19  22
ENDBRANCH  15  16
ENDBRANCH   4  15
TORSDOF 6
ENDMDL
MODEL 9
REMARK VINA RESULT:      -7.0      0.992      1.384
REMARK  Name = 
REMARK  7 active torsions:
REMARK  status: ('A' for Active; 'I' for Inactive)
REMARK    1  A    between atoms: C_1  and  N_2
REMARK    2  A    between atoms: C_3  and  C_5
REMARK    3  A    between atoms: C_8  and  O_9
REMARK    4  A    between atoms: O_9  and  C_10
REMARK    5  A    between atoms: C_13  and  C_14
REMARK    6  A    between atoms: C_14  and  C_17
REMARK    7  A    between atoms: C_17  and  O_18
REMARK                            x       y       z     vdW  Elec       q    Type
REMARK                         _______ _______ _______ _____ _____    ______ ____
ROOT
ATOM      1  C   UNL     1       4.400   4.035  17.167  0.00  0.00    +0.000 A 
ATOM      2  C   UNL     1       4.093   5.089  18.009  0.00  0.00    +0.000 A 
ATOM      3  C   UNL     1       3.016   4.802  18.925  0.00  0.00    +0.000 A 
ATOM      4  C   UNL     1       2.387   5.595  19.911  0.00  0.00    +0.000 A 
ATOM      5  C   UNL     1       1.302   5.025  20.575  0.00  0.00    +0.000 A 
ATOM      6  N   UNL     1       0.885   3.752  20.420  0.00  0.00    +0.000 NA
ATOM      7  C   UNL     1       1.521   2.970  19.523  0.00  0.00    +0.000 A 
ATOM      8  C   UNL     1       2.563   3.492  18.753  0.00  0.00    +0.000 A 
ATOM      9  S   UNL     1       3.434   2.673  17.521  0.00  0.00    +0.000 S 
ENDROOT
BRANCH   1  12
ATOM     10  C   UNL     1       6.982   5.391  14.793  0.00  0.00    +0.000 C 
ATOM     11  N   UNL     1       5.987   5.233  15.819  0.00  0.00    +0.000 N 
ATOM     12  C   UNL     1       5.402   4.014  16.105  0.00  0.00    +0.000 C 
ATOM     13  O   UNL     1       5.721   2.992  15.506  0.00  0.00    +0.000 OA
ATOM     14  H   UNL     1       5.680   6.044  16.340  0.00  0.00    +0.000 HD
ENDBRANCH   1  12
BRANCH   4  15
ATOM     15  O   UNL     1       2.802   6.896  20.118  0.00  0.00    +0.000 OA
BRANCH  15  16
ATOM     16  C   UNL     1       1.985   7.929  19.713  0.00  0.00    +0.000 A 
ATOM     17  C   UNL     1       1.900   8.383  18.394  0.00  0.00    +0.000 A 
ATOM     18  C   UNL     1       1.047   9.441  18.067  0.00  0.00    +0.000 A 
ATOM     19  C   UNL     1       0.227  10.025  19.043  0.00  0.00    +0.000 A 
ATOM     20  C   UNL     1       0.287   9.536  20.358  0.00  0.00    +0.000 A 
ATOM     21  C   UNL     1       1.161   8.494  20.688  0.00  0.00    +0.000 A 
BRANCH  19  22
ATOM     22  C   UNL     1      -0.723  11.143  18.667  0.00  0.00    +0.000 C 
ATOM     23  F   UNL     1      -1.483  11.552  19.734  0.00  0.00    +0.000 F 
ATOM     24  F   UNL     1      -0.063  12.264  18.255  0.00  0.00    +0.000 F 
BRANCH  22  25
ATOM     25  C   UNL     1      -1.707  10.718  17.558  0.00  0.00    +0.000 C 
BRANCH  25  26
ATOM     26  O   UNL     1      -1.958  11.770  16.613  0.00  0.00    +0.000 OA
ATOM     27  H   UNL     1      -1.117  12.250  16.489  0.00  0.00    +0.000 HD
ENDBRANCH  25  26
ENDBRANCH  22  25
ENDBRANCH  19  22
ENDBRANCH  15  16
ENDBRANCH   4  15
TORSDOF 6
ENDMDL
