MODEL 1
REMARK VINA RESULT:      -7.8      0.000      0.000
REMARK  Name = 
REMARK  11 active torsions:
REMARK  status: ('A' for Active; 'I' for Inactive)
REMARK    1  A    between atoms: C_1  and  C_2
REMARK    2  A    between atoms: C_2  and  O_3
REMARK    3  A    between atoms: O_3  and  C_4
REMARK    4  A    between atoms: C_4  and  C_5
REMARK    5  A    between atoms: C_5  and  C_6
REMARK    6  A    between atoms: C_6  and  N_7
REMARK    7  A    between atoms: C_8  and  C_10
REMARK    8  A    between atoms: C_10  and  N_11
REMARK    9  A    between atoms: C_10  and  C_21
REMARK   10  A    between atoms: C_12  and  C_14
REMARK   11  A    between atoms: C_19  and  O_20
REMARK                            x       y       z     vdW  Elec       q    Type
REMARK                         _______ _______ _______ _____ _____    ______ ____
ROOT
ATOM      1  C   UNL     1       5.272   5.012  17.856  0.00  0.00    +0.000 C 
ENDROOT
BRANCH   1   2
ATOM      2  C   UNL     1       4.256   6.130  18.091  0.00  0.00    +0.000 A 
ATOM      3  C   UNL     1       4.111   7.175  17.163  0.00  0.00    +0.000 A 
ATOM      4  C   UNL     1       3.148   8.174  17.347  0.00  0.00    +0.000 A 
ATOM      5  C   UNL     1       2.299   8.124  18.450  0.00  0.00    +0.000 A 
ATOM      6  C   UNL     1       2.414   7.089  19.369  0.00  0.00    +0.000 A 
ATOM      7  C   UNL     1       3.384   6.100  19.193  0.00  0.00    +0.000 A 
ENDBRANCH   1   2
BRANCH   1   9
ATOM      8  N   UNL     1       3.995   2.881  17.880  0.00  0.00    +0.000 N 
ATOM      9  C   UNL     1       4.898   3.685  18.563  0.00  0.00    +0.000 C 
ATOM     10  O   UNL     1       5.336   3.388  19.673  0.00  0.00    +0.000 OA
ATOM     11  H   UNL     1       3.455   3.299  17.133  0.00  0.00    +0.000 HD
BRANCH   8  12
ATOM     12  C   UNL     1       3.561   1.616  18.437  0.00  0.00    +0.000 C 
BRANCH  12  13
ATOM     13  C   UNL     1       2.056   1.573  18.693  0.00  0.00    +0.000 C 
BRANCH  13  14
ATOM     14  C   UNL     1       1.502   2.986  18.851  0.00  0.00    +0.000 C 
BRANCH  14  15
ATOM     15  O   UNL     1       0.687   3.033  20.018  0.00  0.00    +0.000 OA
BRANCH  15  17
ATOM     16  C   UNL     1       2.246   3.777  21.662  0.00  0.00    +0.000 C 
ATOM     17  C   UNL     1       1.391   2.621  21.184  0.00  0.00    +0.000 C 
ENDBRANCH  15  17
ENDBRANCH  14  15
ENDBRANCH  13  14
ENDBRANCH  12  13
ENDBRANCH   8  12
ENDBRANCH   1   9
BRANCH   1  18
ATOM     18  N   UNL     1       5.424   4.711  16.437  0.00  0.00    +0.000 N 
ATOM     19  C   UNL     1       6.533   5.072  15.710  0.00  0.00    +0.000 C 
ATOM     20  O   UNL     1       7.474   5.703  16.172  0.00  0.00    +0.000 OA
ATOM     21  H   UNL     1       4.684   4.210  15.961  0.00  0.00    +0.000 HD
BRANCH  19  22
ATOM     22  C   UNL     1       6.551   4.634  14.283  0.00  0.00    +0.000 A 
ATOM     23  C   UNL     1       5.526   3.776  13.855  0.00  0.00    +0.000 A 
ATOM     24  C   UNL     1       5.474   3.342  12.528  0.00  0.00    +0.000 A 
ATOM     25  C   UNL     1       6.453   3.747  11.622  0.00  0.00    +0.000 A 
ATOM     26  C   UNL     1       7.488   4.585  12.040  0.00  0.00    +0.000 A 
ATOM     27  C   UNL     1       7.536   5.025  13.366  0.00  0.00    +0.000 A 
BRANCH  27  28
ATOM     28  O   UNL     1       8.564   5.847  13.750  0.00  0.00    +0.000 OA
ATOM     29  H   UNL     1       9.130   6.016  12.976  0.00  0.00    +0.000 HD
ENDBRANCH  27  28
ENDBRANCH  19  22
ENDBRANCH   1  18
TORSDOF 10
ENDMDL
MODEL 2
REMARK VINA RESULT:      -7.8      2.124      3.361
REMARK  Name = 
REMARK  11 active torsions:
REMARK  status: ('A' for Active; 'I' for Inactive)
REMARK    1  A    between atoms: C_1  and  C_2
REMARK    2  A    between atoms: C_2  and  O_3
REMARK    3  A    between atoms: O_3  and  C_4
REMARK    4  A    between atoms: C_4  and  C_5
REMARK    5  A    between atoms: C_5  and  C_6
REMARK    6  A    between atoms: C_6  and  N_7
REMARK    7  A    between atoms: C_8  and  C_10
REMARK    8  A    between atoms: C_10  and  N_11
REMARK    9  A    between atoms: C_10  and  C_21
REMARK   10  A    between atoms: C_12  and  C_14
REMARK   11  A    between atoms: C_19  and  O_20
REMARK                            x       y       z     vdW  Elec       q    Type
REMARK                         _______ _______ _______ _____ _____    ______ ____
ROOT
ATOM      1  C   UNL     1       3.055   6.390  19.828  0.00  0.00    +0.000 C 
ENDROOT
BRANCH   1   2
ATOM      2  C   UNL     1       2.136   7.598  19.639  0.00  0.00    +0.000 A 
ATOM      3  C   UNL     1       1.406   8.120  20.719  0.00  0.00    +0.000 A 
ATOM      4  C   UNL     1       0.602   9.255  20.566  0.00  0.00    +0.000 A 
ATOM      5  C   UNL     1       0.541   9.899  19.332  0.00  0.00    +0.000 A 
ATOM      6  C   UNL     1       1.271   9.409  18.256  0.00  0.00    +0.000 A 
ATOM      7  C   UNL     1       2.062   8.268  18.406  0.00  0.00    +0.000 A 
ENDBRANCH   1   2
BRANCH   1   9
ATOM      8  N   UNL     1       1.567   4.495  19.222  0.00  0.00    +0.000 N 
ATOM      9  C   UNL     1       2.298   5.101  20.235  0.00  0.00    +0.000 C 
ATOM     10  O   UNL     1       2.309   4.671  21.388  0.00  0.00    +0.000 OA
ATOM     11  H   UNL     1       1.359   5.039  18.394  0.00  0.00    +0.000 HD
BRANCH   8  12
ATOM     12  C   UNL     1       0.811   3.285  19.476  0.00  0.00    +0.000 C 
BRANCH  12  13
ATOM     13  C   UNL     1       1.352   2.083  18.706  0.00  0.00    +0.000 C 
BRANCH  13  14
ATOM     14  C   UNL     1       2.240   2.544  17.554  0.00  0.00    +0.000 C 
BRANCH  14  15
ATOM     15  O   UNL     1       3.601   2.489  17.970  0.00  0.00    +0.000 OA
BRANCH  15  17
ATOM     16  C   UNL     1       4.553   2.185  20.135  0.00  0.00    +0.000 C 
ATOM     17  C   UNL     1       3.813   1.521  18.991  0.00  0.00    +0.000 C 
ENDBRANCH  15  17
ENDBRANCH  14  15
ENDBRANCH  13  14
ENDBRANCH  12  13
ENDBRANCH   8  12
ENDBRANCH   1   9
BRANCH   1  18
ATOM     18  N   UNL     1       3.797   6.082  18.611  0.00  0.00    +0.000 N 
ATOM     19  C   UNL     1       5.090   5.616  18.620  0.00  0.00    +0.000 C 
ATOM     20  O   UNL     1       5.745   5.448  19.639  0.00  0.00    +0.000 OA
ATOM     21  H   UNL     1       3.343   6.213  17.715  0.00  0.00    +0.000 HD
BRANCH  19  22
ATOM     22  C   UNL     1       5.679   5.296  17.287  0.00  0.00    +0.000 A 
ATOM     23  C   UNL     1       4.959   5.688  16.148  0.00  0.00    +0.000 A 
ATOM     24  C   UNL     1       5.464   5.436  14.870  0.00  0.00    +0.000 A 
ATOM     25  C   UNL     1       6.681   4.774  14.717  0.00  0.00    +0.000 A 
ATOM     26  C   UNL     1       7.398   4.362  15.842  0.00  0.00    +0.000 A 
ATOM     27  C   UNL     1       6.897   4.622  17.121  0.00  0.00    +0.000 A 
BRANCH  27  28
ATOM     28  O   UNL     1       7.621   4.205  18.208  0.00  0.00    +0.000 OA
ATOM     29  H   UNL     1       8.036   4.983  18.620  0.00  0.00    +0.000 HD
ENDBRANCH  27  28
ENDBRANCH  19  22
ENDBRANCH   1  18
TORSDOF 10
ENDMDL
MODEL 3
REMARK VINA RESULT:      -7.6      3.203      7.609
REMARK  Name = 
REMARK  11 active torsions:
REMARK  status: ('A' for Active; 'I' for Inactive)
REMARK    1  A    between atoms: C_1  and  C_2
REMARK    2  A    between atoms: C_2  and  O_3
REMARK    3  A    between atoms: O_3  and  C_4
REMARK    4  A    between atoms: C_4  and  C_5
REMARK    5  A    between atoms: C_5  and  C_6
REMARK    6  A    between atoms: C_6  and  N_7
REMARK    7  A    between atoms: C_8  and  C_10
REMARK    8  A    between atoms: C_10  and  N_11
REMARK    9  A    between atoms: C_10  and  C_21
REMARK   10  A    between atoms: C_12  and  C_14
REMARK   11  A    between atoms: C_19  and  O_20
REMARK                            x       y       z     vdW  Elec       q    Type
REMARK                         _______ _______ _______ _____ _____    ______ ____
ROOT
ATOM      1  C   UNL     1       6.356   4.810  16.016  0.00  0.00    +0.000 C 
ENDROOT
BRANCH   1   2
ATOM      2  C   UNL     1       6.498   4.432  14.541  0.00  0.00    +0.000 A 
ATOM      3  C   UNL     1       5.548   3.606  13.917  0.00  0.00    +0.000 A 
ATOM      4  C   UNL     1       5.645   3.297  12.556  0.00  0.00    +0.000 A 
ATOM      5  C   UNL     1       6.680   3.835  11.794  0.00  0.00    +0.000 A 
ATOM      6  C   UNL     1       7.619   4.669  12.389  0.00  0.00    +0.000 A 
ATOM      7  C   UNL     1       7.530   4.966  13.750  0.00  0.00    +0.000 A 
ENDBRANCH   1   2
BRANCH   1   9
ATOM      8  N   UNL     1       7.257   6.818  17.170  0.00  0.00    +0.000 N 
ATOM      9  C   UNL     1       6.327   6.341  16.256  0.00  0.00    +0.000 C 
ATOM     10  O   UNL     1       5.506   7.075  15.707  0.00  0.00    +0.000 OA
ATOM     11  H   UNL     1       7.695   6.152  17.794  0.00  0.00    +0.000 HD
BRANCH   8  12
ATOM     12  C   UNL     1       7.329   8.229  17.485  0.00  0.00    +0.000 C 
BRANCH  12  13
ATOM     13  C   UNL     1       8.495   8.565  18.412  0.00  0.00    +0.000 C 
BRANCH  13  14
ATOM     14  C   UNL     1       8.853  10.044  18.303  0.00  0.00    +0.000 C 
BRANCH  14  15
ATOM     15  O   UNL     1       9.530  10.444  19.491  0.00  0.00    +0.000 OA
BRANCH  15  17
ATOM     16  C   UNL     1      10.507  11.835  17.818  0.00  0.00    +0.000 C 
ATOM     17  C   UNL     1      10.654  11.272  19.217  0.00  0.00    +0.000 C 
ENDBRANCH  15  17
ENDBRANCH  14  15
ENDBRANCH  13  14
ENDBRANCH  12  13
ENDBRANCH   8  12
ENDBRANCH   1   9
BRANCH   1  18
ATOM     18  N   UNL     1       5.134   4.266  16.596  0.00  0.00    +0.000 N 
ATOM     19  C   UNL     1       4.959   4.097  17.949  0.00  0.00    +0.000 C 
ATOM     20  O   UNL     1       5.816   4.356  18.783  0.00  0.00    +0.000 OA
ATOM     21  H   UNL     1       4.375   4.001  15.981  0.00  0.00    +0.000 HD
BRANCH  19  22
ATOM     22  C   UNL     1       3.626   3.581  18.378  0.00  0.00    +0.000 A 
ATOM     23  C   UNL     1       2.692   4.515  18.854  0.00  0.00    +0.000 A 
ATOM     24  C   UNL     1       1.419   4.100  19.254  0.00  0.00    +0.000 A 
ATOM     25  C   UNL     1       1.074   2.751  19.199  0.00  0.00    +0.000 A 
ATOM     26  C   UNL     1       2.000   1.811  18.746  0.00  0.00    +0.000 A 
ATOM     27  C   UNL     1       3.271   2.226  18.338  0.00  0.00    +0.000 A 
BRANCH  27  28
ATOM     28  O   UNL     1       4.162   1.281  17.898  0.00  0.00    +0.000 OA
ATOM     29  H   UNL     1       3.762   0.802  17.151  0.00  0.00    +0.000 HD
ENDBRANCH  27  28
ENDBRANCH  19  22
ENDBRANCH   1  18
TORSDOF 10
ENDMDL
MODEL 4
REMARK VINA RESULT:      -7.6      3.312      6.395
REMARK  Name = 
REMARK  11 active torsions:
REMARK  status: ('A' for Active; 'I' for Inactive)
REMARK    1  A    between atoms: C_1  and  C_2
REMARK    2  A    between atoms: C_2  and  O_3
REMARK    3  A    between atoms: O_3  and  C_4
REMARK    4  A    between atoms: C_4  and  C_5
REMARK    5  A    between atoms: C_5  and  C_6
REMARK    6  A    between atoms: C_6  and  N_7
REMARK    7  A    between atoms: C_8  and  C_10
REMARK    8  A    between atoms: C_10  and  N_11
REMARK    9  A    between atoms: C_10  and  C_21
REMARK   10  A    between atoms: C_12  and  C_14
REMARK   11  A    between atoms: C_19  and  O_20
REMARK                            x       y       z     vdW  Elec       q    Type
REMARK                         _______ _______ _______ _____ _____    ______ ____
ROOT
ATOM      1  C   UNL     1       3.610   6.089  17.535  0.00  0.00    +0.000 C 
ENDROOT
BRANCH   1   2
ATOM      2  C   UNL     1       5.089   6.173  17.913  0.00  0.00    +0.000 A 
ATOM      3  C   UNL     1       5.585   5.482  19.031  0.00  0.00    +0.000 A 
ATOM      4  C   UNL     1       6.946   5.514  19.354  0.00  0.00    +0.000 A 
ATOM      5  C   UNL     1       7.835   6.216  18.543  0.00  0.00    +0.000 A 
ATOM      6  C   UNL     1       7.368   6.890  17.421  0.00  0.00    +0.000 A 
ATOM      7  C   UNL     1       6.007   6.869  17.107  0.00  0.00    +0.000 A 
ENDBRANCH   1   2
BRANCH   1   9
ATOM      8  N   UNL     1       1.870   4.429  18.159  0.00  0.00    +0.000 N 
ATOM      9  C   UNL     1       3.070   4.638  17.492  0.00  0.00    +0.000 C 
ATOM     10  O   UNL     1       3.686   3.725  16.942  0.00  0.00    +0.000 OA
ATOM     11  H   UNL     1       1.568   5.128  18.825  0.00  0.00    +0.000 HD
BRANCH   8  12
ATOM     12  C   UNL     1       1.263   3.114  18.196  0.00  0.00    +0.000 C 
BRANCH  12  13
ATOM     13  C   UNL     1       0.797   2.723  19.597  0.00  0.00    +0.000 C 
BRANCH  13  14
ATOM     14  C   UNL     1       1.050   3.862  20.580  0.00  0.00    +0.000 C 
BRANCH  14  15
ATOM     15  O   UNL     1       2.440   3.905  20.888  0.00  0.00    +0.000 OA
BRANCH  15  17
ATOM     16  C   UNL     1       4.208   2.384  20.388  0.00  0.00    +0.000 C 
ATOM     17  C   UNL     1       2.959   2.620  21.213  0.00  0.00    +0.000 C 
ENDBRANCH  15  17
ENDBRANCH  14  15
ENDBRANCH  13  14
ENDBRANCH  12  13
ENDBRANCH   8  12
ENDBRANCH   1   9
BRANCH   1  18
ATOM     18  N   UNL     1       2.772   6.828  18.471  0.00  0.00    +0.000 N 
ATOM     19  C   UNL     1       2.358   8.119  18.247  0.00  0.00    +0.000 C 
ATOM     20  O   UNL     1       2.679   8.775  17.265  0.00  0.00    +0.000 OA
ATOM     21  H   UNL     1       2.474   6.374  19.325  0.00  0.00    +0.000 HD
BRANCH  19  22
ATOM     22  C   UNL     1       1.456   8.706  19.281  0.00  0.00    +0.000 A 
ATOM     23  C   UNL     1       0.703   9.835  18.919  0.00  0.00    +0.000 A 
ATOM     24  C   UNL     1      -0.174  10.422  19.834  0.00  0.00    +0.000 A 
ATOM     25  C   UNL     1      -0.294   9.901  21.121  0.00  0.00    +0.000 A 
ATOM     26  C   UNL     1       0.464   8.792  21.499  0.00  0.00    +0.000 A 
ATOM     27  C   UNL     1       1.335   8.198  20.582  0.00  0.00    +0.000 A 
BRANCH  27  28
ATOM     28  O   UNL     1       2.068   7.110  20.979  0.00  0.00    +0.000 OA
ATOM     29  H   UNL     1       2.198   6.527  20.211  0.00  0.00    +0.000 HD
ENDBRANCH  27  28
ENDBRANCH  19  22
ENDBRANCH   1  18
TORSDOF 10
ENDMDL
MODEL 5
REMARK VINA RESULT:      -7.6      2.536      6.883
REMARK  Name = 
REMARK  11 active torsions:
REMARK  status: ('A' for Active; 'I' for Inactive)
REMARK    1  A    between atoms: C_1  and  C_2
REMARK    2  A    between atoms: C_2  and  O_3
REMARK    3  A    between atoms: O_3  and  C_4
REMARK    4  A    between atoms: C_4  and  C_5
REMARK    5  A    between atoms: C_5  and  C_6
REMARK    6  A    between atoms: C_6  and  N_7
REMARK    7  A    between atoms: C_8  and  C_10
REMARK    8  A    between atoms: C_10  and  N_11
REMARK    9  A    between atoms: C_10  and  C_21
REMARK   10  A    between atoms: C_12  and  C_14
REMARK   11  A    between atoms: C_19  and  O_20
REMARK                            x       y       z     vdW  Elec       q    Type
REMARK                         _______ _______ _______ _____ _____    ______ ____
ROOT
ATOM      1  C   UNL     1       5.443   5.691  16.452  0.00  0.00    +0.000 C 
ENDROOT
BRANCH   1   2
ATOM      2  C   UNL     1       6.486   6.410  17.308  0.00  0.00    +0.000 A 
ATOM      3  C   UNL     1       7.179   5.727  18.320  0.00  0.00    +0.000 A 
ATOM      4  C   UNL     1       8.171   6.365  19.073  0.00  0.00    +0.000 A 
ATOM      5  C   UNL     1       8.502   7.691  18.803  0.00  0.00    +0.000 A 
ATOM      6  C   UNL     1       7.841   8.379  17.792  0.00  0.00    +0.000 A 
ATOM      7  C   UNL     1       6.841   7.746  17.050  0.00  0.00    +0.000 A 
ENDBRANCH   1   2
BRANCH   1   9
ATOM      8  N   UNL     1       6.794   5.184  14.429  0.00  0.00    +0.000 N 
ATOM      9  C   UNL     1       6.057   4.654  15.479  0.00  0.00    +0.000 C 
ATOM     10  O   UNL     1       5.866   3.444  15.605  0.00  0.00    +0.000 OA
ATOM     11  H   UNL     1       6.674   6.166  14.212  0.00  0.00    +0.000 HD
BRANCH   8  12
ATOM     12  C   UNL     1       7.416   4.319  13.448  0.00  0.00    +0.000 C 
BRANCH  12  13
ATOM     13  C   UNL     1       6.579   4.173  12.180  0.00  0.00    +0.000 C 
BRANCH  13  14
ATOM     14  C   UNL     1       6.605   2.729  11.688  0.00  0.00    +0.000 C 
BRANCH  14  15
ATOM     15  O   UNL     1       5.265   2.267  11.543  0.00  0.00    +0.000 OA
BRANCH  15  17
ATOM     16  C   UNL     1       3.405   3.303  10.469  0.00  0.00    +0.000 C 
ATOM     17  C   UNL     1       4.316   3.317  11.680  0.00  0.00    +0.000 C 
ENDBRANCH  15  17
ENDBRANCH  14  15
ENDBRANCH  13  14
ENDBRANCH  12  13
ENDBRANCH   8  12
ENDBRANCH   1   9
BRANCH   1  18
ATOM     18  N   UNL     1       4.469   4.981  17.273  0.00  0.00    +0.000 N 
ATOM     19  C   UNL     1       3.373   5.593  17.831  0.00  0.00    +0.000 C 
ATOM     20  O   UNL     1       3.130   6.787  17.720  0.00  0.00    +0.000 OA
ATOM     21  H   UNL     1       4.599   3.991  17.440  0.00  0.00    +0.000 HD
BRANCH  19  22
ATOM     22  C   UNL     1       2.446   4.706  18.595  0.00  0.00    +0.000 A 
ATOM     23  C   UNL     1       2.143   5.069  19.916  0.00  0.00    +0.000 A 
ATOM     24  C   UNL     1       1.269   4.292  20.680  0.00  0.00    +0.000 A 
ATOM     25  C   UNL     1       0.704   3.139  20.139  0.00  0.00    +0.000 A 
ATOM     26  C   UNL     1       1.013   2.757  18.833  0.00  0.00    +0.000 A 
ATOM     27  C   UNL     1       1.881   3.538  18.065  0.00  0.00    +0.000 A 
BRANCH  27  28
ATOM     28  O   UNL     1       2.168   3.139  16.785  0.00  0.00    +0.000 OA
ATOM     29  H   UNL     1       1.457   3.452  16.197  0.00  0.00    +0.000 HD
ENDBRANCH  27  28
ENDBRANCH  19  22
ENDBRANCH   1  18
TORSDOF 10
ENDMDL
MODEL 6
REMARK VINA RESULT:      -7.5      2.648      6.794
REMARK  Name = 
REMARK  11 active torsions:
REMARK  status: ('A' for Active; 'I' for Inactive)
REMARK    1  A    between atoms: C_1  and  C_2
REMARK    2  A    between atoms: C_2  and  O_3
REMARK    3  A    between atoms: O_3  and  C_4
REMARK    4  A    between atoms: C_4  and  C_5
REMARK    5  A    between atoms: C_5  and  C_6
REMARK    6  A    between atoms: C_6  and  N_7
REMARK    7  A    between atoms: C_8  and  C_10
REMARK    8  A    between atoms: C_10  and  N_11
REMARK    9  A    between atoms: C_10  and  C_21
REMARK   10  A    between atoms: C_12  and  C_14
REMARK   11  A    between atoms: C_19  and  O_20
REMARK                            x       y       z     vdW  Elec       q    Type
REMARK                         _______ _______ _______ _____ _____    ______ ____
ROOT
ATOM      1  C   UNL     1       5.703   5.694  16.157  0.00  0.00    +0.000 C 
ENDROOT
BRANCH   1   2
ATOM      2  C   UNL     1       6.642   6.435  17.110  0.00  0.00    +0.000 A 
ATOM      3  C   UNL     1       7.244   5.767  18.188  0.00  0.00    +0.000 A 
ATOM      4  C   UNL     1       8.144   6.426  19.034  0.00  0.00    +0.000 A 
ATOM      5  C   UNL     1       8.473   7.758  18.793  0.00  0.00    +0.000 A 
ATOM      6  C   UNL     1       7.902   8.432  17.720  0.00  0.00    +0.000 A 
ATOM      7  C   UNL     1       6.994   7.777  16.885  0.00  0.00    +0.000 A 
ENDBRANCH   1   2
BRANCH   1   9
ATOM      8  N   UNL     1       5.639   4.172  14.194  0.00  0.00    +0.000 N 
ATOM      9  C   UNL     1       6.449   4.899  15.057  0.00  0.00    +0.000 C 
ATOM     10  O   UNL     1       7.677   4.877  14.983  0.00  0.00    +0.000 OA
ATOM     11  H   UNL     1       4.684   3.994  14.476  0.00  0.00    +0.000 HD
BRANCH   8  12
ATOM     12  C   UNL     1       6.216   3.383  13.125  0.00  0.00    +0.000 C 
BRANCH  12  13
ATOM     13  C   UNL     1       5.712   3.804  11.747  0.00  0.00    +0.000 C 
BRANCH  13  14
ATOM     14  C   UNL     1       4.393   3.107  11.427  0.00  0.00    +0.000 C 
BRANCH  14  15
ATOM     15  O   UNL     1       3.478   4.067  10.909  0.00  0.00    +0.000 OA
BRANCH  15  17
ATOM     16  C   UNL     1       2.320   4.935   9.013  0.00  0.00    +0.000 C 
ATOM     17  C   UNL     1       3.022   3.729   9.604  0.00  0.00    +0.000 C 
ENDBRANCH  15  17
ENDBRANCH  14  15
ENDBRANCH  13  14
ENDBRANCH  12  13
ENDBRANCH   8  12
ENDBRANCH   1   9
BRANCH   1  18
ATOM     18  N   UNL     1       4.854   4.745  16.867  0.00  0.00    +0.000 N 
ATOM     19  C   UNL     1       3.768   5.128  17.617  0.00  0.00    +0.000 C 
ATOM     20  O   UNL     1       3.434   6.293  17.785  0.00  0.00    +0.000 OA
ATOM     21  H   UNL     1       5.066   3.757  16.806  0.00  0.00    +0.000 HD
BRANCH  19  22
ATOM     22  C   UNL     1       2.973   4.023  18.230  0.00  0.00    +0.000 A 
ATOM     23  C   UNL     1       1.583   4.039  18.035  0.00  0.00    +0.000 A 
ATOM     24  C   UNL     1       0.783   3.025  18.567  0.00  0.00    +0.000 A 
ATOM     25  C   UNL     1       1.360   1.997  19.311  0.00  0.00    +0.000 A 
ATOM     26  C   UNL     1       2.738   1.981  19.528  0.00  0.00    +0.000 A 
ATOM     27  C   UNL     1       3.540   2.990  18.989  0.00  0.00    +0.000 A 
BRANCH  27  28
ATOM     28  O   UNL     1       4.892   2.951  19.219  0.00  0.00    +0.000 OA
ATOM     29  H   UNL     1       5.187   3.840  19.481  0.00  0.00    +0.000 HD
ENDBRANCH  27  28
ENDBRANCH  19  22
ENDBRANCH   1  18
TORSDOF 10
ENDMDL
MODEL 7
REMARK VINA RESULT:      -7.5      3.296      7.515
REMARK  Name = 
REMARK  11 active torsions:
REMARK  status: ('A' for Active; 'I' for Inactive)
REMARK    1  A    between atoms: C_1  and  C_2
REMARK    2  A    between atoms: C_2  and  O_3
REMARK    3  A    between atoms: O_3  and  C_4
REMARK    4  A    between atoms: C_4  and  C_5
REMARK    5  A    between atoms: C_5  and  C_6
REMARK    6  A    between atoms: C_6  and  N_7
REMARK    7  A    between atoms: C_8  and  C_10
REMARK    8  A    between atoms: C_10  and  N_11
REMARK    9  A    between atoms: C_10  and  C_21
REMARK   10  A    between atoms: C_12  and  C_14
REMARK   11  A    between atoms: C_19  and  O_20
REMARK                            x       y       z     vdW  Elec       q    Type
REMARK                         _______ _______ _______ _____ _____    ______ ____
ROOT
ATOM      1  C   UNL     1       6.362   4.855  16.092  0.00  0.00    +0.000 C 
ENDROOT
BRANCH   1   2
ATOM      2  C   UNL     1       6.438   4.517  14.603  0.00  0.00    +0.000 A 
ATOM      3  C   UNL     1       7.490   5.001  13.810  0.00  0.00    +0.000 A 
ATOM      4  C   UNL     1       7.593   4.655  12.458  0.00  0.00    +0.000 A 
ATOM      5  C   UNL     1       6.657   3.794  11.889  0.00  0.00    +0.000 A 
ATOM      6  C   UNL     1       5.619   3.288  12.662  0.00  0.00    +0.000 A 
ATOM      7  C   UNL     1       5.509   3.646  14.008  0.00  0.00    +0.000 A 
ENDBRANCH   1   2
BRANCH   1   9
ATOM      8  N   UNL     1       7.396   6.852  17.148  0.00  0.00    +0.000 N 
ATOM      9  C   UNL     1       6.345   6.378  16.375  0.00  0.00    +0.000 C 
ATOM     10  O   UNL     1       5.436   7.108  15.980  0.00  0.00    +0.000 OA
ATOM     11  H   UNL     1       7.936   6.182  17.679  0.00  0.00    +0.000 HD
BRANCH   8  12
ATOM     12  C   UNL     1       7.491   8.258  17.487  0.00  0.00    +0.000 C 
BRANCH  12  13
ATOM     13  C   UNL     1       8.609   8.546  18.486  0.00  0.00    +0.000 C 
BRANCH  13  14
ATOM     14  C   UNL     1       8.945  10.034  18.494  0.00  0.00    +0.000 C 
BRANCH  14  15
ATOM     15  O   UNL     1       9.379  10.402  19.800  0.00  0.00    +0.000 OA
BRANCH  15  17
ATOM     16  C   UNL     1      10.451  12.185  20.965  0.00  0.00    +0.000 C 
ATOM     17  C   UNL     1       9.341  11.809  20.004  0.00  0.00    +0.000 C 
ENDBRANCH  15  17
ENDBRANCH  14  15
ENDBRANCH  13  14
ENDBRANCH  12  13
ENDBRANCH   8  12
ENDBRANCH   1   9
BRANCH   1  18
ATOM     18  N   UNL     1       5.167   4.293  16.712  0.00  0.00    +0.000 N 
ATOM     19  C   UNL     1       5.032   4.137  18.071  0.00  0.00    +0.000 C 
ATOM     20  O   UNL     1       5.906   4.422  18.878  0.00  0.00    +0.000 OA
ATOM     21  H   UNL     1       4.397   4.007  16.121  0.00  0.00    +0.000 HD
BRANCH  19  22
ATOM     22  C   UNL     1       3.721   3.600  18.541  0.00  0.00    +0.000 A 
ATOM     23  C   UNL     1       2.834   4.500  19.152  0.00  0.00    +0.000 A 
ATOM     24  C   UNL     1       1.583   4.066  19.599  0.00  0.00    +0.000 A 
ATOM     25  C   UNL     1       1.215   2.729  19.455  0.00  0.00    +0.000 A 
ATOM     26  C   UNL     1       2.096   1.821  18.867  0.00  0.00    +0.000 A 
ATOM     27  C   UNL     1       3.344   2.256  18.412  0.00  0.00    +0.000 A 
BRANCH  27  28
ATOM     28  O   UNL     1       4.191   1.343  17.840  0.00  0.00    +0.000 OA
ATOM     29  H   UNL     1       3.749   0.476  17.829  0.00  0.00    +0.000 HD
ENDBRANCH  27  28
ENDBRANCH  19  22
ENDBRANCH   1  18
TORSDOF 10
ENDMDL
MODEL 8
REMARK VINA RESULT:      -7.5      3.220      7.575
REMARK  Name = 
REMARK  11 active torsions:
REMARK  status: ('A' for Active; 'I' for Inactive)
REMARK    1  A    between atoms: C_1  and  C_2
REMARK    2  A    between atoms: C_2  and  O_3
REMARK    3  A    between atoms: O_3  and  C_4
REMARK    4  A    between atoms: C_4  and  C_5
REMARK    5  A    between atoms: C_5  and  C_6
REMARK    6  A    between atoms: C_6  and  N_7
REMARK    7  A    between atoms: C_8  and  C_10
REMARK    8  A    between atoms: C_10  and  N_11
REMARK    9  A    between atoms: C_10  and  C_21
REMARK   10  A    between atoms: C_12  and  C_14
REMARK   11  A    between atoms: C_19  and  O_20
REMARK                            x       y       z     vdW  Elec       q    Type
REMARK                         _______ _______ _______ _____ _____    ______ ____
ROOT
ATOM      1  C   UNL     1       6.451   4.938  16.192  0.00  0.00    +0.000 C 
ENDROOT
BRANCH   1   2
ATOM      2  C   UNL     1       6.587   4.571  14.714  0.00  0.00    +0.000 A 
ATOM      3  C   UNL     1       5.664   3.709  14.101  0.00  0.00    +0.000 A 
ATOM      4  C   UNL     1       5.753   3.409  12.737  0.00  0.00    +0.000 A 
ATOM      5  C   UNL     1       6.754   3.991  11.963  0.00  0.00    +0.000 A 
ATOM      6  C   UNL     1       7.666   4.862  12.547  0.00  0.00    +0.000 A 
ATOM      7  C   UNL     1       7.585   5.150  13.911  0.00  0.00    +0.000 A 
ENDBRANCH   1   2
BRANCH   1   9
ATOM      8  N   UNL     1       7.459   6.966  17.215  0.00  0.00    +0.000 N 
ATOM      9  C   UNL     1       6.418   6.467  16.444  0.00  0.00    +0.000 C 
ATOM     10  O   UNL     1       5.507   7.180  16.026  0.00  0.00    +0.000 OA
ATOM     11  H   UNL     1       8.001   6.311  17.765  0.00  0.00    +0.000 HD
BRANCH   8  12
ATOM     12  C   UNL     1       7.539   8.379  17.526  0.00  0.00    +0.000 C 
BRANCH  12  13
ATOM     13  C   UNL     1       8.598   8.688  18.581  0.00  0.00    +0.000 C 
BRANCH  13  14
ATOM     14  C   UNL     1       9.032  10.148  18.489  0.00  0.00    +0.000 C 
BRANCH  14  15
ATOM     15  O   UNL     1       9.502  10.571  19.765  0.00  0.00    +0.000 OA
BRANCH  15  17
ATOM     16  C   UNL     1       9.247  12.618  18.568  0.00  0.00    +0.000 C 
ATOM     17  C   UNL     1       9.407  11.981  19.934  0.00  0.00    +0.000 C 
ENDBRANCH  15  17
ENDBRANCH  14  15
ENDBRANCH  13  14
ENDBRANCH  12  13
ENDBRANCH   8  12
ENDBRANCH   1   9
BRANCH   1  18
ATOM     18  N   UNL     1       5.234   4.385  16.775  0.00  0.00    +0.000 N 
ATOM     19  C   UNL     1       5.072   4.194  18.127  0.00  0.00    +0.000 C 
ATOM     20  O   UNL     1       5.937   4.437  18.957  0.00  0.00    +0.000 OA
ATOM     21  H   UNL     1       4.469   4.132  16.163  0.00  0.00    +0.000 HD
BRANCH  19  22
ATOM     22  C   UNL     1       3.742   3.672  18.559  0.00  0.00    +0.000 A 
ATOM     23  C   UNL     1       3.256   2.523  17.916  0.00  0.00    +0.000 A 
ATOM     24  C   UNL     1       2.026   1.972  18.285  0.00  0.00    +0.000 A 
ATOM     25  C   UNL     1       1.264   2.573  19.285  0.00  0.00    +0.000 A 
ATOM     26  C   UNL     1       1.726   3.728  19.918  0.00  0.00    +0.000 A 
ATOM     27  C   UNL     1       2.961   4.274  19.555  0.00  0.00    +0.000 A 
BRANCH  27  28
ATOM     28  O   UNL     1       3.391   5.409  20.192  0.00  0.00    +0.000 OA
ATOM     29  H   UNL     1       3.054   5.398  21.105  0.00  0.00    +0.000 HD
ENDBRANCH  27  28
ENDBRANCH  19  22
ENDBRANCH   1  18
TORSDOF 10
ENDMDL
MODEL 9
REMARK VINA RESULT:      -7.5      3.445      7.561
REMARK  Name = 
REMARK  11 active torsions:
REMARK  status: ('A' for Active; 'I' for Inactive)
REMARK    1  A    between atoms: C_1  and  C_2
REMARK    2  A    between atoms: C_2  and  O_3
REMARK    3  A    between atoms: O_3  and  C_4
REMARK    4  A    between atoms: C_4  and  C_5
REMARK    5  A    between atoms: C_5  and  C_6
REMARK    6  A    between atoms: C_6  and  N_7
REMARK    7  A    between atoms: C_8  and  C_10
REMARK    8  A    between atoms: C_10  and  N_11
REMARK    9  A    between atoms: C_10  and  C_21
REMARK   10  A    between atoms: C_12  and  C_14
REMARK   11  A    between atoms: C_19  and  O_20
REMARK                            x       y       z     vdW  Elec       q    Type
REMARK                         _______ _______ _______ _____ _____    ______ ____
ROOT
ATOM      1  C   UNL     1       6.384   5.017  16.130  0.00  0.00    +0.000 C 
ENDROOT
BRANCH   1   2
ATOM      2  C   UNL     1       6.583   4.723  14.643  0.00  0.00    +0.000 A 
ATOM      3  C   UNL     1       7.596   5.364  13.913  0.00  0.00    +0.000 A 
ATOM      4  C   UNL     1       7.816   5.062  12.564  0.00  0.00    +0.000 A 
ATOM      5  C   UNL     1       7.039   4.092  11.935  0.00  0.00    +0.000 A 
ATOM      6  C   UNL     1       6.043   3.432  12.646  0.00  0.00    +0.000 A 
ATOM      7  C   UNL     1       5.815   3.744  13.988  0.00  0.00    +0.000 A 
ENDBRANCH   1   2
BRANCH   1   9
ATOM      8  N   UNL     1       7.495   7.014  17.107  0.00  0.00    +0.000 N 
ATOM      9  C   UNL     1       6.366   6.531  16.459  0.00  0.00    +0.000 C 
ATOM     10  O   UNL     1       5.397   7.245  16.202  0.00  0.00    +0.000 OA
ATOM     11  H   UNL     1       8.114   6.344  17.546  0.00  0.00    +0.000 HD
BRANCH   8  12
ATOM     12  C   UNL     1       7.598   8.412  17.473  0.00  0.00    +0.000 C 
BRANCH  12  13
ATOM     13  C   UNL     1       8.618   8.654  18.583  0.00  0.00    +0.000 C 
BRANCH  13  14
ATOM     14  C   UNL     1       8.942  10.140  18.694  0.00  0.00    +0.000 C 
BRANCH  14  15
ATOM     15  O   UNL     1       9.742  10.353  19.853  0.00  0.00    +0.000 OA
BRANCH  15  17
ATOM     16  C   UNL     1      11.711  11.691  19.704  0.00  0.00    +0.000 C 
ATOM     17  C   UNL     1      10.214  11.692  19.943  0.00  0.00    +0.000 C 
ENDBRANCH  15  17
ENDBRANCH  14  15
ENDBRANCH  13  14
ENDBRANCH  12  13
ENDBRANCH   8  12
ENDBRANCH   1   9
BRANCH   1  18
ATOM     18  N   UNL     1       5.133   4.458  16.628  0.00  0.00    +0.000 N 
ATOM     19  C   UNL     1       4.967   4.031  17.924  0.00  0.00    +0.000 C 
ATOM     20  O   UNL     1       5.856   4.049  18.765  0.00  0.00    +0.000 OA
ATOM     21  H   UNL     1       4.345   4.382  15.997  0.00  0.00    +0.000 HD
BRANCH  19  22
ATOM     22  C   UNL     1       3.604   3.540  18.282  0.00  0.00    +0.000 A 
ATOM     23  C   UNL     1       3.474   2.189  18.636  0.00  0.00    +0.000 A 
ATOM     24  C   UNL     1       2.229   1.669  18.999  0.00  0.00    +0.000 A 
ATOM     25  C   UNL     1       1.101   2.489  18.995  0.00  0.00    +0.000 A 
ATOM     26  C   UNL     1       1.214   3.830  18.625  0.00  0.00    +0.000 A 
ATOM     27  C   UNL     1       2.461   4.352  18.270  0.00  0.00    +0.000 A 
BRANCH  27  28
ATOM     28  O   UNL     1       2.543   5.673  17.911  0.00  0.00    +0.000 OA
ATOM     29  H   UNL     1       2.000   6.195  18.526  0.00  0.00    +0.000 HD
ENDBRANCH  27  28
ENDBRANCH  19  22
ENDBRANCH   1  18
TORSDOF 10
ENDMDL
