MODEL 1
REMARK VINA RESULT:      -6.9      0.000      0.000
REMARK  Name = 
REMARK  9 active torsions:
REMARK  status: ('A' for Active; 'I' for Inactive)
REMARK    1  A    between atoms: C_1  and  N_2
REMARK    2  A    between atoms: N_2  and  C_3
REMARK    3  A    between atoms: N_2  and  C_4
REMARK    4  A    between atoms: C_4  and  C_5
REMARK    5  A    between atoms: C_5  and  N_6
REMARK    6  A    between atoms: N_6  and  C_7
REMARK    7  A    between atoms: C_11  and  C_12
REMARK    8  A    between atoms: C_12  and  C_13
REMARK    9  A    between atoms: C_17  and  N_18
REMARK                            x       y       z     vdW  Elec       q    Type
REMARK                         _______ _______ _______ _____ _____    ______ ____
ROOT
ATOM      1  C   UNL     1       5.205   4.188  18.557  0.00  0.00    +0.000 C 
ATOM      2  C   UNL     1       5.780   5.377  19.326  0.00  0.00    +0.000 C 
ATOM      3  N   UNL     1       7.226   5.371  19.102  0.00  0.00    +0.000 NA
ATOM      4  C   UNL     1       7.439   4.645  17.835  0.00  0.00    +0.000 C 
ATOM      5  C   UNL     1       6.067   4.225  17.285  0.00  0.00    +0.000 C 
ATOM      6  H   UNL     1       7.666   4.815  19.874  0.00  0.00    +0.000 HD
ENDROOT
BRANCH   1   7
ATOM      7  N   UNL     1       5.359   2.922  19.303  0.00  0.00    +0.000 NA
ATOM      8  H   UNL     1       5.892   2.206  18.759  0.00  0.00    +0.000 HD
BRANCH   7   9
ATOM      9  C   UNL     1       4.029   2.394  19.674  0.00  0.00    +0.000 C 
BRANCH   9  10
ATOM     10  C   UNL     1       3.031   2.454  18.515  0.00  0.00    +0.000 C 
BRANCH  10  12
ATOM     11  C   UNL     1       1.595   4.286  17.742  0.00  0.00    +0.000 C 
ATOM     12  N   UNL     1       1.834   3.278  18.791  0.00  0.00    +0.000 NA
ATOM     13  C   UNL     1       0.665   2.386  18.879  0.00  0.00    +0.000 C 
ENDBRANCH  10  12
ENDBRANCH   9  10
ENDBRANCH   7   9
ENDBRANCH   1   7
BRANCH   5  14
ATOM     14  C   UNL     1       5.474   5.192  16.234  0.00  0.00    +0.000 C 
BRANCH  14  15
ATOM     15  C   UNL     1       6.083   4.892  14.878  0.00  0.00    +0.000 A 
ATOM     16  C   UNL     1       5.506   3.946  14.021  0.00  0.00    +0.000 A 
ATOM     17  C   UNL     1       6.116   3.664  12.799  0.00  0.00    +0.000 A 
ATOM     18  C   UNL     1       7.294   4.320  12.436  0.00  0.00    +0.000 A 
ATOM     19  C   UNL     1       7.848   5.263  13.308  0.00  0.00    +0.000 A 
ATOM     20  N   UNL     1       7.233   5.524  14.495  0.00  0.00    +0.000 NA
BRANCH  19  21
ATOM     21  N   UNL     1       9.045   5.937  12.965  0.00  0.00    +0.000 N 
ATOM     22  H   UNL     1       9.959   5.467  13.041  0.00  0.00    +0.000 HD
ATOM     23  H   UNL     1       9.015   6.910  12.630  0.00  0.00    +0.000 HD
ENDBRANCH  19  21
ENDBRANCH  14  15
ENDBRANCH   5  14
TORSDOF 7
ENDMDL
MODEL 2
REMARK VINA RESULT:      -6.6      1.640      5.895
REMARK  Name = 
REMARK  9 active torsions:
REMARK  status: ('A' for Active; 'I' for Inactive)
REMARK    1  A    between atoms: C_1  and  N_2
REMARK    2  A    between atoms: N_2  and  C_3
REMARK    3  A    between atoms: N_2  and  C_4
REMARK    4  A    between atoms: C_4  and  C_5
REMARK    5  A    between atoms: C_5  and  N_6
REMARK    6  A    between atoms: N_6  and  C_7
REMARK    7  A    between atoms: C_11  and  C_12
REMARK    8  A    between atoms: C_12  and  C_13
REMARK    9  A    between atoms: C_17  and  N_18
REMARK                            x       y       z     vdW  Elec       q    Type
REMARK                         _______ _______ _______ _____ _____    ______ ____
ROOT
ATOM      1  C   UNL     1       6.821   5.129  17.359  0.00  0.00    +0.000 C 
ATOM      2  C   UNL     1       7.608   6.324  17.896  0.00  0.00    +0.000 C 
ATOM      3  N   UNL     1       7.049   7.521  17.266  0.00  0.00    +0.000 NA
ATOM      4  C   UNL     1       5.671   7.169  16.875  0.00  0.00    +0.000 C 
ATOM      5  C   UNL     1       5.403   5.719  17.308  0.00  0.00    +0.000 C 
ATOM      6  H   UNL     1       7.598   7.707  16.392  0.00  0.00    +0.000 HD
ENDROOT
BRANCH   1   7
ATOM      7  N   UNL     1       7.301   4.705  16.028  0.00  0.00    +0.000 NA
ATOM      8  H   UNL     1       7.531   5.520  15.414  0.00  0.00    +0.000 HD
BRANCH   7   9
ATOM      9  C   UNL     1       6.286   3.849  15.377  0.00  0.00    +0.000 C 
BRANCH   9  10
ATOM     10  C   UNL     1       5.862   4.382  14.008  0.00  0.00    +0.000 C 
BRANCH  10  12
ATOM     11  C   UNL     1       5.166   3.186  11.982  0.00  0.00    +0.000 C 
ATOM     12  N   UNL     1       6.289   3.536  12.871  0.00  0.00    +0.000 NA
ATOM     13  C   UNL     1       7.306   4.270  12.100  0.00  0.00    +0.000 C 
ENDBRANCH  10  12
ENDBRANCH   9  10
ENDBRANCH   7   9
ENDBRANCH   1   7
BRANCH   5  14
ATOM     14  C   UNL     1       4.687   5.578  18.672  0.00  0.00    +0.000 C 
BRANCH  14  15
ATOM     15  C   UNL     1       3.717   4.416  18.610  0.00  0.00    +0.000 A 
ATOM     16  C   UNL     1       2.333   4.626  18.670  0.00  0.00    +0.000 A 
ATOM     17  C   UNL     1       1.470   3.530  18.654  0.00  0.00    +0.000 A 
ATOM     18  C   UNL     1       1.984   2.234  18.579  0.00  0.00    +0.000 A 
ATOM     19  C   UNL     1       3.370   2.051  18.517  0.00  0.00    +0.000 A 
ATOM     20  N   UNL     1       4.193   3.137  18.531  0.00  0.00    +0.000 NA
BRANCH  19  21
ATOM     21  N   UNL     1       3.916   0.746  18.446  0.00  0.00    +0.000 N 
ATOM     22  H   UNL     1       3.323  -0.085  18.589  0.00  0.00    +0.000 HD
ATOM     23  H   UNL     1       4.917   0.612  18.247  0.00  0.00    +0.000 HD
ENDBRANCH  19  21
ENDBRANCH  14  15
ENDBRANCH   5  14
TORSDOF 7
ENDMDL
MODEL 3
REMARK VINA RESULT:      -6.5      1.736      6.317
REMARK  Name = 
REMARK  9 active torsions:
REMARK  status: ('A' for Active; 'I' for Inactive)
REMARK    1  A    between atoms: C_1  and  N_2
REMARK    2  A    between atoms: N_2  and  C_3
REMARK    3  A    between atoms: N_2  and  C_4
REMARK    4  A    between atoms: C_4  and  C_5
REMARK    5  A    between atoms: C_5  and  N_6
REMARK    6  A    between atoms: N_6  and  C_7
REMARK    7  A    between atoms: C_11  and  C_12
REMARK    8  A    between atoms: C_12  and  C_13
REMARK    9  A    between atoms: C_17  and  N_18
REMARK                            x       y       z     vdW  Elec       q    Type
REMARK                         _______ _______ _______ _____ _____    ______ ____
ROOT
ATOM      1  C   UNL     1       7.105   5.092  17.288  0.00  0.00    +0.000 C 
ATOM      2  C   UNL     1       7.559   6.516  17.606  0.00  0.00    +0.000 C 
ATOM      3  N   UNL     1       6.495   7.414  17.157  0.00  0.00    +0.000 NA
ATOM      4  C   UNL     1       5.260   6.607  17.144  0.00  0.00    +0.000 C 
ATOM      5  C   UNL     1       5.607   5.188  17.621  0.00  0.00    +0.000 C 
ATOM      6  H   UNL     1       6.710   7.696  16.170  0.00  0.00    +0.000 HD
ENDROOT
BRANCH   1   7
ATOM      7  N   UNL     1       7.344   4.739  15.873  0.00  0.00    +0.000 NA
ATOM      8  H   UNL     1       7.384   5.584  15.257  0.00  0.00    +0.000 HD
BRANCH   7   9
ATOM      9  C   UNL     1       6.291   3.815  15.402  0.00  0.00    +0.000 C 
BRANCH   9  10
ATOM     10  C   UNL     1       5.709   4.232  14.050  0.00  0.00    +0.000 C 
BRANCH  10  12
ATOM     11  C   UNL     1       5.267   3.031  11.957  0.00  0.00    +0.000 C 
ATOM     12  N   UNL     1       6.296   3.519  12.893  0.00  0.00    +0.000 NA
ATOM     13  C   UNL     1       7.196   4.444  12.184  0.00  0.00    +0.000 C 
ENDBRANCH  10  12
ENDBRANCH   9  10
ENDBRANCH   7   9
ENDBRANCH   1   7
BRANCH   5  14
ATOM     14  C   UNL     1       5.349   4.935  19.124  0.00  0.00    +0.000 C 
BRANCH  14  15
ATOM     15  C   UNL     1       3.901   4.535  19.323  0.00  0.00    +0.000 A 
ATOM     16  C   UNL     1       2.994   5.398  19.954  0.00  0.00    +0.000 A 
ATOM     17  C   UNL     1       1.679   4.980  20.159  0.00  0.00    +0.000 A 
ATOM     18  C   UNL     1       1.272   3.712  19.740  0.00  0.00    +0.000 A 
ATOM     19  C   UNL     1       2.196   2.871  19.109  0.00  0.00    +0.000 A 
ATOM     20  N   UNL     1       3.475   3.301  18.917  0.00  0.00    +0.000 NA
BRANCH  19  21
ATOM     21  N   UNL     1       1.809   1.579  18.680  0.00  0.00    +0.000 N 
ATOM     22  H   UNL     1       1.353   1.438  17.766  0.00  0.00    +0.000 HD
ATOM     23  H   UNL     1       1.981   0.759  19.279  0.00  0.00    +0.000 HD
ENDBRANCH  19  21
ENDBRANCH  14  15
ENDBRANCH   5  14
TORSDOF 7
ENDMDL
MODEL 4
REMARK VINA RESULT:      -6.5      1.982      6.541
REMARK  Name = 
REMARK  9 active torsions:
REMARK  status: ('A' for Active; 'I' for Inactive)
REMARK    1  A    between atoms: C_1  and  N_2
REMARK    2  A    between atoms: N_2  and  C_3
REMARK    3  A    between atoms: N_2  and  C_4
REMARK    4  A    between atoms: C_4  and  C_5
REMARK    5  A    between atoms: C_5  and  N_6
REMARK    6  A    between atoms: N_6  and  C_7
REMARK    7  A    between atoms: C_11  and  C_12
REMARK    8  A    between atoms: C_12  and  C_13
REMARK    9  A    between atoms: C_17  and  N_18
REMARK                            x       y       z     vdW  Elec       q    Type
REMARK                         _______ _______ _______ _____ _____    ______ ____
ROOT
ATOM      1  C   UNL     1       5.856   4.221  16.159  0.00  0.00    +0.000 C 
ATOM      2  C   UNL     1       7.288   4.708  16.380  0.00  0.00    +0.000 C 
ATOM      3  N   UNL     1       7.226   6.163  16.530  0.00  0.00    +0.000 NA
ATOM      4  C   UNL     1       5.855   6.467  16.982  0.00  0.00    +0.000 C 
ATOM      5  C   UNL     1       5.089   5.143  17.121  0.00  0.00    +0.000 C 
ATOM      6  H   UNL     1       7.358   6.587  15.580  0.00  0.00    +0.000 HD
ENDROOT
BRANCH   1   7
ATOM      7  N   UNL     1       5.427   4.391  14.756  0.00  0.00    +0.000 NA
ATOM      8  H   UNL     1       4.470   4.003  14.587  0.00  0.00    +0.000 HD
BRANCH   7   9
ATOM      9  C   UNL     1       6.403   3.748  13.852  0.00  0.00    +0.000 C 
BRANCH   9  10
ATOM     10  C   UNL     1       5.967   3.800  12.386  0.00  0.00    +0.000 C 
BRANCH  10  12
ATOM     11  C   UNL     1       3.998   3.147  11.077  0.00  0.00    +0.000 C 
ATOM     12  N   UNL     1       5.068   2.695  11.984  0.00  0.00    +0.000 NA
ATOM     13  C   UNL     1       5.872   1.663  11.307  0.00  0.00    +0.000 C 
ENDBRANCH  10  12
ENDBRANCH   9  10
ENDBRANCH   7   9
ENDBRANCH   1   7
BRANCH   5  14
ATOM     14  C   UNL     1       5.065   4.562  18.554  0.00  0.00    +0.000 C 
BRANCH  14  15
ATOM     15  C   UNL     1       3.661   4.097  18.883  0.00  0.00    +0.000 A 
ATOM     16  C   UNL     1       2.644   4.136  17.920  0.00  0.00    +0.000 A 
ATOM     17  C   UNL     1       1.353   3.739  18.269  0.00  0.00    +0.000 A 
ATOM     18  C   UNL     1       1.079   3.309  19.569  0.00  0.00    +0.000 A 
ATOM     19  C   UNL     1       2.113   3.276  20.510  0.00  0.00    +0.000 A 
ATOM     20  N   UNL     1       3.367   3.665  20.146  0.00  0.00    +0.000 NA
BRANCH  19  21
ATOM     21  N   UNL     1       1.858   2.849  21.836  0.00  0.00    +0.000 N 
ATOM     22  H   UNL     1       1.142   2.134  22.034  0.00  0.00    +0.000 HD
ATOM     23  H   UNL     1       2.390   3.247  22.622  0.00  0.00    +0.000 HD
ENDBRANCH  19  21
ENDBRANCH  14  15
ENDBRANCH   5  14
TORSDOF 7
ENDMDL
MODEL 5
REMARK VINA RESULT:      -6.5      3.425      5.510
REMARK  Name = 
REMARK  9 active torsions:
REMARK  status: ('A' for Active; 'I' for Inactive)
REMARK    1  A    between atoms: C_1  and  N_2
REMARK    2  A    between atoms: N_2  and  C_3
REMARK    3  A    between atoms: N_2  and  C_4
REMARK    4  A    between atoms: C_4  and  C_5
REMARK    5  A    between atoms: C_5  and  N_6
REMARK    6  A    between atoms: N_6  and  C_7
REMARK    7  A    between atoms: C_11  and  C_12
REMARK    8  A    between atoms: C_12  and  C_13
REMARK    9  A    between atoms: C_17  and  N_18
REMARK                            x       y       z     vdW  Elec       q    Type
REMARK                         _______ _______ _______ _____ _____    ______ ____
ROOT
ATOM      1  C   UNL     1       3.056   6.072  19.235  0.00  0.00    +0.000 C 
ATOM      2  C   UNL     1       2.396   5.028  20.134  0.00  0.00    +0.000 C 
ATOM      3  N   UNL     1       1.365   4.366  19.333  0.00  0.00    +0.000 NA
ATOM      4  C   UNL     1       1.768   4.541  17.925  0.00  0.00    +0.000 C 
ATOM      5  C   UNL     1       3.094   5.316  17.897  0.00  0.00    +0.000 C 
ATOM      6  H   UNL     1       0.465   4.884  19.481  0.00  0.00    +0.000 HD
ENDROOT
BRANCH   1   7
ATOM      7  N   UNL     1       2.259   7.314  19.156  0.00  0.00    +0.000 NA
ATOM      8  H   UNL     1       1.235   7.121  19.067  0.00  0.00    +0.000 HD
BRANCH   7   9
ATOM      9  C   UNL     1       2.722   8.135  18.016  0.00  0.00    +0.000 C 
BRANCH   9  10
ATOM     10  C   UNL     1       1.910   9.421  17.854  0.00  0.00    +0.000 C 
BRANCH  10  12
ATOM     11  C   UNL     1       1.030  10.539  19.853  0.00  0.00    +0.000 C 
ATOM     12  N   UNL     1       0.776   9.543  18.797  0.00  0.00    +0.000 NA
ATOM     13  C   UNL     1      -0.421   9.940  18.036  0.00  0.00    +0.000 C 
ENDBRANCH  10  12
ENDBRANCH   9  10
ENDBRANCH   7   9
ENDBRANCH   1   7
BRANCH   5  14
ATOM     14  C   UNL     1       4.356   4.428  17.790  0.00  0.00    +0.000 C 
BRANCH  14  15
ATOM     15  C   UNL     1       5.588   5.280  18.015  0.00  0.00    +0.000 A 
ATOM     16  C   UNL     1       5.888   6.355  17.167  0.00  0.00    +0.000 A 
ATOM     17  C   UNL     1       7.054   7.091  17.378  0.00  0.00    +0.000 A 
ATOM     18  C   UNL     1       7.914   6.758  18.426  0.00  0.00    +0.000 A 
ATOM     19  C   UNL     1       7.590   5.683  19.261  0.00  0.00    +0.000 A 
ATOM     20  N   UNL     1       6.445   4.979  19.037  0.00  0.00    +0.000 NA
BRANCH  19  21
ATOM     21  N   UNL     1       8.449   5.322  20.327  0.00  0.00    +0.000 N 
ATOM     22  H   UNL     1       8.498   4.349  20.663  0.00  0.00    +0.000 HD
ATOM     23  H   UNL     1       9.042   6.032  20.780  0.00  0.00    +0.000 HD
ENDBRANCH  19  21
ENDBRANCH  14  15
ENDBRANCH   5  14
TORSDOF 7
ENDMDL
MODEL 6
REMARK VINA RESULT:      -6.5      3.223      5.383
REMARK  Name = 
REMARK  9 active torsions:
REMARK  status: ('A' for Active; 'I' for Inactive)
REMARK    1  A    between atoms: C_1  and  N_2
REMARK    2  A    between atoms: N_2  and  C_3
REMARK    3  A    between atoms: N_2  and  C_4
REMARK    4  A    between atoms: C_4  and  C_5
REMARK    5  A    between atoms: C_5  and  N_6
REMARK    6  A    between atoms: N_6  and  C_7
REMARK    7  A    between atoms: C_11  and  C_12
REMARK    8  A    between atoms: C_12  and  C_13
REMARK    9  A    between atoms: C_17  and  N_18
REMARK                            x       y       z     vdW  Elec       q    Type
REMARK                         _______ _______ _______ _____ _____    ______ ____
ROOT
ATOM      1  C   UNL     1       2.680   4.886  20.414  0.00  0.00    +0.000 C 
ATOM      2  C   UNL     1       2.259   3.616  21.153  0.00  0.00    +0.000 C 
ATOM      3  N   UNL     1       1.160   3.022  20.389  0.00  0.00    +0.000 NA
ATOM      4  C   UNL     1       1.309   3.520  19.009  0.00  0.00    +0.000 C 
ATOM      5  C   UNL     1       2.550   4.423  18.953  0.00  0.00    +0.000 C 
ATOM      6  H   UNL     1       0.262   3.399  20.777  0.00  0.00    +0.000 HD
ENDROOT
BRANCH   1   7
ATOM      7  N   UNL     1       1.791   6.024  20.724  0.00  0.00    +0.000 NA
ATOM      8  H   UNL     1       0.787   5.806  20.527  0.00  0.00    +0.000 HD
BRANCH   7   9
ATOM      9  C   UNL     1       2.212   7.213  19.953  0.00  0.00    +0.000 C 
BRANCH   9  10
ATOM     10  C   UNL     1       1.455   8.477  20.365  0.00  0.00    +0.000 C 
BRANCH  10  12
ATOM     11  C   UNL     1       1.685   8.950  17.969  0.00  0.00    +0.000 C 
ATOM     12  N   UNL     1       1.355   9.497  19.297  0.00  0.00    +0.000 NA
ATOM     13  C   UNL     1      -0.023  10.018  19.277  0.00  0.00    +0.000 C 
ENDBRANCH  10  12
ENDBRANCH   9  10
ENDBRANCH   7   9
ENDBRANCH   1   7
BRANCH   5  14
ATOM     14  C   UNL     1       3.839   3.716  18.473  0.00  0.00    +0.000 C 
BRANCH  14  15
ATOM     15  C   UNL     1       4.946   4.740  18.323  0.00  0.00    +0.000 A 
ATOM     16  C   UNL     1       4.913   5.695  17.297  0.00  0.00    +0.000 A 
ATOM     17  C   UNL     1       5.969   6.595  17.163  0.00  0.00    +0.000 A 
ATOM     18  C   UNL     1       7.051   6.543  18.043  0.00  0.00    +0.000 A 
ATOM     19  C   UNL     1       7.059   5.583  19.061  0.00  0.00    +0.000 A 
ATOM     20  N   UNL     1       6.014   4.715  19.175  0.00  0.00    +0.000 NA
BRANCH  19  21
ATOM     21  N   UNL     1       8.147   5.507  19.964  0.00  0.00    +0.000 N 
ATOM     22  H   UNL     1       8.569   6.361  20.358  0.00  0.00    +0.000 HD
ATOM     23  H   UNL     1       8.531   4.592  20.240  0.00  0.00    +0.000 HD
ENDBRANCH  19  21
ENDBRANCH  14  15
ENDBRANCH   5  14
TORSDOF 7
ENDMDL
MODEL 7
REMARK VINA RESULT:      -6.4      3.213      5.158
REMARK  Name = 
REMARK  9 active torsions:
REMARK  status: ('A' for Active; 'I' for Inactive)
REMARK    1  A    between atoms: C_1  and  N_2
REMARK    2  A    between atoms: N_2  and  C_3
REMARK    3  A    between atoms: N_2  and  C_4
REMARK    4  A    between atoms: C_4  and  C_5
REMARK    5  A    between atoms: C_5  and  N_6
REMARK    6  A    between atoms: N_6  and  C_7
REMARK    7  A    between atoms: C_11  and  C_12
REMARK    8  A    between atoms: C_12  and  C_13
REMARK    9  A    between atoms: C_17  and  N_18
REMARK                            x       y       z     vdW  Elec       q    Type
REMARK                         _______ _______ _______ _____ _____    ______ ____
ROOT
ATOM      1  C   UNL     1       2.562   4.885  20.536  0.00  0.00    +0.000 C 
ATOM      2  C   UNL     1       2.128   3.727  21.433  0.00  0.00    +0.000 C 
ATOM      3  N   UNL     1       0.890   3.189  20.867  0.00  0.00    +0.000 NA
ATOM      4  C   UNL     1       0.901   3.559  19.439  0.00  0.00    +0.000 C 
ATOM      5  C   UNL     1       2.201   4.325  19.151  0.00  0.00    +0.000 C 
ATOM      6  H   UNL     1       0.088   3.685  21.326  0.00  0.00    +0.000 HD
ENDROOT
BRANCH   1   7
ATOM      7  N   UNL     1       1.829   6.129  20.848  0.00  0.00    +0.000 NA
ATOM      8  H   UNL     1       0.793   5.982  20.866  0.00  0.00    +0.000 HD
BRANCH   7   9
ATOM      9  C   UNL     1       2.177   7.176  19.865  0.00  0.00    +0.000 C 
BRANCH   9  10
ATOM     10  C   UNL     1       1.490   8.510  20.162  0.00  0.00    +0.000 C 
BRANCH  10  12
ATOM     11  C   UNL     1       1.072  10.728  19.201  0.00  0.00    +0.000 C 
ATOM     12  N   UNL     1       1.107   9.275  18.954  0.00  0.00    +0.000 NA
ATOM     13  C   UNL     1       2.086   8.988  17.892  0.00  0.00    +0.000 C 
ENDBRANCH  10  12
ENDBRANCH   9  10
ENDBRANCH   7   9
ENDBRANCH   1   7
BRANCH   5  14
ATOM     14  C   UNL     1       3.346   3.455  18.581  0.00  0.00    +0.000 C 
BRANCH  14  15
ATOM     15  C   UNL     1       4.363   4.349  17.901  0.00  0.00    +0.000 A 
ATOM     16  C   UNL     1       3.966   5.509  17.222  0.00  0.00    +0.000 A 
ATOM     17  C   UNL     1       4.924   6.285  16.571  0.00  0.00    +0.000 A 
ATOM     18  C   UNL     1       6.268   5.907  16.596  0.00  0.00    +0.000 A 
ATOM     19  C   UNL     1       6.639   4.747  17.284  0.00  0.00    +0.000 A 
ATOM     20  N   UNL     1       5.686   4.005  17.915  0.00  0.00    +0.000 NA
BRANCH  19  21
ATOM     21  N   UNL     1       7.995   4.340  17.319  0.00  0.00    +0.000 N 
ATOM     22  H   UNL     1       8.456   3.958  16.480  0.00  0.00    +0.000 HD
ATOM     23  H   UNL     1       8.541   4.423  18.188  0.00  0.00    +0.000 HD
ENDBRANCH  19  21
ENDBRANCH  14  15
ENDBRANCH   5  14
TORSDOF 7
ENDMDL
MODEL 8
REMARK VINA RESULT:      -6.4      3.594      5.521
REMARK  Name = 
REMARK  9 active torsions:
REMARK  status: ('A' for Active; 'I' for Inactive)
REMARK    1  A    between atoms: C_1  and  N_2
REMARK    2  A    between atoms: N_2  and  C_3
REMARK    3  A    between atoms: N_2  and  C_4
REMARK    4  A    between atoms: C_4  and  C_5
REMARK    5  A    between atoms: C_5  and  N_6
REMARK    6  A    between atoms: N_6  and  C_7
REMARK    7  A    between atoms: C_11  and  C_12
REMARK    8  A    between atoms: C_12  and  C_13
REMARK    9  A    between atoms: C_17  and  N_18
REMARK                            x       y       z     vdW  Elec       q    Type
REMARK                         _______ _______ _______ _____ _____    ______ ____
ROOT
ATOM      1  C   UNL     1       3.060   5.766  19.390  0.00  0.00    +0.000 C 
ATOM      2  C   UNL     1       2.401   4.584  20.100  0.00  0.00    +0.000 C 
ATOM      3  N   UNL     1       1.399   4.040  19.182  0.00  0.00    +0.000 NA
ATOM      4  C   UNL     1       1.829   4.438  17.828  0.00  0.00    +0.000 C 
ATOM      5  C   UNL     1       3.141   5.228  17.953  0.00  0.00    +0.000 C 
ATOM      6  H   UNL     1       0.487   4.514  19.387  0.00  0.00    +0.000 HD
ENDROOT
BRANCH   1   7
ATOM      7  N   UNL     1       2.241   6.992  19.487  0.00  0.00    +0.000 NA
ATOM      8  H   UNL     1       2.818   7.860  19.391  0.00  0.00    +0.000 HD
BRANCH   7   9
ATOM      9  C   UNL     1       1.510   7.007  20.771  0.00  0.00    +0.000 C 
BRANCH   9  10
ATOM     10  C   UNL     1       1.418   8.410  21.376  0.00  0.00    +0.000 C 
BRANCH  10  12
ATOM     11  C   UNL     1      -0.152   9.441  22.954  0.00  0.00    +0.000 C 
ATOM     12  N   UNL     1       0.034   8.880  21.603  0.00  0.00    +0.000 NA
ATOM     13  C   UNL     1      -0.276   9.916  20.603  0.00  0.00    +0.000 C 
ENDBRANCH  10  12
ENDBRANCH   9  10
ENDBRANCH   7   9
ENDBRANCH   1   7
BRANCH   5  14
ATOM     14  C   UNL     1       4.420   4.388  17.740  0.00  0.00    +0.000 C 
BRANCH  14  15
ATOM     15  C   UNL     1       5.637   5.252  18.002  0.00  0.00    +0.000 A 
ATOM     16  C   UNL     1       5.940   6.343  17.175  0.00  0.00    +0.000 A 
ATOM     17  C   UNL     1       7.091   7.091  17.420  0.00  0.00    +0.000 A 
ATOM     18  C   UNL     1       7.934   6.754  18.480  0.00  0.00    +0.000 A 
ATOM     19  C   UNL     1       7.608   5.663  19.293  0.00  0.00    +0.000 A 
ATOM     20  N   UNL     1       6.477   4.948  19.036  0.00  0.00    +0.000 NA
BRANCH  19  21
ATOM     21  N   UNL     1       8.450   5.298  20.371  0.00  0.00    +0.000 N 
ATOM     22  H   UNL     1       9.465   5.477  20.335  0.00  0.00    +0.000 HD
ATOM     23  H   UNL     1       8.056   4.850  21.210  0.00  0.00    +0.000 HD
ENDBRANCH  19  21
ENDBRANCH  14  15
ENDBRANCH   5  14
TORSDOF 7
ENDMDL
MODEL 9
REMARK VINA RESULT:      -6.4      1.765      6.144
REMARK  Name = 
REMARK  9 active torsions:
REMARK  status: ('A' for Active; 'I' for Inactive)
REMARK    1  A    between atoms: C_1  and  N_2
REMARK    2  A    between atoms: N_2  and  C_3
REMARK    3  A    between atoms: N_2  and  C_4
REMARK    4  A    between atoms: C_4  and  C_5
REMARK    5  A    between atoms: C_5  and  N_6
REMARK    6  A    between atoms: N_6  and  C_7
REMARK    7  A    between atoms: C_11  and  C_12
REMARK    8  A    between atoms: C_12  and  C_13
REMARK    9  A    between atoms: C_17  and  N_18
REMARK                            x       y       z     vdW  Elec       q    Type
REMARK                         _______ _______ _______ _____ _____    ______ ____
ROOT
ATOM      1  C   UNL     1       7.058   5.070  17.654  0.00  0.00    +0.000 C 
ATOM      2  C   UNL     1       7.635   6.414  18.098  0.00  0.00    +0.000 C 
ATOM      3  N   UNL     1       6.909   7.453  17.366  0.00  0.00    +0.000 NA
ATOM      4  C   UNL     1       5.612   6.857  16.994  0.00  0.00    +0.000 C 
ATOM      5  C   UNL     1       5.566   5.423  17.542  0.00  0.00    +0.000 C 
ATOM      6  H   UNL     1       7.441   7.654  16.485  0.00  0.00    +0.000 HD
ENDROOT
BRANCH   1   7
ATOM      7  N   UNL     1       7.629   4.624  16.366  0.00  0.00    +0.000 NA
ATOM      8  H   UNL     1       8.080   5.408  15.842  0.00  0.00    +0.000 HD
BRANCH   7   9
ATOM      9  C   UNL     1       6.573   4.000  15.540  0.00  0.00    +0.000 C 
BRANCH   9  10
ATOM     10  C   UNL     1       6.498   4.601  14.135  0.00  0.00    +0.000 C 
BRANCH  10  12
ATOM     11  C   UNL     1       4.976   3.452  12.593  0.00  0.00    +0.000 C 
ATOM     12  N   UNL     1       6.368   3.598  13.055  0.00  0.00    +0.000 NA
ATOM     13  C   UNL     1       7.211   4.019  11.924  0.00  0.00    +0.000 C 
ENDBRANCH  10  12
ENDBRANCH   9  10
ENDBRANCH   7   9
ENDBRANCH   1   7
BRANCH   5  14
ATOM     14  C   UNL     1       4.852   5.279  18.905  0.00  0.00    +0.000 C 
BRANCH  14  15
ATOM     15  C   UNL     1       3.701   4.302  18.767  0.00  0.00    +0.000 A 
ATOM     16  C   UNL     1       3.531   3.547  17.599  0.00  0.00    +0.000 A 
ATOM     17  C   UNL     1       2.437   2.689  17.489  0.00  0.00    +0.000 A 
ATOM     18  C   UNL     1       1.520   2.585  18.536  0.00  0.00    +0.000 A 
ATOM     19  C   UNL     1       1.715   3.346  19.694  0.00  0.00    +0.000 A 
ATOM     20  N   UNL     1       2.792   4.176  19.780  0.00  0.00    +0.000 NA
BRANCH  19  21
ATOM     21  N   UNL     1       0.795   3.262  20.768  0.00  0.00    +0.000 N 
ATOM     22  H   UNL     1       0.217   2.419  20.906  0.00  0.00    +0.000 HD
ATOM     23  H   UNL     1       0.694   4.045  21.428  0.00  0.00    +0.000 HD
ENDBRANCH  19  21
ENDBRANCH  14  15
ENDBRANCH   5  14
TORSDOF 7
ENDMDL
