MODEL 1
REMARK VINA RESULT:      -7.1      0.000      0.000
REMARK  Name = 
REMARK  9 active torsions:
REMARK  status: ('A' for Active; 'I' for Inactive)
REMARK    1  A    between atoms: C_1  and  O_2
REMARK    2  A    between atoms: O_2  and  C_3
REMARK    3  A    between atoms: C_8  and  N_9
REMARK    4  A    between atoms: C_10  and  C_12
REMARK    5  A    between atoms: C_12  and  C_13
REMARK    6  A    between atoms: C_13  and  S_14
REMARK    7  A    between atoms: S_14  and  C_15
REMARK    8  A    between atoms: C_18  and  C_19
REMARK    9  A    between atoms: C_22  and  O_23
REMARK                            x       y       z     vdW  Elec       q    Type
REMARK                         _______ _______ _______ _____ _____    ______ ____
ROOT
ATOM      1  C   UNL     1       3.391   2.851  21.054  0.00  0.00    +0.000 C 
ENDROOT
BRANCH   1   2
ATOM      2  C   UNL     1       2.156   3.592  21.600  0.00  0.00    +0.000 C 
BRANCH   2   4
ATOM      3  N   UNL     1       2.610   5.707  20.432  0.00  0.00    +0.000 N 
ATOM      4  C   UNL     1       1.718   4.654  20.601  0.00  0.00    +0.000 C 
ATOM      5  O   UNL     1       0.650   4.539  20.006  0.00  0.00    +0.000 OA
ATOM      6  H   UNL     1       3.560   5.617  20.781  0.00  0.00    +0.000 HD
BRANCH   3  12
ATOM      7  C   UNL     1       1.631   7.955  20.214  0.00  0.00    +0.000 A 
ATOM      8  C   UNL     1       1.372   9.097  19.434  0.00  0.00    +0.000 A 
ATOM      9  C   UNL     1       1.864   9.202  18.134  0.00  0.00    +0.000 A 
ATOM     10  C   UNL     1       2.594   8.156  17.590  0.00  0.00    +0.000 A 
ATOM     11  C   UNL     1       2.828   7.003  18.341  0.00  0.00    +0.000 A 
ATOM     12  C   UNL     1       2.366   6.882  19.659  0.00  0.00    +0.000 A 
BRANCH   7  14
ATOM     13  C   UNL     1       0.098   8.666  21.871  0.00  0.00    +0.000 C 
ATOM     14  O   UNL     1       1.204   7.829  21.518  0.00  0.00    +0.000 OA
ENDBRANCH   7  14
ENDBRANCH   3  12
ENDBRANCH   2   4
ENDBRANCH   1   2
BRANCH   1  15
ATOM     15  S   UNL     1       3.096   2.137  19.401  0.00  0.00    +0.000 S 
BRANCH  15  16
ATOM     16  C   UNL     1       4.087   3.179  18.408  0.00  0.00    +0.000 A 
ATOM     17  N   UNL     1       4.079   3.200  17.091  0.00  0.00    +0.000 NA
ATOM     18  N   UNL     1       4.960   4.189  16.701  0.00  0.00    +0.000 NA
ATOM     19  C   UNL     1       5.459   4.705  17.806  0.00  0.00    +0.000 A 
ATOM     20  O   UNL     1       4.960   4.102  18.935  0.00  0.00    +0.000 OA
BRANCH  19  21
ATOM     21  C   UNL     1       6.391   5.819  17.974  0.00  0.00    +0.000 A 
ATOM     22  C   UNL     1       6.258   6.960  17.164  0.00  0.00    +0.000 A 
ATOM     23  C   UNL     1       7.114   8.057  17.308  0.00  0.00    +0.000 A 
ATOM     24  C   UNL     1       8.119   8.013  18.265  0.00  0.00    +0.000 A 
ATOM     25  C   UNL     1       8.279   6.896  19.074  0.00  0.00    +0.000 A 
ATOM     26  C   UNL     1       7.418   5.801  18.930  0.00  0.00    +0.000 A 
BRANCH  24  27
ATOM     27  O   UNL     1       8.976   9.060  18.448  0.00  0.00    +0.000 OA
ATOM     28  H   UNL     1       8.665   9.816  17.920  0.00  0.00    +0.000 HD
ENDBRANCH  24  27
ENDBRANCH  19  21
ENDBRANCH  15  16
ENDBRANCH   1  15
TORSDOF 8
ENDMDL
MODEL 2
REMARK VINA RESULT:      -6.8      3.233      5.364
REMARK  Name = 
REMARK  9 active torsions:
REMARK  status: ('A' for Active; 'I' for Inactive)
REMARK    1  A    between atoms: C_1  and  O_2
REMARK    2  A    between atoms: O_2  and  C_3
REMARK    3  A    between atoms: C_8  and  N_9
REMARK    4  A    between atoms: C_10  and  C_12
REMARK    5  A    between atoms: C_12  and  C_13
REMARK    6  A    between atoms: C_13  and  S_14
REMARK    7  A    between atoms: S_14  and  C_15
REMARK    8  A    between atoms: C_18  and  C_19
REMARK    9  A    between atoms: C_22  and  O_23
REMARK                            x       y       z     vdW  Elec       q    Type
REMARK                         _______ _______ _______ _____ _____    ______ ____
ROOT
ATOM      1  C   UNL     1       7.010   5.104  16.654  0.00  0.00    +0.000 C 
ENDROOT
BRANCH   1   2
ATOM      2  C   UNL     1       6.281   3.750  16.709  0.00  0.00    +0.000 C 
BRANCH   2   4
ATOM      3  N   UNL     1       4.691   3.547  18.572  0.00  0.00    +0.000 N 
ATOM      4  C   UNL     1       4.874   3.951  17.255  0.00  0.00    +0.000 C 
ATOM      5  O   UNL     1       4.002   4.447  16.547  0.00  0.00    +0.000 OA
ATOM      6  H   UNL     1       5.502   3.362  19.155  0.00  0.00    +0.000 HD
BRANCH   3  12
ATOM      7  C   UNL     1       2.905   4.693  19.819  0.00  0.00    +0.000 A 
ATOM      8  C   UNL     1       1.685   4.641  20.520  0.00  0.00    +0.000 A 
ATOM      9  C   UNL     1       0.979   3.445  20.637  0.00  0.00    +0.000 A 
ATOM     10  C   UNL     1       1.496   2.285  20.081  0.00  0.00    +0.000 A 
ATOM     11  C   UNL     1       2.722   2.316  19.414  0.00  0.00    +0.000 A 
ATOM     12  C   UNL     1       3.440   3.510  19.261  0.00  0.00    +0.000 A 
BRANCH   7  14
ATOM     13  C   UNL     1       2.930   6.866  18.882  0.00  0.00    +0.000 C 
ATOM     14  O   UNL     1       3.612   5.861  19.639  0.00  0.00    +0.000 OA
ENDBRANCH   7  14
ENDBRANCH   3  12
ENDBRANCH   2   4
ENDBRANCH   1   2
BRANCH   1  15
ATOM     15  S   UNL     1       7.555   5.664  18.303  0.00  0.00    +0.000 S 
BRANCH  15  16
ATOM     16  C   UNL     1       7.778   7.374  18.016  0.00  0.00    +0.000 A 
ATOM     17  N   UNL     1       7.091   8.093  17.153  0.00  0.00    +0.000 NA
ATOM     18  N   UNL     1       7.537   9.394  17.271  0.00  0.00    +0.000 NA
ATOM     19  C   UNL     1       8.477   9.387  18.195  0.00  0.00    +0.000 A 
ATOM     20  O   UNL     1       8.696   8.131  18.706  0.00  0.00    +0.000 OA
BRANCH  19  21
ATOM     21  C   UNL     1       9.241  10.501  18.753  0.00  0.00    +0.000 A 
ATOM     22  C   UNL     1       9.403  10.599  20.147  0.00  0.00    +0.000 A 
ATOM     23  C   UNL     1      10.147  11.637  20.721  0.00  0.00    +0.000 A 
ATOM     24  C   UNL     1      10.727  12.591  19.896  0.00  0.00    +0.000 A 
ATOM     25  C   UNL     1      10.577  12.525  18.518  0.00  0.00    +0.000 A 
ATOM     26  C   UNL     1       9.836  11.483  17.946  0.00  0.00    +0.000 A 
BRANCH  24  27
ATOM     27  O   UNL     1      11.467  13.619  20.407  0.00  0.00    +0.000 OA
ATOM     28  H   UNL     1      12.386  13.321  20.516  0.00  0.00    +0.000 HD
ENDBRANCH  24  27
ENDBRANCH  19  21
ENDBRANCH  15  16
ENDBRANCH   1  15
TORSDOF 8
ENDMDL
MODEL 3
REMARK VINA RESULT:      -6.8      1.968      5.838
REMARK  Name = 
REMARK  9 active torsions:
REMARK  status: ('A' for Active; 'I' for Inactive)
REMARK    1  A    between atoms: C_1  and  O_2
REMARK    2  A    between atoms: O_2  and  C_3
REMARK    3  A    between atoms: C_8  and  N_9
REMARK    4  A    between atoms: C_10  and  C_12
REMARK    5  A    between atoms: C_12  and  C_13
REMARK    6  A    between atoms: C_13  and  S_14
REMARK    7  A    between atoms: S_14  and  C_15
REMARK    8  A    between atoms: C_18  and  C_19
REMARK    9  A    between atoms: C_22  and  O_23
REMARK                            x       y       z     vdW  Elec       q    Type
REMARK                         _______ _______ _______ _____ _____    ______ ____
ROOT
ATOM      1  C   UNL     1       3.036   2.329  20.137  0.00  0.00    +0.000 C 
ENDROOT
BRANCH   1   2
ATOM      2  C   UNL     1       2.401   1.929  18.792  0.00  0.00    +0.000 C 
BRANCH   2   4
ATOM      3  N   UNL     1       4.404   2.914  17.765  0.00  0.00    +0.000 N 
ATOM      4  C   UNL     1       3.028   2.745  17.671  0.00  0.00    +0.000 C 
ATOM      5  O   UNL     1       2.327   3.193  16.768  0.00  0.00    +0.000 OA
ATOM      6  H   UNL     1       4.937   2.332  18.404  0.00  0.00    +0.000 HD
BRANCH   3  12
ATOM      7  C   UNL     1       6.206   4.565  17.469  0.00  0.00    +0.000 A 
ATOM      8  C   UNL     1       6.962   5.402  16.627  0.00  0.00    +0.000 A 
ATOM      9  C   UNL     1       6.755   5.405  15.249  0.00  0.00    +0.000 A 
ATOM     10  C   UNL     1       5.772   4.595  14.701  0.00  0.00    +0.000 A 
ATOM     11  C   UNL     1       4.991   3.786  15.530  0.00  0.00    +0.000 A 
ATOM     12  C   UNL     1       5.196   3.746  16.915  0.00  0.00    +0.000 A 
BRANCH   7  14
ATOM     13  C   UNL     1       7.146   5.592  19.385  0.00  0.00    +0.000 C 
ATOM     14  O   UNL     1       6.410   4.496  18.830  0.00  0.00    +0.000 OA
ENDBRANCH   7  14
ENDBRANCH   3  12
ENDBRANCH   2   4
ENDBRANCH   1   2
BRANCH   1  15
ATOM     15  S   UNL     1       1.939   3.399  21.128  0.00  0.00    +0.000 S 
BRANCH  15  16
ATOM     16  C   UNL     1       2.325   4.971  20.472  0.00  0.00    +0.000 A 
ATOM     17  N   UNL     1       3.354   5.235  19.693  0.00  0.00    +0.000 NA
ATOM     18  N   UNL     1       3.269   6.571  19.357  0.00  0.00    +0.000 NA
ATOM     19  C   UNL     1       2.195   7.043  19.959  0.00  0.00    +0.000 A 
ATOM     20  O   UNL     1       1.550   6.084  20.700  0.00  0.00    +0.000 OA
BRANCH  19  21
ATOM     21  C   UNL     1       1.607   8.380  19.898  0.00  0.00    +0.000 A 
ATOM     22  C   UNL     1       1.107   8.970  21.073  0.00  0.00    +0.000 A 
ATOM     23  C   UNL     1       0.558  10.256  21.064  0.00  0.00    +0.000 A 
ATOM     24  C   UNL     1       0.498  10.960  19.868  0.00  0.00    +0.000 A 
ATOM     25  C   UNL     1       0.976  10.400  18.691  0.00  0.00    +0.000 A 
ATOM     26  C   UNL     1       1.529   9.113  18.704  0.00  0.00    +0.000 A 
BRANCH  24  27
ATOM     27  O   UNL     1      -0.023  12.220  19.808  0.00  0.00    +0.000 OA
ATOM     28  H   UNL     1      -0.428  12.434  20.666  0.00  0.00    +0.000 HD
ENDBRANCH  24  27
ENDBRANCH  19  21
ENDBRANCH  15  16
ENDBRANCH   1  15
TORSDOF 8
ENDMDL
MODEL 4
REMARK VINA RESULT:      -6.8      3.224      5.472
REMARK  Name = 
REMARK  9 active torsions:
REMARK  status: ('A' for Active; 'I' for Inactive)
REMARK    1  A    between atoms: C_1  and  O_2
REMARK    2  A    between atoms: O_2  and  C_3
REMARK    3  A    between atoms: C_8  and  N_9
REMARK    4  A    between atoms: C_10  and  C_12
REMARK    5  A    between atoms: C_12  and  C_13
REMARK    6  A    between atoms: C_13  and  S_14
REMARK    7  A    between atoms: S_14  and  C_15
REMARK    8  A    between atoms: C_18  and  C_19
REMARK    9  A    between atoms: C_22  and  O_23
REMARK                            x       y       z     vdW  Elec       q    Type
REMARK                         _______ _______ _______ _____ _____    ______ ____
ROOT
ATOM      1  C   UNL     1       7.333   4.936  16.519  0.00  0.00    +0.000 C 
ENDROOT
BRANCH   1   2
ATOM      2  C   UNL     1       6.127   3.995  16.347  0.00  0.00    +0.000 C 
BRANCH   2   4
ATOM      3  N   UNL     1       4.523   3.813  18.201  0.00  0.00    +0.000 N 
ATOM      4  C   UNL     1       4.930   4.559  17.101  0.00  0.00    +0.000 C 
ATOM      5  O   UNL     1       4.403   5.604  16.729  0.00  0.00    +0.000 OA
ATOM      6  H   UNL     1       5.140   3.097  18.574  0.00  0.00    +0.000 HD
BRANCH   3  12
ATOM      7  C   UNL     1       2.280   3.140  18.960  0.00  0.00    +0.000 A 
ATOM      8  C   UNL     1       1.120   3.407  19.711  0.00  0.00    +0.000 A 
ATOM      9  C   UNL     1       1.031   4.547  20.507  0.00  0.00    +0.000 A 
ATOM     10  C   UNL     1       2.086   5.446  20.539  0.00  0.00    +0.000 A 
ATOM     11  C   UNL     1       3.228   5.211  19.771  0.00  0.00    +0.000 A 
ATOM     12  C   UNL     1       3.353   4.060  18.982  0.00  0.00    +0.000 A 
BRANCH   7  14
ATOM     13  C   UNL     1       3.507   1.149  18.595  0.00  0.00    +0.000 C 
ATOM     14  O   UNL     1       2.430   2.003  18.196  0.00  0.00    +0.000 OA
ENDBRANCH   7  14
ENDBRANCH   3  12
ENDBRANCH   2   4
ENDBRANCH   1   2
BRANCH   1  15
ATOM     15  S   UNL     1       7.530   5.501  18.243  0.00  0.00    +0.000 S 
BRANCH  15  16
ATOM     16  C   UNL     1       7.743   7.219  18.008  0.00  0.00    +0.000 A 
ATOM     17  N   UNL     1       7.031   7.966  17.190  0.00  0.00    +0.000 NA
ATOM     18  N   UNL     1       7.479   9.263  17.339  0.00  0.00    +0.000 NA
ATOM     19  C   UNL     1       8.445   9.227  18.235  0.00  0.00    +0.000 A 
ATOM     20  O   UNL     1       8.679   7.955  18.697  0.00  0.00    +0.000 OA
BRANCH  19  21
ATOM     21  C   UNL     1       9.223  10.323  18.809  0.00  0.00    +0.000 A 
ATOM     22  C   UNL     1       9.954  11.171  17.957  0.00  0.00    +0.000 A 
ATOM     23  C   UNL     1      10.693  12.246  18.463  0.00  0.00    +0.000 A 
ATOM     24  C   UNL     1      10.711  12.473  19.832  0.00  0.00    +0.000 A 
ATOM     25  C   UNL     1      10.007  11.647  20.698  0.00  0.00    +0.000 A 
ATOM     26  C   UNL     1       9.264  10.574  20.189  0.00  0.00    +0.000 A 
BRANCH  24  27
ATOM     27  O   UNL     1      11.412  13.512  20.373  0.00  0.00    +0.000 OA
ATOM     28  H   UNL     1      11.365  13.452  21.343  0.00  0.00    +0.000 HD
ENDBRANCH  24  27
ENDBRANCH  19  21
ENDBRANCH  15  16
ENDBRANCH   1  15
TORSDOF 8
ENDMDL
MODEL 5
REMARK VINA RESULT:      -6.7      2.284      6.701
REMARK  Name = 
REMARK  9 active torsions:
REMARK  status: ('A' for Active; 'I' for Inactive)
REMARK    1  A    between atoms: C_1  and  O_2
REMARK    2  A    between atoms: O_2  and  C_3
REMARK    3  A    between atoms: C_8  and  N_9
REMARK    4  A    between atoms: C_10  and  C_12
REMARK    5  A    between atoms: C_12  and  C_13
REMARK    6  A    between atoms: C_13  and  S_14
REMARK    7  A    between atoms: S_14  and  C_15
REMARK    8  A    between atoms: C_18  and  C_19
REMARK    9  A    between atoms: C_22  and  O_23
REMARK                            x       y       z     vdW  Elec       q    Type
REMARK                         _______ _______ _______ _____ _____    ______ ____
ROOT
ATOM      1  C   UNL     1       1.280   3.619  19.470  0.00  0.00    +0.000 C 
ENDROOT
BRANCH   1   2
ATOM      2  C   UNL     1       1.398   3.939  17.969  0.00  0.00    +0.000 C 
BRANCH   2   4
ATOM      3  N   UNL     1       3.496   4.795  17.018  0.00  0.00    +0.000 N 
ATOM      4  C   UNL     1       2.825   3.680  17.505  0.00  0.00    +0.000 C 
ATOM      5  O   UNL     1       3.304   2.552  17.582  0.00  0.00    +0.000 OA
ATOM      6  H   UNL     1       3.119   5.722  17.195  0.00  0.00    +0.000 HD
BRANCH   3  12
ATOM      7  C   UNL     1       5.877   5.421  17.038  0.00  0.00    +0.000 A 
ATOM      8  C   UNL     1       7.138   5.427  16.412  0.00  0.00    +0.000 A 
ATOM      9  C   UNL     1       7.334   4.779  15.194  0.00  0.00    +0.000 A 
ATOM     10  C   UNL     1       6.268   4.143  14.575  0.00  0.00    +0.000 A 
ATOM     11  C   UNL     1       5.005   4.160  15.168  0.00  0.00    +0.000 A 
ATOM     12  C   UNL     1       4.786   4.783  16.404  0.00  0.00    +0.000 A 
BRANCH   7  14
ATOM     13  C   UNL     1       6.199   5.301  19.380  0.00  0.00    +0.000 C 
ATOM     14  O   UNL     1       5.650   6.008  18.263  0.00  0.00    +0.000 OA
ENDBRANCH   7  14
ENDBRANCH   3  12
ENDBRANCH   2   4
ENDBRANCH   1   2
BRANCH   1  15
ATOM     15  S   UNL     1       2.593   4.417  20.454  0.00  0.00    +0.000 S 
BRANCH  15  16
ATOM     16  C   UNL     1       2.203   6.104  20.223  0.00  0.00    +0.000 A 
ATOM     17  N   UNL     1       2.568   6.831  19.187  0.00  0.00    +0.000 NA
ATOM     18  N   UNL     1       2.019   8.085  19.364  0.00  0.00    +0.000 NA
ATOM     19  C   UNL     1       1.358   8.048  20.504  0.00  0.00    +0.000 A 
ATOM     20  O   UNL     1       1.442   6.822  21.116  0.00  0.00    +0.000 OA
BRANCH  19  21
ATOM     21  C   UNL     1       0.544   9.082  21.141  0.00  0.00    +0.000 A 
ATOM     22  C   UNL     1       0.315   9.026  22.527  0.00  0.00    +0.000 A 
ATOM     23  C   UNL     1      -0.438  10.008  23.180  0.00  0.00    +0.000 A 
ATOM     24  C   UNL     1      -0.975  11.053  22.441  0.00  0.00    +0.000 A 
ATOM     25  C   UNL     1      -0.773  11.131  21.069  0.00  0.00    +0.000 A 
ATOM     26  C   UNL     1      -0.016  10.148  20.420  0.00  0.00    +0.000 A 
BRANCH  24  27
ATOM     27  O   UNL     1      -1.712  12.039  23.032  0.00  0.00    +0.000 OA
ATOM     28  H   UNL     1      -1.884  12.738  22.379  0.00  0.00    +0.000 HD
ENDBRANCH  24  27
ENDBRANCH  19  21
ENDBRANCH  15  16
ENDBRANCH   1  15
TORSDOF 8
ENDMDL
MODEL 6
REMARK VINA RESULT:      -6.6      4.354      6.444
REMARK  Name = 
REMARK  9 active torsions:
REMARK  status: ('A' for Active; 'I' for Inactive)
REMARK    1  A    between atoms: C_1  and  O_2
REMARK    2  A    between atoms: O_2  and  C_3
REMARK    3  A    between atoms: C_8  and  N_9
REMARK    4  A    between atoms: C_10  and  C_12
REMARK    5  A    between atoms: C_12  and  C_13
REMARK    6  A    between atoms: C_13  and  S_14
REMARK    7  A    between atoms: S_14  and  C_15
REMARK    8  A    between atoms: C_18  and  C_19
REMARK    9  A    between atoms: C_22  and  O_23
REMARK                            x       y       z     vdW  Elec       q    Type
REMARK                         _______ _______ _______ _____ _____    ______ ____
ROOT
ATOM      1  C   UNL     1       7.618   6.353  18.620  0.00  0.00    +0.000 C 
ENDROOT
BRANCH   1   2
ATOM      2  C   UNL     1       7.688   4.968  17.950  0.00  0.00    +0.000 C 
BRANCH   2   4
ATOM      3  N   UNL     1       5.365   4.499  18.598  0.00  0.00    +0.000 N 
ATOM      4  C   UNL     1       6.287   4.521  17.559  0.00  0.00    +0.000 C 
ATOM      5  O   UNL     1       6.038   4.218  16.395  0.00  0.00    +0.000 OA
ATOM      6  H   UNL     1       5.583   4.974  19.470  0.00  0.00    +0.000 HD
BRANCH   3  12
ATOM      7  C   UNL     1       3.002   4.797  17.973  0.00  0.00    +0.000 A 
ATOM      8  C   UNL     1       1.687   4.299  17.919  0.00  0.00    +0.000 A 
ATOM      9  C   UNL     1       1.393   3.008  18.353  0.00  0.00    +0.000 A 
ATOM     10  C   UNL     1       2.403   2.212  18.873  0.00  0.00    +0.000 A 
ATOM     11  C   UNL     1       3.705   2.707  18.965  0.00  0.00    +0.000 A 
ATOM     12  C   UNL     1       4.032   3.992  18.512  0.00  0.00    +0.000 A 
BRANCH   7  14
ATOM     13  C   UNL     1       2.980   7.130  18.377  0.00  0.00    +0.000 C 
ATOM     14  O   UNL     1       3.346   6.049  17.512  0.00  0.00    +0.000 OA
ENDBRANCH   7  14
ENDBRANCH   3  12
ENDBRANCH   2   4
ENDBRANCH   1   2
BRANCH   1  15
ATOM     15  S   UNL     1       7.327   7.691  17.415  0.00  0.00    +0.000 S 
BRANCH  15  16
ATOM     16  C   UNL     1       8.285   8.977  18.108  0.00  0.00    +0.000 A 
ATOM     17  N   UNL     1       8.826   8.956  19.308  0.00  0.00    +0.000 NA
ATOM     18  N   UNL     1       9.537  10.131  19.448  0.00  0.00    +0.000 NA
ATOM     19  C   UNL     1       9.379  10.802  18.325  0.00  0.00    +0.000 A 
ATOM     20  O   UNL     1       8.581  10.136  17.427  0.00  0.00    +0.000 OA
BRANCH  19  21
ATOM     21  C   UNL     1       9.959  12.080  17.915  0.00  0.00    +0.000 A 
ATOM     22  C   UNL     1      11.277  12.115  17.425  0.00  0.00    +0.000 A 
ATOM     23  C   UNL     1      11.863  13.313  17.000  0.00  0.00    +0.000 A 
ATOM     24  C   UNL     1      11.129  14.489  17.073  0.00  0.00    +0.000 A 
ATOM     25  C   UNL     1       9.829  14.487  17.560  0.00  0.00    +0.000 A 
ATOM     26  C   UNL     1       9.245  13.285  17.980  0.00  0.00    +0.000 A 
BRANCH  24  27
ATOM     27  O   UNL     1      11.654  15.682  16.665  0.00  0.00    +0.000 OA
ATOM     28  H   UNL     1      12.624  15.628  16.704  0.00  0.00    +0.000 HD
ENDBRANCH  24  27
ENDBRANCH  19  21
ENDBRANCH  15  16
ENDBRANCH   1  15
TORSDOF 8
ENDMDL
MODEL 7
REMARK VINA RESULT:      -6.6      2.033      2.524
REMARK  Name = 
REMARK  9 active torsions:
REMARK  status: ('A' for Active; 'I' for Inactive)
REMARK    1  A    between atoms: C_1  and  O_2
REMARK    2  A    between atoms: O_2  and  C_3
REMARK    3  A    between atoms: C_8  and  N_9
REMARK    4  A    between atoms: C_10  and  C_12
REMARK    5  A    between atoms: C_12  and  C_13
REMARK    6  A    between atoms: C_13  and  S_14
REMARK    7  A    between atoms: S_14  and  C_15
REMARK    8  A    between atoms: C_18  and  C_19
REMARK    9  A    between atoms: C_22  and  O_23
REMARK                            x       y       z     vdW  Elec       q    Type
REMARK                         _______ _______ _______ _____ _____    ______ ____
ROOT
ATOM      1  C   UNL     1       2.992   2.862  21.327  0.00  0.00    +0.000 C 
ENDROOT
BRANCH   1   2
ATOM      2  C   UNL     1       1.973   3.874  21.882  0.00  0.00    +0.000 C 
BRANCH   2   4
ATOM      3  N   UNL     1       2.519   5.886  20.581  0.00  0.00    +0.000 N 
ATOM      4  C   UNL     1       1.597   4.868  20.793  0.00  0.00    +0.000 C 
ATOM      5  O   UNL     1       0.549   4.732  20.168  0.00  0.00    +0.000 OA
ATOM      6  H   UNL     1       3.454   5.802  20.972  0.00  0.00    +0.000 HD
BRANCH   3  12
ATOM      7  C   UNL     1       1.664   8.160  20.184  0.00  0.00    +0.000 A 
ATOM      8  C   UNL     1       1.460   9.247  19.314  0.00  0.00    +0.000 A 
ATOM      9  C   UNL     1       1.944   9.217  18.007  0.00  0.00    +0.000 A 
ATOM     10  C   UNL     1       2.609   8.091  17.547  0.00  0.00    +0.000 A 
ATOM     11  C   UNL     1       2.787   6.992  18.389  0.00  0.00    +0.000 A 
ATOM     12  C   UNL     1       2.333   7.006  19.715  0.00  0.00    +0.000 A 
BRANCH   7  14
ATOM     13  C   UNL     1      -0.147   8.448  21.682  0.00  0.00    +0.000 C 
ATOM     14  O   UNL     1       1.245   8.165  21.496  0.00  0.00    +0.000 OA
ENDBRANCH   7  14
ENDBRANCH   3  12
ENDBRANCH   2   4
ENDBRANCH   1   2
BRANCH   1  15
ATOM     15  S   UNL     1       2.230   1.679  20.166  0.00  0.00    +0.000 S 
BRANCH  15  16
ATOM     16  C   UNL     1       2.566   2.451  18.635  0.00  0.00    +0.000 A 
ATOM     17  N   UNL     1       1.659   2.793  17.744  0.00  0.00    +0.000 NA
ATOM     18  N   UNL     1       2.328   3.415  16.710  0.00  0.00    +0.000 NA
ATOM     19  C   UNL     1       3.606   3.407  17.030  0.00  0.00    +0.000 A 
ATOM     20  O   UNL     1       3.837   2.796  18.238  0.00  0.00    +0.000 OA
BRANCH  19  21
ATOM     21  C   UNL     1       4.746   3.985  16.320  0.00  0.00    +0.000 A 
ATOM     22  C   UNL     1       5.939   4.242  17.020  0.00  0.00    +0.000 A 
ATOM     23  C   UNL     1       7.061   4.772  16.374  0.00  0.00    +0.000 A 
ATOM     24  C   UNL     1       6.991   5.056  15.017  0.00  0.00    +0.000 A 
ATOM     25  C   UNL     1       5.824   4.821  14.302  0.00  0.00    +0.000 A 
ATOM     26  C   UNL     1       4.704   4.287  14.951  0.00  0.00    +0.000 A 
BRANCH  24  27
ATOM     27  O   UNL     1       8.060   5.569  14.340  0.00  0.00    +0.000 OA
ATOM     28  H   UNL     1       8.631   6.044  14.968  0.00  0.00    +0.000 HD
ENDBRANCH  24  27
ENDBRANCH  19  21
ENDBRANCH  15  16
ENDBRANCH   1  15
TORSDOF 8
ENDMDL
MODEL 8
REMARK VINA RESULT:      -6.5      3.079      5.019
REMARK  Name = 
REMARK  9 active torsions:
REMARK  status: ('A' for Active; 'I' for Inactive)
REMARK    1  A    between atoms: C_1  and  O_2
REMARK    2  A    between atoms: O_2  and  C_3
REMARK    3  A    between atoms: C_8  and  N_9
REMARK    4  A    between atoms: C_10  and  C_12
REMARK    5  A    between atoms: C_12  and  C_13
REMARK    6  A    between atoms: C_13  and  S_14
REMARK    7  A    between atoms: S_14  and  C_15
REMARK    8  A    between atoms: C_18  and  C_19
REMARK    9  A    between atoms: C_22  and  O_23
REMARK                            x       y       z     vdW  Elec       q    Type
REMARK                         _______ _______ _______ _____ _____    ______ ____
ROOT
ATOM      1  C   UNL     1       7.108   4.706  16.719  0.00  0.00    +0.000 C 
ENDROOT
BRANCH   1   2
ATOM      2  C   UNL     1       5.651   4.959  16.290  0.00  0.00    +0.000 C 
BRANCH   2   4
ATOM      3  N   UNL     1       3.777   4.873  17.878  0.00  0.00    +0.000 N 
ATOM      4  C   UNL     1       4.714   4.136  17.162  0.00  0.00    +0.000 C 
ATOM      5  O   UNL     1       4.812   2.913  17.191  0.00  0.00    +0.000 OA
ATOM      6  H   UNL     1       3.611   5.844  17.630  0.00  0.00    +0.000 HD
BRANCH   3  12
ATOM      7  C   UNL     1       2.048   5.217  19.596  0.00  0.00    +0.000 A 
ATOM      8  C   UNL     1       1.191   4.691  20.580  0.00  0.00    +0.000 A 
ATOM      9  C   UNL     1       1.127   3.318  20.813  0.00  0.00    +0.000 A 
ATOM     10  C   UNL     1       1.938   2.460  20.085  0.00  0.00    +0.000 A 
ATOM     11  C   UNL     1       2.818   2.973  19.130  0.00  0.00    +0.000 A 
ATOM     12  C   UNL     1       2.884   4.346  18.859  0.00  0.00    +0.000 A 
BRANCH   7  14
ATOM     13  C   UNL     1       1.839   7.432  20.405  0.00  0.00    +0.000 C 
ATOM     14  O   UNL     1       2.109   6.561  19.301  0.00  0.00    +0.000 OA
ENDBRANCH   7  14
ENDBRANCH   3  12
ENDBRANCH   2   4
ENDBRANCH   1   2
BRANCH   1  15
ATOM     15  S   UNL     1       7.461   5.356  18.387  0.00  0.00    +0.000 S 
BRANCH  15  16
ATOM     16  C   UNL     1       7.759   7.041  18.032  0.00  0.00    +0.000 A 
ATOM     17  N   UNL     1       7.231   7.708  17.026  0.00  0.00    +0.000 NA
ATOM     18  N   UNL     1       7.677   9.009  17.131  0.00  0.00    +0.000 NA
ATOM     19  C   UNL     1       8.458   9.055  18.192  0.00  0.00    +0.000 A 
ATOM     20  O   UNL     1       8.569   7.834  18.810  0.00  0.00    +0.000 OA
BRANCH  19  21
ATOM     21  C   UNL     1       9.144  10.197  18.793  0.00  0.00    +0.000 A 
ATOM     22  C   UNL     1       9.691  11.191  17.961  0.00  0.00    +0.000 A 
ATOM     23  C   UNL     1      10.335  12.312  18.496  0.00  0.00    +0.000 A 
ATOM     24  C   UNL     1      10.443  12.439  19.874  0.00  0.00    +0.000 A 
ATOM     25  C   UNL     1       9.922  11.470  20.720  0.00  0.00    +0.000 A 
ATOM     26  C   UNL     1       9.273  10.351  20.182  0.00  0.00    +0.000 A 
BRANCH  24  27
ATOM     27  O   UNL     1      11.058  13.517  20.444  0.00  0.00    +0.000 OA
ATOM     28  H   UNL     1      10.762  14.324  19.990  0.00  0.00    +0.000 HD
ENDBRANCH  24  27
ENDBRANCH  19  21
ENDBRANCH  15  16
ENDBRANCH   1  15
TORSDOF 8
ENDMDL
MODEL 9
REMARK VINA RESULT:      -6.5      3.848      5.962
REMARK  Name = 
REMARK  9 active torsions:
REMARK  status: ('A' for Active; 'I' for Inactive)
REMARK    1  A    between atoms: C_1  and  O_2
REMARK    2  A    between atoms: O_2  and  C_3
REMARK    3  A    between atoms: C_8  and  N_9
REMARK    4  A    between atoms: C_10  and  C_12
REMARK    5  A    between atoms: C_12  and  C_13
REMARK    6  A    between atoms: C_13  and  S_14
REMARK    7  A    between atoms: S_14  and  C_15
REMARK    8  A    between atoms: C_18  and  C_19
REMARK    9  A    between atoms: C_22  and  O_23
REMARK                            x       y       z     vdW  Elec       q    Type
REMARK                         _______ _______ _______ _____ _____    ______ ____
ROOT
ATOM      1  C   UNL     1       7.524   5.786  17.510  0.00  0.00    +0.000 C 
ENDROOT
BRANCH   1   2
ATOM      2  C   UNL     1       6.575   4.585  17.338  0.00  0.00    +0.000 C 
BRANCH   2   4
ATOM      3  N   UNL     1       4.497   3.797  18.386  0.00  0.00    +0.000 N 
ATOM      4  C   UNL     1       5.716   4.434  18.585  0.00  0.00    +0.000 C 
ATOM      5  O   UNL     1       6.118   4.853  19.667  0.00  0.00    +0.000 OA
ATOM      6  H   UNL     1       4.337   3.284  17.524  0.00  0.00    +0.000 HD
BRANCH   3  12
ATOM      7  C   UNL     1       2.357   4.533  19.356  0.00  0.00    +0.000 A 
ATOM      8  C   UNL     1       1.361   4.405  20.341  0.00  0.00    +0.000 A 
ATOM      9  C   UNL     1       1.433   3.400  21.304  0.00  0.00    +0.000 A 
ATOM     10  C   UNL     1       2.515   2.532  21.310  0.00  0.00    +0.000 A 
ATOM     11  C   UNL     1       3.527   2.671  20.359  0.00  0.00    +0.000 A 
ATOM     12  C   UNL     1       3.466   3.657  19.365  0.00  0.00    +0.000 A 
BRANCH   7  14
ATOM     13  C   UNL     1       2.662   6.806  18.766  0.00  0.00    +0.000 C 
ATOM     14  O   UNL     1       2.301   5.482  18.358  0.00  0.00    +0.000 OA
ENDBRANCH   7  14
ENDBRANCH   3  12
ENDBRANCH   2   4
ENDBRANCH   1   2
BRANCH   1  15
ATOM     15  S   UNL     1       6.713   7.371  17.114  0.00  0.00    +0.000 S 
BRANCH  15  16
ATOM     16  C   UNL     1       7.805   8.503  17.874  0.00  0.00    +0.000 A 
ATOM     17  N   UNL     1       8.521   8.257  18.952  0.00  0.00    +0.000 NA
ATOM     18  N   UNL     1       9.281   9.383  19.194  0.00  0.00    +0.000 NA
ATOM     19  C   UNL     1       8.976  10.253  18.251  0.00  0.00    +0.000 A 
ATOM     20  O   UNL     1       8.030   9.768  17.381  0.00  0.00    +0.000 OA
BRANCH  19  21
ATOM     21  C   UNL     1       9.527  11.583  17.998  0.00  0.00    +0.000 A 
ATOM     22  C   UNL     1       8.697  12.711  18.122  0.00  0.00    +0.000 A 
ATOM     23  C   UNL     1       9.190  14.003  17.912  0.00  0.00    +0.000 A 
ATOM     24  C   UNL     1      10.524  14.172  17.566  0.00  0.00    +0.000 A 
ATOM     25  C   UNL     1      11.366  13.076  17.428  0.00  0.00    +0.000 A 
ATOM     26  C   UNL     1      10.870  11.785  17.643  0.00  0.00    +0.000 A 
BRANCH  24  27
ATOM     27  O   UNL     1      11.054  15.413  17.356  0.00  0.00    +0.000 OA
ATOM     28  H   UNL     1      11.764  15.565  18.003  0.00  0.00    +0.000 HD
ENDBRANCH  24  27
ENDBRANCH  19  21
ENDBRANCH  15  16
ENDBRANCH   1  15
TORSDOF 8
ENDMDL
