MODEL 1
REMARK VINA RESULT:      -7.0      0.000      0.000
REMARK  Name = 
REMARK  8 active torsions:
REMARK  status: ('A' for Active; 'I' for Inactive)
REMARK    1  A    between atoms: C_1  and  C_2
REMARK    2  A    between atoms: C_2  and  O_3
REMARK    3  A    between atoms: O_3  and  C_4
REMARK    4  A    between atoms: C_9  and  C_10
REMARK    5  A    between atoms: C_10  and  C_11
REMARK    6  A    between atoms: C_11  and  N_12
REMARK    7  A    between atoms: C_13  and  S_14
REMARK    8  A    between atoms: C_18  and  C_19
REMARK                            x       y       z     vdW  Elec       q    Type
REMARK                         _______ _______ _______ _____ _____    ______ ____
ROOT
ATOM      1  N   UNL     1       5.381   4.331  17.106  0.00  0.00    +0.000 NA
ATOM      2  C   UNL     1       5.845   4.893  16.049  0.00  0.00    +0.000 C 
ATOM      3  N   UNL     1       6.676   5.982  16.044  0.00  0.00    +0.000 N 
ATOM      4  C   UNL     1       7.268   6.635  17.064  0.00  0.00    +0.000 A 
ATOM      5  N   UNL     1       7.699   7.873  16.930  0.00  0.00    +0.000 NA
ATOM      6  C   UNL     1       8.263   8.349  18.120  0.00  0.00    +0.000 A 
ATOM      7  C   UNL     1       8.322   7.400  19.125  0.00  0.00    +0.000 A 
ATOM      8  S   UNL     1       7.607   5.941  18.609  0.00  0.00    +0.000 S 
ATOM      9  H   UNL     1       6.744   6.439  15.147  0.00  0.00    +0.000 HD
ENDROOT
BRANCH   6  10
ATOM     10  C   UNL     1       8.748   9.762  18.250  0.00  0.00    +0.000 C 
ATOM     11  F   UNL     1       9.853  10.024  17.505  0.00  0.00    +0.000 F 
ATOM     12  F   UNL     1       7.796  10.652  17.864  0.00  0.00    +0.000 F 
ATOM     13  F   UNL     1       9.059  10.066  19.537  0.00  0.00    +0.000 F 
ENDBRANCH   6  10
BRANCH   2  14
ATOM     14  S   UNL     1       5.478   4.391  14.399  0.00  0.00    +0.000 S 
ATOM     15  H   UNL     1       5.111   3.131  14.645  0.00  0.00    +0.000 HD
ENDBRANCH   2  14
BRANCH   1  16
ATOM     16  C   UNL     1       4.472   3.198  17.079  0.00  0.00    +0.000 C 
BRANCH  16  17
ATOM     17  C   UNL     1       3.029   3.711  17.073  0.00  0.00    +0.000 C 
BRANCH  17  23
ATOM     18  C   UNL     1       2.222   6.010  20.073  0.00  0.00    +0.000 A 
ATOM     19  C   UNL     1       1.736   5.059  20.977  0.00  0.00    +0.000 A 
ATOM     20  C   UNL     1       1.697   3.712  20.626  0.00  0.00    +0.000 A 
ATOM     21  C   UNL     1       2.141   3.310  19.374  0.00  0.00    +0.000 A 
ATOM     22  F   UNL     1       2.059   2.010  19.058  0.00  0.00    +0.000 F 
ATOM     23  C   UNL     1       2.640   4.224  18.441  0.00  0.00    +0.000 A 
ATOM     24  C   UNL     1       2.675   5.585  18.803  0.00  0.00    +0.000 A 
ATOM     25 CL   UNL     1       3.254   6.772  17.672  0.00  0.00    +0.000 Cl
BRANCH  18  26
ATOM     26  O   UNL     1       2.278   7.357  20.340  0.00  0.00    +0.000 OA
BRANCH  26  28
ATOM     27  C   UNL     1       0.861   9.285  20.235  0.00  0.00    +0.000 C 
ATOM     28  C   UNL     1       1.126   7.961  20.926  0.00  0.00    +0.000 C 
ENDBRANCH  26  28
ENDBRANCH  18  26
ENDBRANCH  17  23
ENDBRANCH  16  17
ENDBRANCH   1  16
TORSDOF 7
ENDMDL
MODEL 2
REMARK VINA RESULT:      -6.8      3.879      6.043
REMARK  Name = 
REMARK  8 active torsions:
REMARK  status: ('A' for Active; 'I' for Inactive)
REMARK    1  A    between atoms: C_1  and  C_2
REMARK    2  A    between atoms: C_2  and  O_3
REMARK    3  A    between atoms: O_3  and  C_4
REMARK    4  A    between atoms: C_9  and  C_10
REMARK    5  A    between atoms: C_10  and  C_11
REMARK    6  A    between atoms: C_11  and  N_12
REMARK    7  A    between atoms: C_13  and  S_14
REMARK    8  A    between atoms: C_18  and  C_19
REMARK                            x       y       z     vdW  Elec       q    Type
REMARK                         _______ _______ _______ _____ _____    ______ ____
ROOT
ATOM      1  N   UNL     1       2.230   6.338  19.752  0.00  0.00    +0.000 NA
ATOM      2  C   UNL     1       2.665   5.134  19.849  0.00  0.00    +0.000 C 
ATOM      3  N   UNL     1       3.519   4.537  18.960  0.00  0.00    +0.000 N 
ATOM      4  C   UNL     1       4.165   5.047  17.892  0.00  0.00    +0.000 A 
ATOM      5  N   UNL     1       4.619   4.271  16.928  0.00  0.00    +0.000 NA
ATOM      6  C   UNL     1       5.240   5.019  15.920  0.00  0.00    +0.000 A 
ATOM      7  C   UNL     1       5.316   6.372  16.200  0.00  0.00    +0.000 A 
ATOM      8  S   UNL     1       4.549   6.718  17.682  0.00  0.00    +0.000 S 
ATOM      9  H   UNL     1       3.562   3.533  19.046  0.00  0.00    +0.000 HD
ENDROOT
BRANCH   6  10
ATOM     10  C   UNL     1       5.761   4.373  14.671  0.00  0.00    +0.000 C 
ATOM     11  F   UNL     1       6.352   3.171  14.891  0.00  0.00    +0.000 F 
ATOM     12  F   UNL     1       4.767   4.162  13.768  0.00  0.00    +0.000 F 
ATOM     13  F   UNL     1       6.682   5.158  14.052  0.00  0.00    +0.000 F 
ENDBRANCH   6  10
BRANCH   2  14
ATOM     14  S   UNL     1       2.222   4.005  21.129  0.00  0.00    +0.000 S 
ATOM     15  H   UNL     1       2.365   4.819  22.179  0.00  0.00    +0.000 HD
ENDBRANCH   2  14
BRANCH   1  16
ATOM     16  C   UNL     1       1.296   6.932  20.692  0.00  0.00    +0.000 C 
BRANCH  16  17
ATOM     17  C   UNL     1       1.880   8.248  21.217  0.00  0.00    +0.000 C 
BRANCH  17  23
ATOM     18  C   UNL     1      -0.432  10.948  19.700  0.00  0.00    +0.000 A 
ATOM     19  C   UNL     1      -1.097  11.369  20.857  0.00  0.00    +0.000 A 
ATOM     20  C   UNL     1      -0.782  10.807  22.091  0.00  0.00    +0.000 A 
ATOM     21  C   UNL     1       0.194   9.824  22.175  0.00  0.00    +0.000 A 
ATOM     22  F   UNL     1       0.448   9.281  23.375  0.00  0.00    +0.000 F 
ATOM     23  C   UNL     1       0.888   9.376  21.047  0.00  0.00    +0.000 A 
ATOM     24  C   UNL     1       0.564   9.949  19.802  0.00  0.00    +0.000 A 
ATOM     25 CL   UNL     1       1.370   9.410  18.359  0.00  0.00    +0.000 Cl
BRANCH  18  26
ATOM     26  O   UNL     1      -0.695  11.444  18.445  0.00  0.00    +0.000 OA
BRANCH  26  28
ATOM     27  C   UNL     1      -2.125  10.048  17.127  0.00  0.00    +0.000 C 
ATOM     28  C   UNL     1      -2.029  11.316  17.954  0.00  0.00    +0.000 C 
ENDBRANCH  26  28
ENDBRANCH  18  26
ENDBRANCH  17  23
ENDBRANCH  16  17
ENDBRANCH   1  16
TORSDOF 7
ENDMDL
MODEL 3
REMARK VINA RESULT:      -6.6      2.578      3.885
REMARK  Name = 
REMARK  8 active torsions:
REMARK  status: ('A' for Active; 'I' for Inactive)
REMARK    1  A    between atoms: C_1  and  C_2
REMARK    2  A    between atoms: C_2  and  O_3
REMARK    3  A    between atoms: O_3  and  C_4
REMARK    4  A    between atoms: C_9  and  C_10
REMARK    5  A    between atoms: C_10  and  C_11
REMARK    6  A    between atoms: C_11  and  N_12
REMARK    7  A    between atoms: C_13  and  S_14
REMARK    8  A    between atoms: C_18  and  C_19
REMARK                            x       y       z     vdW  Elec       q    Type
REMARK                         _______ _______ _______ _____ _____    ______ ____
ROOT
ATOM      1  N   UNL     1       7.474   7.297  17.053  0.00  0.00    +0.000 NA
ATOM      2  C   UNL     1       7.879   7.128  18.260  0.00  0.00    +0.000 C 
ATOM      3  N   UNL     1       8.535   8.073  19.004  0.00  0.00    +0.000 N 
ATOM      4  C   UNL     1       8.812   9.363  18.730  0.00  0.00    +0.000 A 
ATOM      5  N   UNL     1       9.775  10.008  19.357  0.00  0.00    +0.000 NA
ATOM      6  C   UNL     1       9.889  11.327  18.900  0.00  0.00    +0.000 A 
ATOM      7  C   UNL     1       8.924  11.679  17.974  0.00  0.00    +0.000 A 
ATOM      8  S   UNL     1       7.923  10.344  17.620  0.00  0.00    +0.000 S 
ATOM      9  H   UNL     1       8.993   7.702  19.823  0.00  0.00    +0.000 HD
ENDROOT
BRANCH   6  10
ATOM     10  C   UNL     1      10.970  12.240  19.397  0.00  0.00    +0.000 C 
ATOM     11  F   UNL     1      11.567  11.801  20.535  0.00  0.00    +0.000 F 
ATOM     12  F   UNL     1      11.955  12.394  18.472  0.00  0.00    +0.000 F 
ATOM     13  F   UNL     1      10.490  13.485  19.657  0.00  0.00    +0.000 F 
ENDBRANCH   6  10
BRANCH   2  14
ATOM     14  S   UNL     1       7.697   5.637  19.183  0.00  0.00    +0.000 S 
ATOM     15  H   UNL     1       8.573   4.877  18.519  0.00  0.00    +0.000 HD
ENDBRANCH   2  14
BRANCH   1  16
ATOM     16  C   UNL     1       6.811   6.263  16.277  0.00  0.00    +0.000 C 
BRANCH  16  17
ATOM     17  C   UNL     1       5.306   6.545  16.247  0.00  0.00    +0.000 C 
BRANCH  17  23
ATOM     18  C   UNL     1       2.760   4.555  18.367  0.00  0.00    +0.000 A 
ATOM     19  C   UNL     1       3.095   3.252  17.980  0.00  0.00    +0.000 A 
ATOM     20  C   UNL     1       4.132   3.033  17.077  0.00  0.00    +0.000 A 
ATOM     21  C   UNL     1       4.837   4.110  16.558  0.00  0.00    +0.000 A 
ATOM     22  F   UNL     1       5.807   3.864  15.666  0.00  0.00    +0.000 F 
ATOM     23  C   UNL     1       4.541   5.428  16.920  0.00  0.00    +0.000 A 
ATOM     24  C   UNL     1       3.490   5.642  17.833  0.00  0.00    +0.000 A 
ATOM     25 CL   UNL     1       3.055   7.260  18.296  0.00  0.00    +0.000 Cl
BRANCH  18  26
ATOM     26  O   UNL     1       1.741   4.853  19.240  0.00  0.00    +0.000 OA
BRANCH  26  28
ATOM     27  C   UNL     1       1.274   3.410  21.093  0.00  0.00    +0.000 C 
ATOM     28  C   UNL     1       1.992   4.664  20.633  0.00  0.00    +0.000 C 
ENDBRANCH  26  28
ENDBRANCH  18  26
ENDBRANCH  17  23
ENDBRANCH  16  17
ENDBRANCH   1  16
TORSDOF 7
ENDMDL
MODEL 4
REMARK VINA RESULT:      -6.6      3.915      6.114
REMARK  Name = 
REMARK  8 active torsions:
REMARK  status: ('A' for Active; 'I' for Inactive)
REMARK    1  A    between atoms: C_1  and  C_2
REMARK    2  A    between atoms: C_2  and  O_3
REMARK    3  A    between atoms: O_3  and  C_4
REMARK    4  A    between atoms: C_9  and  C_10
REMARK    5  A    between atoms: C_10  and  C_11
REMARK    6  A    between atoms: C_11  and  N_12
REMARK    7  A    between atoms: C_13  and  S_14
REMARK    8  A    between atoms: C_18  and  C_19
REMARK                            x       y       z     vdW  Elec       q    Type
REMARK                         _______ _______ _______ _____ _____    ______ ____
ROOT
ATOM      1  N   UNL     1       2.123   6.418  19.749  0.00  0.00    +0.000 NA
ATOM      2  C   UNL     1       2.618   5.241  19.887  0.00  0.00    +0.000 C 
ATOM      3  N   UNL     1       3.499   4.656  19.018  0.00  0.00    +0.000 N 
ATOM      4  C   UNL     1       4.119   5.159  17.931  0.00  0.00    +0.000 A 
ATOM      5  N   UNL     1       4.609   4.373  16.994  0.00  0.00    +0.000 NA
ATOM      6  C   UNL     1       5.192   5.114  15.958  0.00  0.00    +0.000 A 
ATOM      7  C   UNL     1       5.202   6.478  16.190  0.00  0.00    +0.000 A 
ATOM      8  S   UNL     1       4.420   6.838  17.662  0.00  0.00    +0.000 S 
ATOM      9  H   UNL     1       3.592   3.659  19.139  0.00  0.00    +0.000 HD
ENDROOT
BRANCH   6  10
ATOM     10  C   UNL     1       5.744   4.452  14.732  0.00  0.00    +0.000 C 
ATOM     11  F   UNL     1       6.732   5.163  14.132  0.00  0.00    +0.000 F 
ATOM     12  F   UNL     1       6.262   3.227  15.019  0.00  0.00    +0.000 F 
ATOM     13  F   UNL     1       4.779   4.250  13.797  0.00  0.00    +0.000 F 
ENDBRANCH   6  10
BRANCH   2  14
ATOM     14  S   UNL     1       2.232   4.137  21.207  0.00  0.00    +0.000 S 
ATOM     15  H   UNL     1       3.253   3.287  21.068  0.00  0.00    +0.000 HD
ENDBRANCH   2  14
BRANCH   1  16
ATOM     16  C   UNL     1       1.162   6.998  20.670  0.00  0.00    +0.000 C 
BRANCH  16  17
ATOM     17  C   UNL     1       1.771   8.250  21.309  0.00  0.00    +0.000 C 
BRANCH  17  23
ATOM     18  C   UNL     1      -0.365  11.143  19.893  0.00  0.00    +0.000 A 
ATOM     19  C   UNL     1      -1.069  11.506  21.047  0.00  0.00    +0.000 A 
ATOM     20  C   UNL     1      -0.834  10.844  22.249  0.00  0.00    +0.000 A 
ATOM     21  C   UNL     1       0.100   9.819  22.304  0.00  0.00    +0.000 A 
ATOM     22  F   UNL     1       0.277   9.182  23.471  0.00  0.00    +0.000 F 
ATOM     23  C   UNL     1       0.831   9.426  21.179  0.00  0.00    +0.000 A 
ATOM     24  C   UNL     1       0.587  10.100  19.966  0.00  0.00    +0.000 A 
ATOM     25 CL   UNL     1       1.441   9.634  18.525  0.00  0.00    +0.000 Cl
BRANCH  18  26
ATOM     26  O   UNL     1      -0.551  11.738  18.668  0.00  0.00    +0.000 OA
BRANCH  26  28
ATOM     27  C   UNL     1       1.078  13.485  18.503  0.00  0.00    +0.000 C 
ATOM     28  C   UNL     1      -0.399  13.155  18.594  0.00  0.00    +0.000 C 
ENDBRANCH  26  28
ENDBRANCH  18  26
ENDBRANCH  17  23
ENDBRANCH  16  17
ENDBRANCH   1  16
TORSDOF 7
ENDMDL
MODEL 5
REMARK VINA RESULT:      -6.6      5.437      8.302
REMARK  Name = 
REMARK  8 active torsions:
REMARK  status: ('A' for Active; 'I' for Inactive)
REMARK    1  A    between atoms: C_1  and  C_2
REMARK    2  A    between atoms: C_2  and  O_3
REMARK    3  A    between atoms: O_3  and  C_4
REMARK    4  A    between atoms: C_9  and  C_10
REMARK    5  A    between atoms: C_10  and  C_11
REMARK    6  A    between atoms: C_11  and  N_12
REMARK    7  A    between atoms: C_13  and  S_14
REMARK    8  A    between atoms: C_18  and  C_19
REMARK                            x       y       z     vdW  Elec       q    Type
REMARK                         _______ _______ _______ _____ _____    ______ ____
ROOT
ATOM      1  N   UNL     1       0.587   9.701  20.297  0.00  0.00    +0.000 NA
ATOM      2  C   UNL     1       0.943   8.945  21.273  0.00  0.00    +0.000 C 
ATOM      3  N   UNL     1       1.544   7.722  21.135  0.00  0.00    +0.000 N 
ATOM      4  C   UNL     1       1.987   7.084  20.033  0.00  0.00    +0.000 A 
ATOM      5  N   UNL     1       2.168   5.779  20.019  0.00  0.00    +0.000 NA
ATOM      6  C   UNL     1       2.617   5.338  18.768  0.00  0.00    +0.000 A 
ATOM      7  C   UNL     1       2.850   6.364  17.869  0.00  0.00    +0.000 A 
ATOM      8  S   UNL     1       2.440   7.867  18.561  0.00  0.00    +0.000 S 
ATOM      9  H   UNL     1       1.530   7.163  21.975  0.00  0.00    +0.000 HD
ENDROOT
BRANCH   6  10
ATOM     10  C   UNL     1       2.814   3.882  18.472  0.00  0.00    +0.000 C 
ATOM     11  F   UNL     1       2.228   3.481  17.315  0.00  0.00    +0.000 F 
ATOM     12  F   UNL     1       4.134   3.570  18.372  0.00  0.00    +0.000 F 
ATOM     13  F   UNL     1       2.310   3.100  19.463  0.00  0.00    +0.000 F 
ENDBRANCH   6  10
BRANCH   2  14
ATOM     14  S   UNL     1       0.698   9.321  22.978  0.00  0.00    +0.000 S 
ATOM     15  H   UNL     1       1.942   9.111  23.415  0.00  0.00    +0.000 HD
ENDBRANCH   2  14
BRANCH   1  16
ATOM     16  C   UNL     1      -0.081  10.978  20.474  0.00  0.00    +0.000 C 
BRANCH  16  17
ATOM     17  C   UNL     1      -0.335  11.606  19.101  0.00  0.00    +0.000 C 
BRANCH  17  23
ATOM     18  C   UNL     1      -4.122  11.464  18.342  0.00  0.00    +0.000 A 
ATOM     19  C   UNL     1      -4.135  10.443  17.385  0.00  0.00    +0.000 A 
ATOM     20  C   UNL     1      -2.950   9.808  17.020  0.00  0.00    +0.000 A 
ATOM     21  C   UNL     1      -1.752  10.190  17.607  0.00  0.00    +0.000 A 
ATOM     22  F   UNL     1      -0.626   9.580  17.208  0.00  0.00    +0.000 F 
ATOM     23  C   UNL     1      -1.691  11.200  18.571  0.00  0.00    +0.000 A 
ATOM     24  C   UNL     1      -2.894  11.839  18.934  0.00  0.00    +0.000 A 
ATOM     25 CL   UNL     1      -2.878  13.125  20.104  0.00  0.00    +0.000 Cl
BRANCH  18  26
ATOM     26  O   UNL     1      -5.245  12.147  18.743  0.00  0.00    +0.000 OA
BRANCH  26  28
ATOM     27  C   UNL     1      -7.055  10.931  19.734  0.00  0.00    +0.000 C 
ATOM     28  C   UNL     1      -6.512  11.554  18.461  0.00  0.00    +0.000 C 
ENDBRANCH  26  28
ENDBRANCH  18  26
ENDBRANCH  17  23
ENDBRANCH  16  17
ENDBRANCH   1  16
TORSDOF 7
ENDMDL
MODEL 6
REMARK VINA RESULT:      -6.6      4.072      6.209
REMARK  Name = 
REMARK  8 active torsions:
REMARK  status: ('A' for Active; 'I' for Inactive)
REMARK    1  A    between atoms: C_1  and  C_2
REMARK    2  A    between atoms: C_2  and  O_3
REMARK    3  A    between atoms: O_3  and  C_4
REMARK    4  A    between atoms: C_9  and  C_10
REMARK    5  A    between atoms: C_10  and  C_11
REMARK    6  A    between atoms: C_11  and  N_12
REMARK    7  A    between atoms: C_13  and  S_14
REMARK    8  A    between atoms: C_18  and  C_19
REMARK                            x       y       z     vdW  Elec       q    Type
REMARK                         _______ _______ _______ _____ _____    ______ ____
ROOT
ATOM      1  N   UNL     1       2.196   6.330  19.761  0.00  0.00    +0.000 NA
ATOM      2  C   UNL     1       2.731   5.172  19.910  0.00  0.00    +0.000 C 
ATOM      3  N   UNL     1       3.618   4.603  19.035  0.00  0.00    +0.000 N 
ATOM      4  C   UNL     1       4.204   5.108  17.931  0.00  0.00    +0.000 A 
ATOM      5  N   UNL     1       4.706   4.324  16.999  0.00  0.00    +0.000 NA
ATOM      6  C   UNL     1       5.248   5.068  15.943  0.00  0.00    +0.000 A 
ATOM      7  C   UNL     1       5.216   6.435  16.154  0.00  0.00    +0.000 A 
ATOM      8  S   UNL     1       4.445   6.792  17.632  0.00  0.00    +0.000 S 
ATOM      9  H   UNL     1       3.746   3.611  19.171  0.00  0.00    +0.000 HD
ENDROOT
BRANCH   6  10
ATOM     10  C   UNL     1       5.803   4.404  14.718  0.00  0.00    +0.000 C 
ATOM     11  F   UNL     1       6.252   3.143  14.944  0.00  0.00    +0.000 F 
ATOM     12  F   UNL     1       4.869   4.317  13.734  0.00  0.00    +0.000 F 
ATOM     13  F   UNL     1       6.844   5.108  14.199  0.00  0.00    +0.000 F 
ENDBRANCH   6  10
BRANCH   2  14
ATOM     14  S   UNL     1       2.403   4.077  21.252  0.00  0.00    +0.000 S 
ATOM     15  H   UNL     1       2.261   4.981  22.225  0.00  0.00    +0.000 HD
ENDBRANCH   2  14
BRANCH   1  16
ATOM     16  C   UNL     1       1.230   6.892  20.688  0.00  0.00    +0.000 C 
BRANCH  16  17
ATOM     17  C   UNL     1       1.738   8.251  21.180  0.00  0.00    +0.000 C 
BRANCH  17  23
ATOM     18  C   UNL     1      -0.904  11.064  21.381  0.00  0.00    +0.000 A 
ATOM     19  C   UNL     1      -0.906  11.484  20.047  0.00  0.00    +0.000 A 
ATOM     20  C   UNL     1      -0.091  10.854  19.111  0.00  0.00    +0.000 A 
ATOM     21  C   UNL     1       0.729   9.804  19.503  0.00  0.00    +0.000 A 
ATOM     22  F   UNL     1       1.525   9.242  18.582  0.00  0.00    +0.000 F 
ATOM     23  C   UNL     1       0.760   9.347  20.823  0.00  0.00    +0.000 A 
ATOM     24  C   UNL     1      -0.068   9.990  21.765  0.00  0.00    +0.000 A 
ATOM     25 CL   UNL     1      -0.048   9.487  23.429  0.00  0.00    +0.000 Cl
BRANCH  18  26
ATOM     26  O   UNL     1      -1.669  11.645  22.365  0.00  0.00    +0.000 OA
BRANCH  26  28
ATOM     27  C   UNL     1      -2.345  13.672  23.445  0.00  0.00    +0.000 C 
ATOM     28  C   UNL     1      -1.171  12.838  22.968  0.00  0.00    +0.000 C 
ENDBRANCH  26  28
ENDBRANCH  18  26
ENDBRANCH  17  23
ENDBRANCH  16  17
ENDBRANCH   1  16
TORSDOF 7
ENDMDL
MODEL 7
REMARK VINA RESULT:      -6.5      5.552      8.261
REMARK  Name = 
REMARK  8 active torsions:
REMARK  status: ('A' for Active; 'I' for Inactive)
REMARK    1  A    between atoms: C_1  and  C_2
REMARK    2  A    between atoms: C_2  and  O_3
REMARK    3  A    between atoms: O_3  and  C_4
REMARK    4  A    between atoms: C_9  and  C_10
REMARK    5  A    between atoms: C_10  and  C_11
REMARK    6  A    between atoms: C_11  and  N_12
REMARK    7  A    between atoms: C_13  and  S_14
REMARK    8  A    between atoms: C_18  and  C_19
REMARK                            x       y       z     vdW  Elec       q    Type
REMARK                         _______ _______ _______ _____ _____    ______ ____
ROOT
ATOM      1  N   UNL     1       1.165   9.316  19.928  0.00  0.00    +0.000 NA
ATOM      2  C   UNL     1       1.239   8.580  20.977  0.00  0.00    +0.000 C 
ATOM      3  N   UNL     1       1.529   7.241  20.973  0.00  0.00    +0.000 N 
ATOM      4  C   UNL     1       1.892   6.428  19.961  0.00  0.00    +0.000 A 
ATOM      5  N   UNL     1       1.746   5.121  20.043  0.00  0.00    +0.000 NA
ATOM      6  C   UNL     1       2.176   4.484  18.872  0.00  0.00    +0.000 A 
ATOM      7  C   UNL     1       2.731   5.347  17.943  0.00  0.00    +0.000 A 
ATOM      8  S   UNL     1       2.648   6.956  18.501  0.00  0.00    +0.000 S 
ATOM      9  H   UNL     1       1.306   6.773  21.839  0.00  0.00    +0.000 HD
ENDROOT
BRANCH   6  10
ATOM     10  C   UNL     1       2.032   3.004  18.684  0.00  0.00    +0.000 C 
ATOM     11  F   UNL     1       2.781   2.274  19.551  0.00  0.00    +0.000 F 
ATOM     12  F   UNL     1       0.742   2.605  18.849  0.00  0.00    +0.000 F 
ATOM     13  F   UNL     1       2.394   2.623  17.431  0.00  0.00    +0.000 F 
ENDBRANCH   6  10
BRANCH   2  14
ATOM     14  S   UNL     1       0.951   9.142  22.623  0.00  0.00    +0.000 S 
ATOM     15  H   UNL     1       0.854  10.452  22.378  0.00  0.00    +0.000 HD
ENDBRANCH   2  14
BRANCH   1  16
ATOM     16  C   UNL     1       0.821  10.727  19.960  0.00  0.00    +0.000 C 
BRANCH  16  17
ATOM     17  C   UNL     1       0.286  11.145  18.587  0.00  0.00    +0.000 C 
BRANCH  17  23
ATOM     18  C   UNL     1      -3.412  12.092  19.191  0.00  0.00    +0.000 A 
ATOM     19  C   UNL     1      -4.036  11.154  18.362  0.00  0.00    +0.000 A 
ATOM     20  C   UNL     1      -3.275  10.229  17.651  0.00  0.00    +0.000 A 
ATOM     21  C   UNL     1      -1.892  10.239  17.763  0.00  0.00    +0.000 A 
ATOM     22  F   UNL     1      -1.189   9.356  17.039  0.00  0.00    +0.000 F 
ATOM     23  C   UNL     1      -1.225  11.154  18.584  0.00  0.00    +0.000 A 
ATOM     24  C   UNL     1      -2.002  12.087  19.299  0.00  0.00    +0.000 A 
ATOM     25 CL   UNL     1      -1.227  13.271  20.310  0.00  0.00    +0.000 Cl
BRANCH  18  26
ATOM     26  O   UNL     1      -4.092  13.045  19.912  0.00  0.00    +0.000 OA
BRANCH  26  28
ATOM     27  C   UNL     1      -4.218  12.712  22.280  0.00  0.00    +0.000 C 
ATOM     28  C   UNL     1      -4.951  12.590  20.957  0.00  0.00    +0.000 C 
ENDBRANCH  26  28
ENDBRANCH  18  26
ENDBRANCH  17  23
ENDBRANCH  16  17
ENDBRANCH   1  16
TORSDOF 7
ENDMDL
MODEL 8
REMARK VINA RESULT:      -6.5      2.818      4.144
REMARK  Name = 
REMARK  8 active torsions:
REMARK  status: ('A' for Active; 'I' for Inactive)
REMARK    1  A    between atoms: C_1  and  C_2
REMARK    2  A    between atoms: C_2  and  O_3
REMARK    3  A    between atoms: O_3  and  C_4
REMARK    4  A    between atoms: C_9  and  C_10
REMARK    5  A    between atoms: C_10  and  C_11
REMARK    6  A    between atoms: C_11  and  N_12
REMARK    7  A    between atoms: C_13  and  S_14
REMARK    8  A    between atoms: C_18  and  C_19
REMARK                            x       y       z     vdW  Elec       q    Type
REMARK                         _______ _______ _______ _____ _____    ______ ____
ROOT
ATOM      1  N   UNL     1       7.330   7.256  17.112  0.00  0.00    +0.000 NA
ATOM      2  C   UNL     1       7.817   7.098  18.290  0.00  0.00    +0.000 C 
ATOM      3  N   UNL     1       8.523   8.049  18.978  0.00  0.00    +0.000 N 
ATOM      4  C   UNL     1       8.780   9.337  18.675  0.00  0.00    +0.000 A 
ATOM      5  N   UNL     1       9.784   9.987  19.228  0.00  0.00    +0.000 NA
ATOM      6  C   UNL     1       9.866  11.302  18.752  0.00  0.00    +0.000 A 
ATOM      7  C   UNL     1       8.839  11.645  17.891  0.00  0.00    +0.000 A 
ATOM      8  S   UNL     1       7.817  10.308  17.619  0.00  0.00    +0.000 S 
ATOM      9  H   UNL     1       9.036   7.685  19.768  0.00  0.00    +0.000 HD
ENDROOT
BRANCH   6  10
ATOM     10  C   UNL     1      10.978  12.219  19.165  0.00  0.00    +0.000 C 
ATOM     11  F   UNL     1      11.812  12.549  18.146  0.00  0.00    +0.000 F 
ATOM     12  F   UNL     1      10.497  13.386  19.672  0.00  0.00    +0.000 F 
ATOM     13  F   UNL     1      11.745  11.664  20.140  0.00  0.00    +0.000 F 
ENDBRANCH   6  10
BRANCH   2  14
ATOM     14  S   UNL     1       7.700   5.615  19.236  0.00  0.00    +0.000 S 
ATOM     15  H   UNL     1       8.962   5.548  19.670  0.00  0.00    +0.000 HD
ENDBRANCH   2  14
BRANCH   1  16
ATOM     16  C   UNL     1       6.617   6.215  16.393  0.00  0.00    +0.000 C 
BRANCH  16  17
ATOM     17  C   UNL     1       5.184   6.685  16.121  0.00  0.00    +0.000 C 
BRANCH  17  23
ATOM     18  C   UNL     1       3.246   4.381  18.544  0.00  0.00    +0.000 A 
ATOM     19  C   UNL     1       2.566   5.345  19.296  0.00  0.00    +0.000 A 
ATOM     20  C   UNL     1       2.718   6.698  19.005  0.00  0.00    +0.000 A 
ATOM     21  C   UNL     1       3.548   7.093  17.965  0.00  0.00    +0.000 A 
ATOM     22  F   UNL     1       3.696   8.406  17.733  0.00  0.00    +0.000 F 
ATOM     23  C   UNL     1       4.242   6.165  17.183  0.00  0.00    +0.000 A 
ATOM     24  C   UNL     1       4.084   4.798  17.484  0.00  0.00    +0.000 A 
ATOM     25 CL   UNL     1       4.948   3.599  16.567  0.00  0.00    +0.000 Cl
BRANCH  18  26
ATOM     26  O   UNL     1       3.159   3.029  18.779  0.00  0.00    +0.000 OA
BRANCH  26  28
ATOM     27  C   UNL     1       0.882   2.292  18.731  0.00  0.00    +0.000 C 
ATOM     28  C   UNL     1       2.089   2.572  19.605  0.00  0.00    +0.000 C 
ENDBRANCH  26  28
ENDBRANCH  18  26
ENDBRANCH  17  23
ENDBRANCH  16  17
ENDBRANCH   1  16
TORSDOF 7
ENDMDL
MODEL 9
REMARK VINA RESULT:      -6.4      6.023      8.256
REMARK  Name = 
REMARK  8 active torsions:
REMARK  status: ('A' for Active; 'I' for Inactive)
REMARK    1  A    between atoms: C_1  and  C_2
REMARK    2  A    between atoms: C_2  and  O_3
REMARK    3  A    between atoms: O_3  and  C_4
REMARK    4  A    between atoms: C_9  and  C_10
REMARK    5  A    between atoms: C_10  and  C_11
REMARK    6  A    between atoms: C_11  and  N_12
REMARK    7  A    between atoms: C_13  and  S_14
REMARK    8  A    between atoms: C_18  and  C_19
REMARK                            x       y       z     vdW  Elec       q    Type
REMARK                         _______ _______ _______ _____ _____    ______ ____
ROOT
ATOM      1  N   UNL     1       1.367   9.074  19.311  0.00  0.00    +0.000 NA
ATOM      2  C   UNL     1       1.394  10.347  19.141  0.00  0.00    +0.000 C 
ATOM      3  N   UNL     1       0.727  11.254  19.921  0.00  0.00    +0.000 N 
ATOM      4  C   UNL     1       0.011  11.077  21.050  0.00  0.00    +0.000 A 
ATOM      5  N   UNL     1      -0.879  11.964  21.446  0.00  0.00    +0.000 NA
ATOM      6  C   UNL     1      -1.508  11.563  22.632  0.00  0.00    +0.000 A 
ATOM      7  C   UNL     1      -0.998  10.390  23.161  0.00  0.00    +0.000 A 
ATOM      8  S   UNL     1       0.210   9.752  22.141  0.00  0.00    +0.000 S 
ATOM      9  H   UNL     1       0.655  12.172  19.509  0.00  0.00    +0.000 HD
ENDROOT
BRANCH   6  10
ATOM     10  C   UNL     1      -2.622  12.361  23.239  0.00  0.00    +0.000 C 
ATOM     11  F   UNL     1      -2.195  13.462  23.909  0.00  0.00    +0.000 F 
ATOM     12  F   UNL     1      -3.497  12.794  22.292  0.00  0.00    +0.000 F 
ATOM     13  F   UNL     1      -3.345  11.619  24.118  0.00  0.00    +0.000 F 
ENDBRANCH   6  10
BRANCH   2  14
ATOM     14  S   UNL     1       2.268  11.171  17.851  0.00  0.00    +0.000 S 
ATOM     15  H   UNL     1       2.691  10.101  17.173  0.00  0.00    +0.000 HD
ENDBRANCH   2  14
BRANCH   1  16
ATOM     16  C   UNL     1       2.057   8.134  18.445  0.00  0.00    +0.000 C 
BRANCH  16  17
ATOM     17  C   UNL     1       2.635   6.999  19.295  0.00  0.00    +0.000 C 
BRANCH  17  23
ATOM     18  C   UNL     1       4.450   4.562  16.907  0.00  0.00    +0.000 A 
ATOM     19  C   UNL     1       3.587   3.464  16.987  0.00  0.00    +0.000 A 
ATOM     20  C   UNL     1       2.440   3.528  17.775  0.00  0.00    +0.000 A 
ATOM     21  C   UNL     1       2.152   4.685  18.484  0.00  0.00    +0.000 A 
ATOM     22  F   UNL     1       1.057   4.701  19.258  0.00  0.00    +0.000 F 
ATOM     23  C   UNL     1       2.982   5.809  18.430  0.00  0.00    +0.000 A 
ATOM     24  C   UNL     1       4.141   5.736  17.632  0.00  0.00    +0.000 A 
ATOM     25 CL   UNL     1       5.229   7.090  17.551  0.00  0.00    +0.000 Cl
BRANCH  18  26
ATOM     26  O   UNL     1       5.607   4.570  16.164  0.00  0.00    +0.000 OA
BRANCH  26  28
ATOM     27  C   UNL     1       6.206   3.874  13.953  0.00  0.00    +0.000 C 
ATOM     28  C   UNL     1       5.502   4.928  14.787  0.00  0.00    +0.000 C 
ENDBRANCH  26  28
ENDBRANCH  18  26
ENDBRANCH  17  23
ENDBRANCH  16  17
ENDBRANCH   1  16
TORSDOF 7
ENDMDL
