MODEL 1
REMARK VINA RESULT:      -6.2      0.000      0.000
REMARK  Name = 
REMARK  8 active torsions:
REMARK  status: ('A' for Active; 'I' for Inactive)
REMARK    1  A    between atoms: C_1  and  C_2
REMARK    2  A    between atoms: C_2  and  C_3
REMARK    3  A    between atoms: C_3  and  C_4
REMARK    4  A    between atoms: C_4  and  C_5
REMARK    5  A    between atoms: C_5  and  C_6
REMARK    6  A    between atoms: C_6  and  C_7
REMARK    7  A    between atoms: C_10  and  C_11
REMARK    8  A    between atoms: C_11  and  C_13
REMARK                            x       y       z     vdW  Elec       q    Type
REMARK                         _______ _______ _______ _____ _____    ______ ____
ROOT
ATOM      1  C   UNL     1       3.566   5.472  18.958  0.00  0.00    +0.000 A 
ATOM      2  C   UNL     1       4.850   5.189  19.444  0.00  0.00    +0.000 A 
ATOM      3  C   UNL     1       5.867   4.802  18.572  0.00  0.00    +0.000 A 
ATOM      4  C   UNL     1       5.615   4.690  17.200  0.00  0.00    +0.000 A 
ATOM      5  C   UNL     1       4.325   4.925  16.715  0.00  0.00    +0.000 A 
ATOM      6  C   UNL     1       3.306   5.314  17.592  0.00  0.00    +0.000 A 
ENDROOT
BRANCH   4   7
ATOM      7  C   UNL     1       6.755   4.346  16.305  0.00  0.00    +0.000 C 
ATOM      8  O   UNL     1       7.905   4.429  16.736  0.00  0.00    +0.000 OA
BRANCH   7   9
ATOM      9  C   UNL     1       6.467   3.972  14.871  0.00  0.00    +0.000 C 
ATOM     10 CL   UNL     1       7.308   5.084  13.782  0.00  0.00    +0.000 Cl
ENDBRANCH   7   9
ENDBRANCH   4   7
BRANCH   1  11
ATOM     11  C   UNL     1       2.496   5.993  19.892  0.00  0.00    +0.000 C 
BRANCH  11  12
ATOM     12  C   UNL     1       2.050   4.888  20.854  0.00  0.00    +0.000 C 
BRANCH  12  13
ATOM     13  C   UNL     1       0.963   3.995  20.263  0.00  0.00    +0.000 C 
BRANCH  13  14
ATOM     14  C   UNL     1       1.463   2.553  20.179  0.00  0.00    +0.000 C 
BRANCH  14  16
ATOM     15  C   UNL     1       3.244   1.757  18.598  0.00  0.00    +0.000 C 
ATOM     16  C   UNL     1       1.780   2.142  18.744  0.00  0.00    +0.000 C 
ENDBRANCH  14  16
ENDBRANCH  13  14
ENDBRANCH  12  13
ENDBRANCH  11  12
ENDBRANCH   1  11
TORSDOF 7
ENDMDL
MODEL 2
REMARK VINA RESULT:      -6.0      2.014      2.935
REMARK  Name = 
REMARK  8 active torsions:
REMARK  status: ('A' for Active; 'I' for Inactive)
REMARK    1  A    between atoms: C_1  and  C_2
REMARK    2  A    between atoms: C_2  and  C_3
REMARK    3  A    between atoms: C_3  and  C_4
REMARK    4  A    between atoms: C_4  and  C_5
REMARK    5  A    between atoms: C_5  and  C_6
REMARK    6  A    between atoms: C_6  and  C_7
REMARK    7  A    between atoms: C_10  and  C_11
REMARK    8  A    between atoms: C_11  and  C_13
REMARK                            x       y       z     vdW  Elec       q    Type
REMARK                         _______ _______ _______ _____ _____    ______ ____
ROOT
ATOM      1  C   UNL     1       3.119   4.673  17.480  0.00  0.00    +0.000 A 
ATOM      2  C   UNL     1       4.187   3.893  17.013  0.00  0.00    +0.000 A 
ATOM      3  C   UNL     1       5.451   4.455  16.840  0.00  0.00    +0.000 A 
ATOM      4  C   UNL     1       5.667   5.808  17.128  0.00  0.00    +0.000 A 
ATOM      5  C   UNL     1       4.596   6.602  17.548  0.00  0.00    +0.000 A 
ATOM      6  C   UNL     1       3.328   6.035  17.722  0.00  0.00    +0.000 A 
ENDROOT
BRANCH   4   7
ATOM      7  C   UNL     1       7.052   6.339  16.996  0.00  0.00    +0.000 C 
ATOM      8  O   UNL     1       7.629   6.253  15.912  0.00  0.00    +0.000 OA
BRANCH   7   9
ATOM      9  C   UNL     1       7.733   6.905  18.218  0.00  0.00    +0.000 C 
ATOM     10 CL   UNL     1       7.772   5.687  19.500  0.00  0.00    +0.000 Cl
ENDBRANCH   7   9
ENDBRANCH   4   7
BRANCH   1  11
ATOM     11  C   UNL     1       1.778   4.035  17.767  0.00  0.00    +0.000 C 
BRANCH  11  12
ATOM     12  C   UNL     1       1.929   2.516  17.883  0.00  0.00    +0.000 C 
BRANCH  12  13
ATOM     13  C   UNL     1       1.827   2.021  19.323  0.00  0.00    +0.000 C 
BRANCH  13  14
ATOM     14  C   UNL     1       0.987   2.996  20.149  0.00  0.00    +0.000 C 
BRANCH  14  16
ATOM     15  C   UNL     1       2.377   4.837  21.139  0.00  0.00    +0.000 C 
ATOM     16  C   UNL     1       1.733   3.483  21.389  0.00  0.00    +0.000 C 
ENDBRANCH  14  16
ENDBRANCH  13  14
ENDBRANCH  12  13
ENDBRANCH  11  12
ENDBRANCH   1  11
TORSDOF 7
ENDMDL
MODEL 3
REMARK VINA RESULT:      -6.0      2.061      2.191
REMARK  Name = 
REMARK  8 active torsions:
REMARK  status: ('A' for Active; 'I' for Inactive)
REMARK    1  A    between atoms: C_1  and  C_2
REMARK    2  A    between atoms: C_2  and  C_3
REMARK    3  A    between atoms: C_3  and  C_4
REMARK    4  A    between atoms: C_4  and  C_5
REMARK    5  A    between atoms: C_5  and  C_6
REMARK    6  A    between atoms: C_6  and  C_7
REMARK    7  A    between atoms: C_10  and  C_11
REMARK    8  A    between atoms: C_11  and  C_13
REMARK                            x       y       z     vdW  Elec       q    Type
REMARK                         _______ _______ _______ _____ _____    ______ ____
ROOT
ATOM      1  C   UNL     1       2.856   5.751  19.607  0.00  0.00    +0.000 A 
ATOM      2  C   UNL     1       4.126   5.162  19.685  0.00  0.00    +0.000 A 
ATOM      3  C   UNL     1       5.085   5.417  18.706  0.00  0.00    +0.000 A 
ATOM      4  C   UNL     1       4.789   6.263  17.632  0.00  0.00    +0.000 A 
ATOM      5  C   UNL     1       3.509   6.816  17.523  0.00  0.00    +0.000 A 
ATOM      6  C   UNL     1       2.548   6.559  18.507  0.00  0.00    +0.000 A 
ENDROOT
BRANCH   4   7
ATOM      7  C   UNL     1       5.874   6.560  16.655  0.00  0.00    +0.000 C 
ATOM      8  O   UNL     1       5.582   6.775  15.478  0.00  0.00    +0.000 OA
BRANCH   7   9
ATOM      9  C   UNL     1       7.307   6.519  17.125  0.00  0.00    +0.000 C 
ATOM     10 CL   UNL     1       7.824   8.140  17.609  0.00  0.00    +0.000 Cl
ENDBRANCH   7   9
ENDBRANCH   4   7
BRANCH   1  11
ATOM     11  C   UNL     1       1.856   5.556  20.725  0.00  0.00    +0.000 C 
BRANCH  11  12
ATOM     12  C   UNL     1       0.956   4.354  20.427  0.00  0.00    +0.000 C 
BRANCH  12  13
ATOM     13  C   UNL     1       1.558   3.034  20.903  0.00  0.00    +0.000 C 
BRANCH  13  14
ATOM     14  C   UNL     1       1.603   2.036  19.745  0.00  0.00    +0.000 C 
BRANCH  14  16
ATOM     15  C   UNL     1       2.551   2.653  17.504  0.00  0.00    +0.000 C 
ATOM     16  C   UNL     1       1.326   2.707  18.403  0.00  0.00    +0.000 C 
ENDBRANCH  14  16
ENDBRANCH  13  14
ENDBRANCH  12  13
ENDBRANCH  11  12
ENDBRANCH   1  11
TORSDOF 7
ENDMDL
MODEL 4
REMARK VINA RESULT:      -6.0      0.785      1.416
REMARK  Name = 
REMARK  8 active torsions:
REMARK  status: ('A' for Active; 'I' for Inactive)
REMARK    1  A    between atoms: C_1  and  C_2
REMARK    2  A    between atoms: C_2  and  C_3
REMARK    3  A    between atoms: C_3  and  C_4
REMARK    4  A    between atoms: C_4  and  C_5
REMARK    5  A    between atoms: C_5  and  C_6
REMARK    6  A    between atoms: C_6  and  C_7
REMARK    7  A    between atoms: C_10  and  C_11
REMARK    8  A    between atoms: C_11  and  C_13
REMARK                            x       y       z     vdW  Elec       q    Type
REMARK                         _______ _______ _______ _____ _____    ______ ____
ROOT
ATOM      1  C   UNL     1       3.630   5.609  18.987  0.00  0.00    +0.000 A 
ATOM      2  C   UNL     1       3.625   5.929  17.621  0.00  0.00    +0.000 A 
ATOM      3  C   UNL     1       4.737   5.653  16.826  0.00  0.00    +0.000 A 
ATOM      4  C   UNL     1       5.873   5.056  17.384  0.00  0.00    +0.000 A 
ATOM      5  C   UNL     1       5.902   4.778  18.755  0.00  0.00    +0.000 A 
ATOM      6  C   UNL     1       4.785   5.055  19.551  0.00  0.00    +0.000 A 
ENDROOT
BRANCH   4   7
ATOM      7  C   UNL     1       7.003   4.716  16.476  0.00  0.00    +0.000 C 
ATOM      8  O   UNL     1       8.027   4.222  16.948  0.00  0.00    +0.000 OA
BRANCH   7   9
ATOM      9  C   UNL     1       6.885   5.053  15.010  0.00  0.00    +0.000 C 
ATOM     10 CL   UNL     1       6.173   3.689  14.138  0.00  0.00    +0.000 Cl
ENDBRANCH   7   9
ENDBRANCH   4   7
BRANCH   1  11
ATOM     11  C   UNL     1       2.385   5.812  19.821  0.00  0.00    +0.000 C 
BRANCH  11  12
ATOM     12  C   UNL     1       1.353   4.726  19.505  0.00  0.00    +0.000 C 
BRANCH  12  13
ATOM     13  C   UNL     1       1.313   3.625  20.561  0.00  0.00    +0.000 C 
BRANCH  13  14
ATOM     14  C   UNL     1       1.820   2.312  19.964  0.00  0.00    +0.000 C 
BRANCH  14  16
ATOM     15  C   UNL     1       3.276   1.967  17.948  0.00  0.00    +0.000 C 
ATOM     16  C   UNL     1       1.895   2.370  18.440  0.00  0.00    +0.000 C 
ENDBRANCH  14  16
ENDBRANCH  13  14
ENDBRANCH  12  13
ENDBRANCH  11  12
ENDBRANCH   1  11
TORSDOF 7
ENDMDL
MODEL 5
REMARK VINA RESULT:      -6.0      1.328      1.759
REMARK  Name = 
REMARK  8 active torsions:
REMARK  status: ('A' for Active; 'I' for Inactive)
REMARK    1  A    between atoms: C_1  and  C_2
REMARK    2  A    between atoms: C_2  and  C_3
REMARK    3  A    between atoms: C_3  and  C_4
REMARK    4  A    between atoms: C_4  and  C_5
REMARK    5  A    between atoms: C_5  and  C_6
REMARK    6  A    between atoms: C_6  and  C_7
REMARK    7  A    between atoms: C_10  and  C_11
REMARK    8  A    between atoms: C_11  and  C_13
REMARK                            x       y       z     vdW  Elec       q    Type
REMARK                         _______ _______ _______ _____ _____    ______ ____
ROOT
ATOM      1  C   UNL     1       3.282   5.803  19.277  0.00  0.00    +0.000 A 
ATOM      2  C   UNL     1       3.307   6.652  18.160  0.00  0.00    +0.000 A 
ATOM      3  C   UNL     1       4.438   6.716  17.346  0.00  0.00    +0.000 A 
ATOM      4  C   UNL     1       5.562   5.935  17.637  0.00  0.00    +0.000 A 
ATOM      5  C   UNL     1       5.561   5.123  18.776  0.00  0.00    +0.000 A 
ATOM      6  C   UNL     1       4.425   5.060  19.591  0.00  0.00    +0.000 A 
ENDROOT
BRANCH   4   7
ATOM      7  C   UNL     1       6.714   5.987  16.694  0.00  0.00    +0.000 C 
ATOM      8  O   UNL     1       7.384   7.016  16.618  0.00  0.00    +0.000 OA
BRANCH   7   9
ATOM      9  C   UNL     1       6.981   4.795  15.807  0.00  0.00    +0.000 C 
ATOM     10 CL   UNL     1       5.474   4.262  15.050  0.00  0.00    +0.000 Cl
ENDBRANCH   7   9
ENDBRANCH   4   7
BRANCH   1  11
ATOM     11  C   UNL     1       2.018   5.658  20.093  0.00  0.00    +0.000 C 
BRANCH  11  12
ATOM     12  C   UNL     1       2.213   4.607  21.190  0.00  0.00    +0.000 C 
BRANCH  12  13
ATOM     13  C   UNL     1       1.386   3.347  20.953  0.00  0.00    +0.000 C 
BRANCH  13  14
ATOM     14  C   UNL     1       0.782   3.377  19.549  0.00  0.00    +0.000 C 
BRANCH  14  16
ATOM     15  C   UNL     1       2.338   2.539  17.767  0.00  0.00    +0.000 C 
ATOM     16  C   UNL     1       1.210   2.171  18.717  0.00  0.00    +0.000 C 
ENDBRANCH  14  16
ENDBRANCH  13  14
ENDBRANCH  12  13
ENDBRANCH  11  12
ENDBRANCH   1  11
TORSDOF 7
ENDMDL
MODEL 6
REMARK VINA RESULT:      -6.0      1.291      1.373
REMARK  Name = 
REMARK  8 active torsions:
REMARK  status: ('A' for Active; 'I' for Inactive)
REMARK    1  A    between atoms: C_1  and  C_2
REMARK    2  A    between atoms: C_2  and  C_3
REMARK    3  A    between atoms: C_3  and  C_4
REMARK    4  A    between atoms: C_4  and  C_5
REMARK    5  A    between atoms: C_5  and  C_6
REMARK    6  A    between atoms: C_6  and  C_7
REMARK    7  A    between atoms: C_10  and  C_11
REMARK    8  A    between atoms: C_11  and  C_13
REMARK                            x       y       z     vdW  Elec       q    Type
REMARK                         _______ _______ _______ _____ _____    ______ ____
ROOT
ATOM      1  C   UNL     1       3.320   6.111  19.120  0.00  0.00    +0.000 A 
ATOM      2  C   UNL     1       4.396   5.271  19.444  0.00  0.00    +0.000 A 
ATOM      3  C   UNL     1       5.516   5.205  18.617  0.00  0.00    +0.000 A 
ATOM      4  C   UNL     1       5.578   5.975  17.450  0.00  0.00    +0.000 A 
ATOM      5  C   UNL     1       4.490   6.778  17.096  0.00  0.00    +0.000 A 
ATOM      6  C   UNL     1       3.366   6.844  17.929  0.00  0.00    +0.000 A 
ENDROOT
BRANCH   4   7
ATOM      7  C   UNL     1       6.829   5.922  16.642  0.00  0.00    +0.000 C 
ATOM      8  O   UNL     1       7.642   6.842  16.732  0.00  0.00    +0.000 OA
BRANCH   7   9
ATOM      9  C   UNL     1       7.027   4.773  15.684  0.00  0.00    +0.000 C 
ATOM     10 CL   UNL     1       5.463   4.052  15.281  0.00  0.00    +0.000 Cl
ENDBRANCH   7   9
ENDBRANCH   4   7
BRANCH   1  11
ATOM     11  C   UNL     1       2.156   6.259  20.073  0.00  0.00    +0.000 C 
BRANCH  11  12
ATOM     12  C   UNL     1       1.996   4.991  20.915  0.00  0.00    +0.000 C 
BRANCH  12  13
ATOM     13  C   UNL     1       0.989   4.011  20.322  0.00  0.00    +0.000 C 
BRANCH  13  14
ATOM     14  C   UNL     1       1.524   2.583  20.434  0.00  0.00    +0.000 C 
BRANCH  14  16
ATOM     15  C   UNL     1       1.845   2.963  17.974  0.00  0.00    +0.000 C 
ATOM     16  C   UNL     1       2.295   2.162  19.185  0.00  0.00    +0.000 C 
ENDBRANCH  14  16
ENDBRANCH  13  14
ENDBRANCH  12  13
ENDBRANCH  11  12
ENDBRANCH   1  11
TORSDOF 7
ENDMDL
MODEL 7
REMARK VINA RESULT:      -5.9      3.513      6.217
REMARK  Name = 
REMARK  8 active torsions:
REMARK  status: ('A' for Active; 'I' for Inactive)
REMARK    1  A    between atoms: C_1  and  C_2
REMARK    2  A    between atoms: C_2  and  C_3
REMARK    3  A    between atoms: C_3  and  C_4
REMARK    4  A    between atoms: C_4  and  C_5
REMARK    5  A    between atoms: C_5  and  C_6
REMARK    6  A    between atoms: C_6  and  C_7
REMARK    7  A    between atoms: C_10  and  C_11
REMARK    8  A    between atoms: C_11  and  C_13
REMARK                            x       y       z     vdW  Elec       q    Type
REMARK                         _______ _______ _______ _____ _____    ______ ____
ROOT
ATOM      1  C   UNL     1       4.845   5.231  16.945  0.00  0.00    +0.000 A 
ATOM      2  C   UNL     1       3.820   6.026  17.478  0.00  0.00    +0.000 A 
ATOM      3  C   UNL     1       2.711   5.437  18.084  0.00  0.00    +0.000 A 
ATOM      4  C   UNL     1       2.607   4.044  18.164  0.00  0.00    +0.000 A 
ATOM      5  C   UNL     1       3.602   3.245  17.592  0.00  0.00    +0.000 A 
ATOM      6  C   UNL     1       4.715   3.838  16.985  0.00  0.00    +0.000 A 
ENDROOT
BRANCH   4   7
ATOM      7  C   UNL     1       1.438   3.470  18.886  0.00  0.00    +0.000 C 
ATOM      8  O   UNL     1       0.781   2.576  18.353  0.00  0.00    +0.000 OA
BRANCH   7   9
ATOM      9  C   UNL     1       1.053   4.051  20.225  0.00  0.00    +0.000 C 
ATOM     10 CL   UNL     1       1.234   2.822  21.485  0.00  0.00    +0.000 Cl
ENDBRANCH   7   9
ENDBRANCH   4   7
BRANCH   1  11
ATOM     11  C   UNL     1       6.094   5.874  16.384  0.00  0.00    +0.000 C 
BRANCH  11  12
ATOM     12  C   UNL     1       6.951   4.828  15.666  0.00  0.00    +0.000 C 
BRANCH  12  13
ATOM     13  C   UNL     1       6.767   4.854  14.151  0.00  0.00    +0.000 C 
BRANCH  13  14
ATOM     14  C   UNL     1       5.890   3.679  13.714  0.00  0.00    +0.000 C 
BRANCH  14  16
ATOM     15  C   UNL     1       4.593   3.265  11.605  0.00  0.00    +0.000 C 
ATOM     16  C   UNL     1       5.978   3.430  12.211  0.00  0.00    +0.000 C 
ENDBRANCH  14  16
ENDBRANCH  13  14
ENDBRANCH  12  13
ENDBRANCH  11  12
ENDBRANCH   1  11
TORSDOF 7
ENDMDL
MODEL 8
REMARK VINA RESULT:      -5.9      2.047      2.625
REMARK  Name = 
REMARK  8 active torsions:
REMARK  status: ('A' for Active; 'I' for Inactive)
REMARK    1  A    between atoms: C_1  and  C_2
REMARK    2  A    between atoms: C_2  and  C_3
REMARK    3  A    between atoms: C_3  and  C_4
REMARK    4  A    between atoms: C_4  and  C_5
REMARK    5  A    between atoms: C_5  and  C_6
REMARK    6  A    between atoms: C_6  and  C_7
REMARK    7  A    between atoms: C_10  and  C_11
REMARK    8  A    between atoms: C_11  and  C_13
REMARK                            x       y       z     vdW  Elec       q    Type
REMARK                         _______ _______ _______ _____ _____    ______ ____
ROOT
ATOM      1  C   UNL     1       2.720   4.498  17.542  0.00  0.00    +0.000 A 
ATOM      2  C   UNL     1       3.594   3.591  16.924  0.00  0.00    +0.000 A 
ATOM      3  C   UNL     1       4.953   3.881  16.815  0.00  0.00    +0.000 A 
ATOM      4  C   UNL     1       5.461   5.084  17.320  0.00  0.00    +0.000 A 
ATOM      5  C   UNL     1       4.588   6.013  17.895  0.00  0.00    +0.000 A 
ATOM      6  C   UNL     1       3.224   5.719  18.004  0.00  0.00    +0.000 A 
ENDROOT
BRANCH   4   7
ATOM      7  C   UNL     1       6.931   5.310  17.243  0.00  0.00    +0.000 C 
ATOM      8  O   UNL     1       7.614   4.589  16.515  0.00  0.00    +0.000 OA
BRANCH   7   9
ATOM      9  C   UNL     1       7.550   6.374  18.116  0.00  0.00    +0.000 C 
ATOM     10 CL   UNL     1       7.916   5.700  19.711  0.00  0.00    +0.000 Cl
ENDBRANCH   7   9
ENDBRANCH   4   7
BRANCH   1  11
ATOM     11  C   UNL     1       1.268   4.133  17.752  0.00  0.00    +0.000 C 
BRANCH  11  12
ATOM     12  C   UNL     1       1.157   2.884  18.631  0.00  0.00    +0.000 C 
BRANCH  12  13
ATOM     13  C   UNL     1       0.870   3.213  20.092  0.00  0.00    +0.000 C 
BRANCH  13  14
ATOM     14  C   UNL     1       1.928   2.567  20.988  0.00  0.00    +0.000 C 
BRANCH  14  16
ATOM     15  C   UNL     1       4.307   2.251  20.251  0.00  0.00    +0.000 C 
ATOM     16  C   UNL     1       3.294   3.228  20.827  0.00  0.00    +0.000 C 
ENDBRANCH  14  16
ENDBRANCH  13  14
ENDBRANCH  12  13
ENDBRANCH  11  12
ENDBRANCH   1  11
TORSDOF 7
ENDMDL
MODEL 9
REMARK VINA RESULT:      -5.9      1.427      1.615
REMARK  Name = 
REMARK  8 active torsions:
REMARK  status: ('A' for Active; 'I' for Inactive)
REMARK    1  A    between atoms: C_1  and  C_2
REMARK    2  A    between atoms: C_2  and  C_3
REMARK    3  A    between atoms: C_3  and  C_4
REMARK    4  A    between atoms: C_4  and  C_5
REMARK    5  A    between atoms: C_5  and  C_6
REMARK    6  A    between atoms: C_6  and  C_7
REMARK    7  A    between atoms: C_10  and  C_11
REMARK    8  A    between atoms: C_11  and  C_13
REMARK                            x       y       z     vdW  Elec       q    Type
REMARK                         _______ _______ _______ _____ _____    ______ ____
ROOT
ATOM      1  C   UNL     1       3.177   5.386  19.707  0.00  0.00    +0.000 A 
ATOM      2  C   UNL     1       4.458   4.818  19.646  0.00  0.00    +0.000 A 
ATOM      3  C   UNL     1       5.309   5.105  18.578  0.00  0.00    +0.000 A 
ATOM      4  C   UNL     1       4.891   5.962  17.554  0.00  0.00    +0.000 A 
ATOM      5  C   UNL     1       3.598   6.494  17.585  0.00  0.00    +0.000 A 
ATOM      6  C   UNL     1       2.746   6.205  18.658  0.00  0.00    +0.000 A 
ENDROOT
BRANCH   4   7
ATOM      7  C   UNL     1       5.865   6.293  16.477  0.00  0.00    +0.000 C 
ATOM      8  O   UNL     1       6.714   7.161  16.680  0.00  0.00    +0.000 OA
BRANCH   7   9
ATOM      9  C   UNL     1       5.737   5.600  15.142  0.00  0.00    +0.000 C 
ATOM     10 CL   UNL     1       6.133   3.885  15.319  0.00  0.00    +0.000 Cl
ENDBRANCH   7   9
ENDBRANCH   4   7
BRANCH   1  11
ATOM     11  C   UNL     1       2.300   5.156  20.917  0.00  0.00    +0.000 C 
BRANCH  11  12
ATOM     12  C   UNL     1       0.992   4.479  20.502  0.00  0.00    +0.000 C 
BRANCH  12  13
ATOM     13  C   UNL     1       1.107   2.958  20.442  0.00  0.00    +0.000 C 
BRANCH  13  14
ATOM     14  C   UNL     1       0.945   2.481  18.998  0.00  0.00    +0.000 C 
BRANCH  14  16
ATOM     15  C   UNL     1       2.611   2.884  17.165  0.00  0.00    +0.000 C 
ATOM     16  C   UNL     1       2.274   2.047  18.388  0.00  0.00    +0.000 C 
ENDBRANCH  14  16
ENDBRANCH  13  14
ENDBRANCH  12  13
ENDBRANCH  11  12
ENDBRANCH   1  11
TORSDOF 7
ENDMDL
