MODEL 1
REMARK VINA RESULT:      -7.5      0.000      0.000
REMARK  Name = 
REMARK  6 active torsions:
REMARK  status: ('A' for Active; 'I' for Inactive)
REMARK    1  A    between atoms: C_2  and  O_3
REMARK    2  A    between atoms: C_2  and  C_4
REMARK    3  A    between atoms: C_6  and  N_7
REMARK    4  A    between atoms: N_7  and  C_8
REMARK    5  A    between atoms: C_8  and  C_9
REMARK    6  A    between atoms: C_18  and  N_19
REMARK                            x       y       z     vdW  Elec       q    Type
REMARK                         _______ _______ _______ _____ _____    ______ ____
ROOT
ATOM      1  C   UNL     1       2.280   5.988  19.418  0.00  0.00    +0.000 A 
ATOM      2  C   UNL     1       1.830   7.331  19.410  0.00  0.00    +0.000 A 
ATOM      3  C   UNL     1       2.251   8.248  18.447  0.00  0.00    +0.000 A 
ATOM      4  C   UNL     1       3.256   7.835  17.583  0.00  0.00    +0.000 A 
ATOM      5  C   UNL     1       3.728   6.515  17.598  0.00  0.00    +0.000 A 
ATOM      6  C   UNL     1       3.239   5.536  18.484  0.00  0.00    +0.000 A 
ENDROOT
BRANCH   6   7
ATOM      7  N   UNL     1       3.689   4.238  18.333  0.00  0.00    +0.000 N 
ATOM      8  C   UNL     1       3.194   3.334  17.276  0.00  0.00    +0.000 C 
ATOM      9  C   UNL     1       2.788   1.988  17.901  0.00  0.00    +0.000 C 
ATOM     10  O   UNL     1       3.865   1.403  18.652  0.00  0.00    +0.000 OA
ATOM     11  C   UNL     1       4.294   2.294  19.695  0.00  0.00    +0.000 C 
ATOM     12  C   UNL     1       4.772   3.647  19.135  0.00  0.00    +0.000 C 
ENDBRANCH   6   7
BRANCH   1  14
ATOM     13  O   UNL     1       0.732   4.479  20.478  0.00  0.00    +0.000 OA
ATOM     14  C   UNL     1       1.758   5.134  20.526  0.00  0.00    +0.000 C 
BRANCH  14  15
ATOM     15  O   UNL     1       2.548   5.149  21.629  0.00  0.00    +0.000 OA
ATOM     16  H   UNL     1       2.494   5.961  22.167  0.00  0.00    +0.000 HD
ENDBRANCH  14  15
ENDBRANCH   1  14
BRANCH   3  17
ATOM     17  N   UNL     1       1.739   9.539  18.467  0.00  0.00    +0.000 N 
ATOM     18  H   UNL     1       2.415  10.265  18.253  0.00  0.00    +0.000 HD
BRANCH  17  19
ATOM     19  C   UNL     1       0.788   9.952  19.493  0.00  0.00    +0.000 C 
BRANCH  19  20
ATOM     20  C   UNL     1      -0.509  10.376  18.848  0.00  0.00    +0.000 A 
ATOM     21  C   UNL     1      -0.933   9.796  17.641  0.00  0.00    +0.000 A 
ATOM     22  C   UNL     1      -2.134  10.200  17.050  0.00  0.00    +0.000 A 
ATOM     23  C   UNL     1      -2.915  11.181  17.657  0.00  0.00    +0.000 A 
ATOM     24 CL   UNL     1      -4.388  11.676  16.921  0.00  0.00    +0.000 Cl
ATOM     25  C   UNL     1      -2.508  11.763  18.855  0.00  0.00    +0.000 A 
ATOM     26  C   UNL     1      -1.312  11.360  19.448  0.00  0.00    +0.000 A 
ENDBRANCH  19  20
ENDBRANCH  17  19
ENDBRANCH   3  17
TORSDOF 6
ENDMDL
MODEL 2
REMARK VINA RESULT:      -7.4      0.891      1.225
REMARK  Name = 
REMARK  6 active torsions:
REMARK  status: ('A' for Active; 'I' for Inactive)
REMARK    1  A    between atoms: C_2  and  O_3
REMARK    2  A    between atoms: C_2  and  C_4
REMARK    3  A    between atoms: C_6  and  N_7
REMARK    4  A    between atoms: N_7  and  C_8
REMARK    5  A    between atoms: C_8  and  C_9
REMARK    6  A    between atoms: C_18  and  N_19
REMARK                            x       y       z     vdW  Elec       q    Type
REMARK                         _______ _______ _______ _____ _____    ______ ____
ROOT
ATOM      1  C   UNL     1       1.919   5.302  20.318  0.00  0.00    +0.000 A 
ATOM      2  C   UNL     1       1.353   6.517  20.774  0.00  0.00    +0.000 A 
ATOM      3  C   UNL     1       1.540   7.722  20.098  0.00  0.00    +0.000 A 
ATOM      4  C   UNL     1       2.440   7.716  19.041  0.00  0.00    +0.000 A 
ATOM      5  C   UNL     1       3.027   6.524  18.595  0.00  0.00    +0.000 A 
ATOM      6  C   UNL     1       2.767   5.273  19.187  0.00  0.00    +0.000 A 
ENDROOT
BRANCH   6   7
ATOM      7  N   UNL     1       3.306   4.147  18.595  0.00  0.00    +0.000 N 
ATOM      8  C   UNL     1       2.751   3.541  17.369  0.00  0.00    +0.000 C 
ATOM      9  C   UNL     1       2.559   2.030  17.584  0.00  0.00    +0.000 C 
ATOM     10  O   UNL     1       3.779   1.392  17.998  0.00  0.00    +0.000 OA
ATOM     11  C   UNL     1       4.268   1.982  19.215  0.00  0.00    +0.000 C 
ATOM     12  C   UNL     1       4.539   3.489  19.055  0.00  0.00    +0.000 C 
ENDBRANCH   6   7
BRANCH   1  14
ATOM     13  O   UNL     1       2.295   3.773  22.139  0.00  0.00    +0.000 OA
ATOM     14  C   UNL     1       1.647   4.100  21.161  0.00  0.00    +0.000 C 
BRANCH  14  15
ATOM     15  O   UNL     1       0.583   3.375  20.730  0.00  0.00    +0.000 OA
ATOM     16  H   UNL     1       0.794   2.480  20.406  0.00  0.00    +0.000 HD
ENDBRANCH  14  15
ENDBRANCH   1  14
BRANCH   3  17
ATOM     17  N   UNL     1       0.921   8.872  20.572  0.00  0.00    +0.000 N 
ATOM     18  H   UNL     1      -0.012   8.729  20.942  0.00  0.00    +0.000 HD
BRANCH  17  19
ATOM     19  C   UNL     1       1.046  10.139  19.858  0.00  0.00    +0.000 C 
BRANCH  19  20
ATOM     20  C   UNL     1      -0.250  10.461  19.157  0.00  0.00    +0.000 A 
ATOM     21  C   UNL     1      -0.588   9.831  17.948  0.00  0.00    +0.000 A 
ATOM     22  C   UNL     1      -1.790  10.142  17.305  0.00  0.00    +0.000 A 
ATOM     23  C   UNL     1      -2.657  11.079  17.862  0.00  0.00    +0.000 A 
ATOM     24 CL   UNL     1      -4.131  11.459  17.062  0.00  0.00    +0.000 Cl
ATOM     25  C   UNL     1      -2.337  11.709  19.061  0.00  0.00    +0.000 A 
ATOM     26  C   UNL     1      -1.140  11.399  19.706  0.00  0.00    +0.000 A 
ENDBRANCH  19  20
ENDBRANCH  17  19
ENDBRANCH   3  17
TORSDOF 6
ENDMDL
MODEL 3
REMARK VINA RESULT:      -7.3      4.015      8.004
REMARK  Name = 
REMARK  6 active torsions:
REMARK  status: ('A' for Active; 'I' for Inactive)
REMARK    1  A    between atoms: C_2  and  O_3
REMARK    2  A    between atoms: C_2  and  C_4
REMARK    3  A    between atoms: C_6  and  N_7
REMARK    4  A    between atoms: N_7  and  C_8
REMARK    5  A    between atoms: C_8  and  C_9
REMARK    6  A    between atoms: C_18  and  N_19
REMARK                            x       y       z     vdW  Elec       q    Type
REMARK                         _______ _______ _______ _____ _____    ______ ____
ROOT
ATOM      1  C   UNL     1       1.146   8.733  20.480  0.00  0.00    +0.000 A 
ATOM      2  C   UNL     1       1.818   7.497  20.324  0.00  0.00    +0.000 A 
ATOM      3  C   UNL     1       2.426   7.131  19.123  0.00  0.00    +0.000 A 
ATOM      4  C   UNL     1       2.210   7.960  18.031  0.00  0.00    +0.000 A 
ATOM      5  C   UNL     1       1.523   9.175  18.167  0.00  0.00    +0.000 A 
ATOM      6  C   UNL     1       0.998   9.625  19.393  0.00  0.00    +0.000 A 
ENDROOT
BRANCH   6   7
ATOM      7  N   UNL     1       0.444  10.890  19.439  0.00  0.00    +0.000 N 
ATOM      8  C   UNL     1      -1.003  11.139  19.293  0.00  0.00    +0.000 C 
ATOM      9  C   UNL     1      -1.231  12.240  18.242  0.00  0.00    +0.000 C 
ATOM     10  O   UNL     1      -0.506  13.439  18.562  0.00  0.00    +0.000 OA
ATOM     11  C   UNL     1       0.902  13.166  18.659  0.00  0.00    +0.000 C 
ATOM     12  C   UNL     1       1.211  12.110  19.737  0.00  0.00    +0.000 C 
ENDBRANCH   6   7
BRANCH   1  14
ATOM     13  O   UNL     1       1.016   9.652  22.701  0.00  0.00    +0.000 OA
ATOM     14  C   UNL     1       0.526   8.973  21.818  0.00  0.00    +0.000 C 
BRANCH  14  15
ATOM     15  O   UNL     1      -0.668   8.346  21.973  0.00  0.00    +0.000 OA
ATOM     16  H   UNL     1      -1.252   8.728  22.653  0.00  0.00    +0.000 HD
ENDBRANCH  14  15
ENDBRANCH   1  14
BRANCH   3  17
ATOM     17  N   UNL     1       3.109   5.923  19.047  0.00  0.00    +0.000 N 
ATOM     18  H   UNL     1       2.760   5.200  19.666  0.00  0.00    +0.000 HD
BRANCH  17  19
ATOM     19  C   UNL     1       4.562   5.891  18.920  0.00  0.00    +0.000 C 
BRANCH  19  20
ATOM     20  C   UNL     1       4.946   5.403  17.545  0.00  0.00    +0.000 A 
ATOM     21  C   UNL     1       5.111   6.306  16.482  0.00  0.00    +0.000 A 
ATOM     22  C   UNL     1       5.462   5.841  15.211  0.00  0.00    +0.000 A 
ATOM     23  C   UNL     1       5.649   4.478  14.995  0.00  0.00    +0.000 A 
ATOM     24 CL   UNL     1       6.076   3.914  13.428  0.00  0.00    +0.000 Cl
ATOM     25  C   UNL     1       5.491   3.571  16.039  0.00  0.00    +0.000 A 
ATOM     26  C   UNL     1       5.144   4.032  17.309  0.00  0.00    +0.000 A 
ENDBRANCH  19  20
ENDBRANCH  17  19
ENDBRANCH   3  17
TORSDOF 6
ENDMDL
MODEL 4
REMARK VINA RESULT:      -7.2      0.242      1.203
REMARK  Name = 
REMARK  6 active torsions:
REMARK  status: ('A' for Active; 'I' for Inactive)
REMARK    1  A    between atoms: C_2  and  O_3
REMARK    2  A    between atoms: C_2  and  C_4
REMARK    3  A    between atoms: C_6  and  N_7
REMARK    4  A    between atoms: N_7  and  C_8
REMARK    5  A    between atoms: C_8  and  C_9
REMARK    6  A    between atoms: C_18  and  N_19
REMARK                            x       y       z     vdW  Elec       q    Type
REMARK                         _______ _______ _______ _____ _____    ______ ____
ROOT
ATOM      1  C   UNL     1       2.206   5.889  19.566  0.00  0.00    +0.000 A 
ATOM      2  C   UNL     1       1.765   7.232  19.649  0.00  0.00    +0.000 A 
ATOM      3  C   UNL     1       2.144   8.195  18.715  0.00  0.00    +0.000 A 
ATOM      4  C   UNL     1       3.103   7.824  17.783  0.00  0.00    +0.000 A 
ATOM      5  C   UNL     1       3.567   6.503  17.706  0.00  0.00    +0.000 A 
ATOM      6  C   UNL     1       3.116   5.482  18.564  0.00  0.00    +0.000 A 
ENDROOT
BRANCH   6   7
ATOM      7  N   UNL     1       3.550   4.192  18.325  0.00  0.00    +0.000 N 
ATOM      8  C   UNL     1       2.987   3.340  17.259  0.00  0.00    +0.000 C 
ATOM      9  C   UNL     1       2.614   1.966  17.843  0.00  0.00    +0.000 C 
ATOM     10  O   UNL     1       3.731   1.344  18.498  0.00  0.00    +0.000 OA
ATOM     11  C   UNL     1       4.228   2.184  19.553  0.00  0.00    +0.000 C 
ATOM     12  C   UNL     1       4.677   3.562  19.030  0.00  0.00    +0.000 C 
ENDBRANCH   6   7
BRANCH   1  14
ATOM     13  O   UNL     1       2.362   4.712  21.661  0.00  0.00    +0.000 OA
ATOM     14  C   UNL     1       1.734   4.980  20.653  0.00  0.00    +0.000 C 
BRANCH  14  15
ATOM     15  O   UNL     1       0.504   4.456  20.414  0.00  0.00    +0.000 OA
ATOM     16  H   UNL     1      -0.229   4.883  20.893  0.00  0.00    +0.000 HD
ENDBRANCH  14  15
ENDBRANCH   1  14
BRANCH   3  17
ATOM     17  N   UNL     1       1.642   9.486  18.827  0.00  0.00    +0.000 N 
ATOM     18  H   UNL     1       2.346  10.216  18.813  0.00  0.00    +0.000 HD
BRANCH  17  19
ATOM     19  C   UNL     1       0.548   9.788  19.744  0.00  0.00    +0.000 C 
BRANCH  19  20
ATOM     20  C   UNL     1      -0.655  10.262  18.967  0.00  0.00    +0.000 A 
ATOM     21  C   UNL     1      -1.489  11.271  19.479  0.00  0.00    +0.000 A 
ATOM     22  C   UNL     1      -2.604  11.698  18.753  0.00  0.00    +0.000 A 
ATOM     23  C   UNL     1      -2.892  11.127  17.515  0.00  0.00    +0.000 A 
ATOM     24 CL   UNL     1      -4.267  11.656  16.630  0.00  0.00    +0.000 Cl
ATOM     25  C   UNL     1      -2.073  10.129  16.993  0.00  0.00    +0.000 A 
ATOM     26  C   UNL     1      -0.958   9.702  17.715  0.00  0.00    +0.000 A 
ENDBRANCH  19  20
ENDBRANCH  17  19
ENDBRANCH   3  17
TORSDOF 6
ENDMDL
MODEL 5
REMARK VINA RESULT:      -7.1      3.982      7.954
REMARK  Name = 
REMARK  6 active torsions:
REMARK  status: ('A' for Active; 'I' for Inactive)
REMARK    1  A    between atoms: C_2  and  O_3
REMARK    2  A    between atoms: C_2  and  C_4
REMARK    3  A    between atoms: C_6  and  N_7
REMARK    4  A    between atoms: N_7  and  C_8
REMARK    5  A    between atoms: C_8  and  C_9
REMARK    6  A    between atoms: C_18  and  N_19
REMARK                            x       y       z     vdW  Elec       q    Type
REMARK                         _______ _______ _______ _____ _____    ______ ____
ROOT
ATOM      1  C   UNL     1       1.472   8.345  20.366  0.00  0.00    +0.000 A 
ATOM      2  C   UNL     1       2.148   7.101  20.380  0.00  0.00    +0.000 A 
ATOM      3  C   UNL     1       2.783   6.590  19.248  0.00  0.00    +0.000 A 
ATOM      4  C   UNL     1       2.591   7.276  18.057  0.00  0.00    +0.000 A 
ATOM      5  C   UNL     1       1.901   8.496  18.026  0.00  0.00    +0.000 A 
ATOM      6  C   UNL     1       1.348   9.094  19.174  0.00  0.00    +0.000 A 
ENDROOT
BRANCH   6   7
ATOM      7  N   UNL     1       0.793  10.353  19.050  0.00  0.00    +0.000 N 
ATOM      8  C   UNL     1       1.600  11.589  19.038  0.00  0.00    +0.000 C 
ATOM      9  C   UNL     1       1.011  12.596  20.041  0.00  0.00    +0.000 C 
ATOM     10  O   UNL     1      -0.378  12.856  19.783  0.00  0.00    +0.000 OA
ATOM     11  C   UNL     1      -1.138  11.637  19.840  0.00  0.00    +0.000 C 
ATOM     12  C   UNL     1      -0.639  10.599  18.817  0.00  0.00    +0.000 C 
ENDBRANCH   6   7
BRANCH   1  14
ATOM     13  O   UNL     1      -0.372   8.679  21.878  0.00  0.00    +0.000 OA
ATOM     14  C   UNL     1       0.822   8.748  21.650  0.00  0.00    +0.000 C 
BRANCH  14  15
ATOM     15  O   UNL     1       1.703   9.214  22.571  0.00  0.00    +0.000 OA
ATOM     16  H   UNL     1       1.331   9.375  23.457  0.00  0.00    +0.000 HD
ENDBRANCH  14  15
ENDBRANCH   1  14
BRANCH   3  17
ATOM     17  N   UNL     1       3.467   5.385  19.338  0.00  0.00    +0.000 N 
ATOM     18  H   UNL     1       3.089   4.733  20.016  0.00  0.00    +0.000 HD
BRANCH  17  19
ATOM     19  C   UNL     1       4.925   5.346  19.284  0.00  0.00    +0.000 C 
BRANCH  19  20
ATOM     20  C   UNL     1       5.378   5.084  17.869  0.00  0.00    +0.000 A 
ATOM     21  C   UNL     1       6.574   5.639  17.384  0.00  0.00    +0.000 A 
ATOM     22  C   UNL     1       6.981   5.393  16.069  0.00  0.00    +0.000 A 
ATOM     23  C   UNL     1       6.201   4.596  15.235  0.00  0.00    +0.000 A 
ATOM     24 CL   UNL     1       6.707   4.303  13.618  0.00  0.00    +0.000 Cl
ATOM     25  C   UNL     1       5.015   4.037  15.702  0.00  0.00    +0.000 A 
ATOM     26  C   UNL     1       4.608   4.278  17.015  0.00  0.00    +0.000 A 
ENDBRANCH  19  20
ENDBRANCH  17  19
ENDBRANCH   3  17
TORSDOF 6
ENDMDL
MODEL 6
REMARK VINA RESULT:      -7.1      4.117      8.018
REMARK  Name = 
REMARK  6 active torsions:
REMARK  status: ('A' for Active; 'I' for Inactive)
REMARK    1  A    between atoms: C_2  and  O_3
REMARK    2  A    between atoms: C_2  and  C_4
REMARK    3  A    between atoms: C_6  and  N_7
REMARK    4  A    between atoms: N_7  and  C_8
REMARK    5  A    between atoms: C_8  and  C_9
REMARK    6  A    between atoms: C_18  and  N_19
REMARK                            x       y       z     vdW  Elec       q    Type
REMARK                         _______ _______ _______ _____ _____    ______ ____
ROOT
ATOM      1  C   UNL     1       0.794   9.010  21.048  0.00  0.00    +0.000 A 
ATOM      2  C   UNL     1       1.482   7.774  21.122  0.00  0.00    +0.000 A 
ATOM      3  C   UNL     1       2.220   7.272  20.051  0.00  0.00    +0.000 A 
ATOM      4  C   UNL     1       2.125   7.956  18.847  0.00  0.00    +0.000 A 
ATOM      5  C   UNL     1       1.427   9.168  18.755  0.00  0.00    +0.000 A 
ATOM      6  C   UNL     1       0.767   9.758  19.850  0.00  0.00    +0.000 A 
ENDROOT
BRANCH   6   7
ATOM      7  N   UNL     1       0.210  11.011  19.677  0.00  0.00    +0.000 N 
ATOM      8  C   UNL     1      -1.213  11.218  19.348  0.00  0.00    +0.000 C 
ATOM      9  C   UNL     1      -1.329  12.176  18.149  0.00  0.00    +0.000 C 
ATOM     10  O   UNL     1      -0.644  13.416  18.388  0.00  0.00    +0.000 OA
ATOM     11  C   UNL     1       0.746  13.177  18.667  0.00  0.00    +0.000 C 
ATOM     12  C   UNL     1       0.939  12.270  19.897  0.00  0.00    +0.000 C 
ENDBRANCH   6   7
BRANCH   1  14
ATOM     13  O   UNL     1       0.241  10.402  22.933  0.00  0.00    +0.000 OA
ATOM     14  C   UNL     1       0.030   9.404  22.269  0.00  0.00    +0.000 C 
BRANCH  14  15
ATOM     15  O   UNL     1      -0.953   8.524  22.590  0.00  0.00    +0.000 OA
ATOM     16  H   UNL     1      -0.760   7.944  23.350  0.00  0.00    +0.000 HD
ENDBRANCH  14  15
ENDBRANCH   1  14
BRANCH   3  17
ATOM     17  N   UNL     1       2.909   6.075  20.201  0.00  0.00    +0.000 N 
ATOM     18  H   UNL     1       3.888   6.178  20.445  0.00  0.00    +0.000 HD
BRANCH  17  19
ATOM     19  C   UNL     1       2.679   4.959  19.288  0.00  0.00    +0.000 C 
BRANCH  19  20
ATOM     20  C   UNL     1       3.820   4.859  18.306  0.00  0.00    +0.000 A 
ATOM     21  C   UNL     1       3.669   4.153  17.101  0.00  0.00    +0.000 A 
ATOM     22  C   UNL     1       4.735   4.061  16.201  0.00  0.00    +0.000 A 
ATOM     23  C   UNL     1       5.952   4.672  16.496  0.00  0.00    +0.000 A 
ATOM     24 CL   UNL     1       7.258   4.551  15.386  0.00  0.00    +0.000 Cl
ATOM     25  C   UNL     1       6.115   5.377  17.685  0.00  0.00    +0.000 A 
ATOM     26  C   UNL     1       5.053   5.472  18.584  0.00  0.00    +0.000 A 
ENDBRANCH  19  20
ENDBRANCH  17  19
ENDBRANCH   3  17
TORSDOF 6
ENDMDL
MODEL 7
REMARK VINA RESULT:      -7.1      4.011      7.998
REMARK  Name = 
REMARK  6 active torsions:
REMARK  status: ('A' for Active; 'I' for Inactive)
REMARK    1  A    between atoms: C_2  and  O_3
REMARK    2  A    between atoms: C_2  and  C_4
REMARK    3  A    between atoms: C_6  and  N_7
REMARK    4  A    between atoms: N_7  and  C_8
REMARK    5  A    between atoms: C_8  and  C_9
REMARK    6  A    between atoms: C_18  and  N_19
REMARK                            x       y       z     vdW  Elec       q    Type
REMARK                         _______ _______ _______ _____ _____    ______ ____
ROOT
ATOM      1  C   UNL     1       1.212   8.547  20.515  0.00  0.00    +0.000 A 
ATOM      2  C   UNL     1       1.839   7.279  20.442  0.00  0.00    +0.000 A 
ATOM      3  C   UNL     1       2.478   6.834  19.286  0.00  0.00    +0.000 A 
ATOM      4  C   UNL     1       2.339   7.620  18.150  0.00  0.00    +0.000 A 
ATOM      5  C   UNL     1       1.698   8.865  18.203  0.00  0.00    +0.000 A 
ATOM      6  C   UNL     1       1.144   9.392  19.385  0.00  0.00    +0.000 A 
ENDROOT
BRANCH   6   7
ATOM      7  N   UNL     1       0.641  10.679  19.351  0.00  0.00    +0.000 N 
ATOM      8  C   UNL     1       1.488  11.876  19.511  0.00  0.00    +0.000 C 
ATOM      9  C   UNL     1       0.869  12.805  20.571  0.00  0.00    +0.000 C 
ATOM     10  O   UNL     1      -0.491  13.144  20.254  0.00  0.00    +0.000 OA
ATOM     11  C   UNL     1      -1.293  11.956  20.143  0.00  0.00    +0.000 C 
ATOM     12  C   UNL     1      -0.764  11.003  19.056  0.00  0.00    +0.000 C 
ENDBRANCH   6   7
BRANCH   1  14
ATOM     13  O   UNL     1       1.034   9.569  22.688  0.00  0.00    +0.000 OA
ATOM     14  C   UNL     1       0.550   8.872  21.814  0.00  0.00    +0.000 C 
BRANCH  14  15
ATOM     15  O   UNL     1      -0.675   8.303  21.946  0.00  0.00    +0.000 OA
ATOM     16  H   UNL     1      -0.761   7.668  22.681  0.00  0.00    +0.000 HD
ENDBRANCH  14  15
ENDBRANCH   1  14
BRANCH   3  17
ATOM     17  N   UNL     1       3.114   5.599  19.291  0.00  0.00    +0.000 N 
ATOM     18  H   UNL     1       2.634   4.879  19.820  0.00  0.00    +0.000 HD
BRANCH  17  19
ATOM     19  C   UNL     1       4.564   5.503  19.414  0.00  0.00    +0.000 C 
BRANCH  19  20
ATOM     20  C   UNL     1       5.185   5.342  18.049  0.00  0.00    +0.000 A 
ATOM     21  C   UNL     1       4.581   4.524  17.078  0.00  0.00    +0.000 A 
ATOM     22  C   UNL     1       5.168   4.378  15.818  0.00  0.00    +0.000 A 
ATOM     23  C   UNL     1       6.355   5.044  15.519  0.00  0.00    +0.000 A 
ATOM     24 CL   UNL     1       7.072   4.856  13.968  0.00  0.00    +0.000 Cl
ATOM     25  C   UNL     1       6.962   5.860  16.470  0.00  0.00    +0.000 A 
ATOM     26  C   UNL     1       6.378   6.010  17.728  0.00  0.00    +0.000 A 
ENDBRANCH  19  20
ENDBRANCH  17  19
ENDBRANCH   3  17
TORSDOF 6
ENDMDL
MODEL 8
REMARK VINA RESULT:      -7.0      2.164      2.753
REMARK  Name = 
REMARK  6 active torsions:
REMARK  status: ('A' for Active; 'I' for Inactive)
REMARK    1  A    between atoms: C_2  and  O_3
REMARK    2  A    between atoms: C_2  and  C_4
REMARK    3  A    between atoms: C_6  and  N_7
REMARK    4  A    between atoms: N_7  and  C_8
REMARK    5  A    between atoms: C_8  and  C_9
REMARK    6  A    between atoms: C_18  and  N_19
REMARK                            x       y       z     vdW  Elec       q    Type
REMARK                         _______ _______ _______ _____ _____    ______ ____
ROOT
ATOM      1  C   UNL     1       1.953   5.172  20.424  0.00  0.00    +0.000 A 
ATOM      2  C   UNL     1       1.441   6.380  20.957  0.00  0.00    +0.000 A 
ATOM      3  C   UNL     1       1.667   7.613  20.347  0.00  0.00    +0.000 A 
ATOM      4  C   UNL     1       2.553   7.633  19.278  0.00  0.00    +0.000 A 
ATOM      5  C   UNL     1       3.086   6.445  18.757  0.00  0.00    +0.000 A 
ATOM      6  C   UNL     1       2.784   5.174  19.281  0.00  0.00    +0.000 A 
ENDROOT
BRANCH   6   7
ATOM      7  N   UNL     1       3.271   4.064  18.618  0.00  0.00    +0.000 N 
ATOM      8  C   UNL     1       2.624   3.497  17.419  0.00  0.00    +0.000 C 
ATOM      9  C   UNL     1       2.438   1.981  17.604  0.00  0.00    +0.000 C 
ATOM     10  O   UNL     1       3.680   1.325  17.909  0.00  0.00    +0.000 OA
ATOM     11  C   UNL     1       4.261   1.877  19.103  0.00  0.00    +0.000 C 
ATOM     12  C   UNL     1       4.530   3.387  18.967  0.00  0.00    +0.000 C 
ENDBRANCH   6   7
BRANCH   1  14
ATOM     13  O   UNL     1       2.266   3.551  22.177  0.00  0.00    +0.000 OA
ATOM     14  C   UNL     1       1.645   3.935  21.202  0.00  0.00    +0.000 C 
BRANCH  14  15
ATOM     15  O   UNL     1       0.580   3.249  20.715  0.00  0.00    +0.000 OA
ATOM     16  H   UNL     1       0.661   2.278  20.747  0.00  0.00    +0.000 HD
ENDBRANCH  14  15
ENDBRANCH   1  14
BRANCH   3  17
ATOM     17  N   UNL     1       1.101   8.758  20.894  0.00  0.00    +0.000 N 
ATOM     18  H   UNL     1       0.661   8.622  21.798  0.00  0.00    +0.000 HD
BRANCH  17  19
ATOM     19  C   UNL     1       0.369   9.704  20.059  0.00  0.00    +0.000 C 
BRANCH  19  20
ATOM     20  C   UNL     1      -0.500  10.584  20.923  0.00  0.00    +0.000 A 
ATOM     21  C   UNL     1      -1.239  11.638  20.360  0.00  0.00    +0.000 A 
ATOM     22  C   UNL     1      -2.037  12.450  21.171  0.00  0.00    +0.000 A 
ATOM     23  C   UNL     1      -2.103  12.216  22.543  0.00  0.00    +0.000 A 
ATOM     24 CL   UNL     1      -3.083  13.222  23.534  0.00  0.00    +0.000 Cl
ATOM     25  C   UNL     1      -1.378  11.174  23.115  0.00  0.00    +0.000 A 
ATOM     26  C   UNL     1      -0.583  10.360  22.307  0.00  0.00    +0.000 A 
ENDBRANCH  19  20
ENDBRANCH  17  19
ENDBRANCH   3  17
TORSDOF 6
ENDMDL
MODEL 9
REMARK VINA RESULT:      -7.0      2.162      2.806
REMARK  Name = 
REMARK  6 active torsions:
REMARK  status: ('A' for Active; 'I' for Inactive)
REMARK    1  A    between atoms: C_2  and  O_3
REMARK    2  A    between atoms: C_2  and  C_4
REMARK    3  A    between atoms: C_6  and  N_7
REMARK    4  A    between atoms: N_7  and  C_8
REMARK    5  A    between atoms: C_8  and  C_9
REMARK    6  A    between atoms: C_18  and  N_19
REMARK                            x       y       z     vdW  Elec       q    Type
REMARK                         _______ _______ _______ _____ _____    ______ ____
ROOT
ATOM      1  C   UNL     1       1.893   5.084  20.514  0.00  0.00    +0.000 A 
ATOM      2  C   UNL     1       1.338   6.259  21.077  0.00  0.00    +0.000 A 
ATOM      3  C   UNL     1       1.521   7.515  20.500  0.00  0.00    +0.000 A 
ATOM      4  C   UNL     1       2.405   7.593  19.432  0.00  0.00    +0.000 A 
ATOM      5  C   UNL     1       2.980   6.440  18.881  0.00  0.00    +0.000 A 
ATOM      6  C   UNL     1       2.724   5.146  19.372  0.00  0.00    +0.000 A 
ENDROOT
BRANCH   6   7
ATOM      7  N   UNL     1       3.249   4.071  18.681  0.00  0.00    +0.000 N 
ATOM      8  C   UNL     1       2.666   3.560  17.425  0.00  0.00    +0.000 C 
ATOM      9  C   UNL     1       2.481   2.036  17.527  0.00  0.00    +0.000 C 
ATOM     10  O   UNL     1       3.710   1.371  17.861  0.00  0.00    +0.000 OA
ATOM     11  C   UNL     1       4.229   1.866  19.108  0.00  0.00    +0.000 C 
ATOM     12  C   UNL     1       4.494   3.383  19.059  0.00  0.00    +0.000 C 
ENDBRANCH   6   7
BRANCH   1  14
ATOM     13  O   UNL     1       2.264   3.431  22.224  0.00  0.00    +0.000 OA
ATOM     14  C   UNL     1       1.629   3.817  21.260  0.00  0.00    +0.000 C 
BRANCH  14  15
ATOM     15  O   UNL     1       0.589   3.107  20.754  0.00  0.00    +0.000 OA
ATOM     16  H   UNL     1       0.739   2.147  20.679  0.00  0.00    +0.000 HD
ENDBRANCH  14  15
ENDBRANCH   1  14
BRANCH   3  17
ATOM     17  N   UNL     1       0.914   8.624  21.076  0.00  0.00    +0.000 N 
ATOM     18  H   UNL     1       0.211   8.407  21.774  0.00  0.00    +0.000 HD
BRANCH  17  19
ATOM     19  C   UNL     1       0.553   9.785  20.269  0.00  0.00    +0.000 C 
BRANCH  19  20
ATOM     20  C   UNL     1      -0.421  10.652  21.026  0.00  0.00    +0.000 A 
ATOM     21  C   UNL     1      -0.596  10.495  22.411  0.00  0.00    +0.000 A 
ATOM     22  C   UNL     1      -1.506  11.301  23.101  0.00  0.00    +0.000 A 
ATOM     23  C   UNL     1      -2.243  12.265  22.417  0.00  0.00    +0.000 A 
ATOM     24 CL   UNL     1      -3.363  13.249  23.272  0.00  0.00    +0.000 Cl
ATOM     25  C   UNL     1      -2.079  12.434  21.045  0.00  0.00    +0.000 A 
ATOM     26  C   UNL     1      -1.170  11.633  20.354  0.00  0.00    +0.000 A 
ENDBRANCH  19  20
ENDBRANCH  17  19
ENDBRANCH   3  17
TORSDOF 6
ENDMDL
