MODEL 1
REMARK VINA RESULT:      -8.1      0.000      0.000
REMARK  Name = 
REMARK  4 active torsions:
REMARK  status: ('A' for Active; 'I' for Inactive)
REMARK    1  A    between atoms: C_1  and  C_2
REMARK    2  A    between atoms: C_2  and  C_3
REMARK    3  A    between atoms: C_3  and  N_4
REMARK    4  A    between atoms: N_14  and  C_15
REMARK                            x       y       z     vdW  Elec       q    Type
REMARK                         _______ _______ _______ _____ _____    ______ ____
ROOT
ATOM      1  N   UNL     1       1.340   6.376  20.614  0.00  0.00    +0.000 N 
ATOM      2  C   UNL     1       2.298   5.562  20.074  0.00  0.00    +0.000 C 
ATOM      3  O   UNL     1       3.436   5.957  19.852  0.00  0.00    +0.000 OA
ATOM      4  N   UNL     1       1.879   4.279  19.783  0.00  0.00    +0.000 N 
ATOM      5  C   UNL     1       0.525   3.767  19.925  0.00  0.00    +0.000 C 
ATOM      6  C   UNL     1       0.464   2.596  18.973  0.00  0.00    +0.000 C 
ATOM      7  C   UNL     1       1.876   2.022  19.022  0.00  0.00    +0.000 C 
ATOM      8  C   UNL     1       2.801   3.251  19.242  0.00  0.00    +0.000 C 
ATOM      9  C   UNL     1       3.924   2.920  20.238  0.00  0.00    +0.000 C 
ATOM     10  C   UNL     1       5.247   3.016  19.495  0.00  0.00    +0.000 C 
ATOM     11  N   UNL     1       4.965   3.530  18.170  0.00  0.00    +0.000 N 
ATOM     12  C   UNL     1       3.524   3.677  17.931  0.00  0.00    +0.000 C 
ATOM     13  H   UNL     1       0.694   5.916  21.235  0.00  0.00    +0.000 HD
ENDROOT
BRANCH  11  14
ATOM     14  C   UNL     1       5.782   4.538  17.669  0.00  0.00    +0.000 A 
ATOM     15  N   UNL     1       6.310   5.501  18.476  0.00  0.00    +0.000 NA
ATOM     16  C   UNL     1       7.090   6.460  17.938  0.00  0.00    +0.000 A 
ATOM     17  N   UNL     1       7.496   6.590  16.661  0.00  0.00    +0.000 NA
ATOM     18  C   UNL     1       7.005   5.597  15.906  0.00  0.00    +0.000 A 
ATOM     19  N   UNL     1       7.254   5.438  14.570  0.00  0.00    +0.000 N 
ATOM     20  C   UNL     1       6.628   4.308  14.110  0.00  0.00    +0.000 A 
ATOM     21  C   UNL     1       5.960   3.740  15.172  0.00  0.00    +0.000 A 
ATOM     22  C   UNL     1       6.171   4.566  16.314  0.00  0.00    +0.000 A 
ATOM     23  H   UNL     1       7.826   6.069  14.029  0.00  0.00    +0.000 HD
ENDBRANCH  11  14
BRANCH   1  24
ATOM     24  C   UNL     1       1.703   7.741  20.942  0.00  0.00    +0.000 C 
BRANCH  24  26
ATOM     25  C   UNL     1       0.613   9.290  22.631  0.00  0.00    +0.000 C 
ATOM     26  C   UNL     1       0.496   8.609  21.275  0.00  0.00    +0.000 C 
ENDBRANCH  24  26
ENDBRANCH   1  24
TORSDOF 3
ENDMDL
MODEL 2
REMARK VINA RESULT:      -7.4      2.362      4.336
REMARK  Name = 
REMARK  4 active torsions:
REMARK  status: ('A' for Active; 'I' for Inactive)
REMARK    1  A    between atoms: C_1  and  C_2
REMARK    2  A    between atoms: C_2  and  C_3
REMARK    3  A    between atoms: C_3  and  N_4
REMARK    4  A    between atoms: N_14  and  C_15
REMARK                            x       y       z     vdW  Elec       q    Type
REMARK                         _______ _______ _______ _____ _____    ______ ____
ROOT
ATOM      1  N   UNL     1       4.723   1.405  21.418  0.00  0.00    +0.000 N 
ATOM      2  C   UNL     1       4.399   2.209  20.359  0.00  0.00    +0.000 C 
ATOM      3  O   UNL     1       5.227   2.545  19.522  0.00  0.00    +0.000 OA
ATOM      4  N   UNL     1       3.083   2.626  20.322  0.00  0.00    +0.000 N 
ATOM      5  C   UNL     1       2.069   2.352  21.329  0.00  0.00    +0.000 C 
ATOM      6  C   UNL     1       1.050   3.452  21.145  0.00  0.00    +0.000 C 
ATOM      7  C   UNL     1       1.077   3.715  19.643  0.00  0.00    +0.000 C 
ATOM      8  C   UNL     1       2.549   3.457  19.216  0.00  0.00    +0.000 C 
ATOM      9  C   UNL     1       2.607   2.714  17.872  0.00  0.00    +0.000 C 
ATOM     10  C   UNL     1       3.277   3.634  16.863  0.00  0.00    +0.000 C 
ATOM     11  N   UNL     1       3.744   4.801  17.582  0.00  0.00    +0.000 N 
ATOM     12  C   UNL     1       3.330   4.784  18.990  0.00  0.00    +0.000 C 
ATOM     13  H   UNL     1       3.997   0.769  21.705  0.00  0.00    +0.000 HD
ENDROOT
BRANCH  11  14
ATOM     14  C   UNL     1       5.029   5.264  17.320  0.00  0.00    +0.000 A 
ATOM     15  N   UNL     1       5.760   5.922  18.263  0.00  0.00    +0.000 NA
ATOM     16  C   UNL     1       7.000   6.356  17.955  0.00  0.00    +0.000 A 
ATOM     17  N   UNL     1       7.687   6.183  16.811  0.00  0.00    +0.000 NA
ATOM     18  C   UNL     1       6.961   5.485  15.926  0.00  0.00    +0.000 A 
ATOM     19  N   UNL     1       7.391   5.127  14.677  0.00  0.00    +0.000 N 
ATOM     20  C   UNL     1       6.420   4.395  14.042  0.00  0.00    +0.000 A 
ATOM     21  C   UNL     1       5.349   4.290  14.900  0.00  0.00    +0.000 A 
ATOM     22  C   UNL     1       5.672   5.003  16.092  0.00  0.00    +0.000 A 
ATOM     23  H   UNL     1       8.297   5.371  14.306  0.00  0.00    +0.000 HD
ENDBRANCH  11  14
BRANCH   1  24
ATOM     24  C   UNL     1       6.089   0.932  21.530  0.00  0.00    +0.000 C 
BRANCH  24  26
ATOM     25  C   UNL     1       6.774  -1.510  21.595  0.00  0.00    +0.000 C 
ATOM     26  C   UNL     1       6.209  -0.331  22.373  0.00  0.00    +0.000 C 
ENDBRANCH  24  26
ENDBRANCH   1  24
TORSDOF 3
ENDMDL
MODEL 3
REMARK VINA RESULT:      -7.0      1.207      2.199
REMARK  Name = 
REMARK  4 active torsions:
REMARK  status: ('A' for Active; 'I' for Inactive)
REMARK    1  A    between atoms: C_1  and  C_2
REMARK    2  A    between atoms: C_2  and  C_3
REMARK    3  A    between atoms: C_3  and  N_4
REMARK    4  A    between atoms: N_14  and  C_15
REMARK                            x       y       z     vdW  Elec       q    Type
REMARK                         _______ _______ _______ _____ _____    ______ ____
ROOT
ATOM      1  N   UNL     1       1.648   6.775  20.241  0.00  0.00    +0.000 N 
ATOM      2  C   UNL     1       2.453   5.811  19.699  0.00  0.00    +0.000 C 
ATOM      3  O   UNL     1       3.505   6.086  19.135  0.00  0.00    +0.000 OA
ATOM      4  N   UNL     1       1.981   4.519  19.819  0.00  0.00    +0.000 N 
ATOM      5  C   UNL     1       0.700   4.125  20.384  0.00  0.00    +0.000 C 
ATOM      6  C   UNL     1       0.418   2.774  19.771  0.00  0.00    +0.000 C 
ATOM      7  C   UNL     1       1.804   2.153  19.626  0.00  0.00    +0.000 C 
ATOM      8  C   UNL     1       2.751   3.349  19.335  0.00  0.00    +0.000 C 
ATOM      9  C   UNL     1       4.078   3.194  20.095  0.00  0.00    +0.000 C 
ATOM     10  C   UNL     1       5.189   3.049  19.065  0.00  0.00    +0.000 C 
ATOM     11  N   UNL     1       4.600   3.264  17.759  0.00  0.00    +0.000 N 
ATOM     12  C   UNL     1       3.142   3.429  17.830  0.00  0.00    +0.000 C 
ATOM     13  H   UNL     1       1.167   6.503  21.083  0.00  0.00    +0.000 HD
ENDROOT
BRANCH  11  14
ATOM     14  C   UNL     1       5.272   4.088  16.862  0.00  0.00    +0.000 A 
ATOM     15  N   UNL     1       4.999   4.068  15.527  0.00  0.00    +0.000 NA
ATOM     16  C   UNL     1       5.686   4.882  14.699  0.00  0.00    +0.000 A 
ATOM     17  N   UNL     1       6.615   5.804  15.013  0.00  0.00    +0.000 NA
ATOM     18  C   UNL     1       6.819   5.836  16.338  0.00  0.00    +0.000 A 
ATOM     19  N   UNL     1       7.687   6.683  16.972  0.00  0.00    +0.000 N 
ATOM     20  C   UNL     1       7.632   6.479  18.327  0.00  0.00    +0.000 A 
ATOM     21  C   UNL     1       6.717   5.478  18.561  0.00  0.00    +0.000 A 
ATOM     22  C   UNL     1       6.212   5.044  17.300  0.00  0.00    +0.000 A 
ATOM     23  H   UNL     1       8.265   7.355  16.489  0.00  0.00    +0.000 HD
ENDBRANCH  11  14
BRANCH   1  24
ATOM     24  C   UNL     1       2.074   8.159  20.150  0.00  0.00    +0.000 C 
BRANCH  24  26
ATOM     25  C   UNL     1       2.020   8.996  17.756  0.00  0.00    +0.000 C 
ATOM     26  C   UNL     1       1.304   8.946  19.097  0.00  0.00    +0.000 C 
ENDBRANCH  24  26
ENDBRANCH   1  24
TORSDOF 3
ENDMDL
MODEL 4
REMARK VINA RESULT:      -6.9      2.500      4.862
REMARK  Name = 
REMARK  4 active torsions:
REMARK  status: ('A' for Active; 'I' for Inactive)
REMARK    1  A    between atoms: C_1  and  C_2
REMARK    2  A    between atoms: C_2  and  C_3
REMARK    3  A    between atoms: C_3  and  N_4
REMARK    4  A    between atoms: N_14  and  C_15
REMARK                            x       y       z     vdW  Elec       q    Type
REMARK                         _______ _______ _______ _____ _____    ______ ____
ROOT
ATOM      1  N   UNL     1       4.760   1.265  21.650  0.00  0.00    +0.000 N 
ATOM      2  C   UNL     1       4.381   1.915  20.506  0.00  0.00    +0.000 C 
ATOM      3  O   UNL     1       5.118   1.995  19.531  0.00  0.00    +0.000 OA
ATOM      4  N   UNL     1       3.124   2.485  20.546  0.00  0.00    +0.000 N 
ATOM      5  C   UNL     1       2.235   2.517  21.697  0.00  0.00    +0.000 C 
ATOM      6  C   UNL     1       1.323   3.692  21.434  0.00  0.00    +0.000 C 
ATOM      7  C   UNL     1       1.172   3.693  19.916  0.00  0.00    +0.000 C 
ATOM      8  C   UNL     1       2.535   3.180  19.377  0.00  0.00    +0.000 C 
ATOM      9  C   UNL     1       2.330   2.220  18.194  0.00  0.00    +0.000 C 
ATOM     10  C   UNL     1       2.949   2.862  16.962  0.00  0.00    +0.000 C 
ATOM     11  N   UNL     1       3.631   4.064  17.396  0.00  0.00    +0.000 N 
ATOM     12  C   UNL     1       3.415   4.338  18.822  0.00  0.00    +0.000 C 
ATOM     13  H   UNL     1       4.017   0.785  22.131  0.00  0.00    +0.000 HD
ENDROOT
BRANCH  11  14
ATOM     14  C   UNL     1       4.910   4.307  16.906  0.00  0.00    +0.000 A 
ATOM     15  N   UNL     1       5.220   4.125  15.591  0.00  0.00    +0.000 NA
ATOM     16  C   UNL     1       6.478   4.368  15.169  0.00  0.00    +0.000 A 
ATOM     17  N   UNL     1       7.522   4.842  15.876  0.00  0.00    +0.000 NA
ATOM     18  C   UNL     1       7.167   5.062  17.150  0.00  0.00    +0.000 A 
ATOM     19  N   UNL     1       7.999   5.564  18.114  0.00  0.00    +0.000 N 
ATOM     20  C   UNL     1       7.317   5.695  19.296  0.00  0.00    +0.000 A 
ATOM     21  C   UNL     1       6.027   5.262  19.084  0.00  0.00    +0.000 A 
ATOM     22  C   UNL     1       5.928   4.832  17.728  0.00  0.00    +0.000 A 
ATOM     23  H   UNL     1       8.966   5.802  17.949  0.00  0.00    +0.000 HD
ENDBRANCH  11  14
BRANCH   1  24
ATOM     24  C   UNL     1       6.070   0.646  21.687  0.00  0.00    +0.000 C 
BRANCH  24  26
ATOM     25  C   UNL     1       7.354  -1.492  22.158  0.00  0.00    +0.000 C 
ATOM     26  C   UNL     1       6.058  -0.721  22.361  0.00  0.00    +0.000 C 
ENDBRANCH  24  26
ENDBRANCH   1  24
TORSDOF 3
ENDMDL
MODEL 5
REMARK VINA RESULT:      -6.9      0.904      1.901
REMARK  Name = 
REMARK  4 active torsions:
REMARK  status: ('A' for Active; 'I' for Inactive)
REMARK    1  A    between atoms: C_1  and  C_2
REMARK    2  A    between atoms: C_2  and  C_3
REMARK    3  A    between atoms: C_3  and  N_4
REMARK    4  A    between atoms: N_14  and  C_15
REMARK                            x       y       z     vdW  Elec       q    Type
REMARK                         _______ _______ _______ _____ _____    ______ ____
ROOT
ATOM      1  N   UNL     1       1.497   6.580  20.328  0.00  0.00    +0.000 N 
ATOM      2  C   UNL     1       2.352   5.672  19.764  0.00  0.00    +0.000 C 
ATOM      3  O   UNL     1       3.401   6.012  19.231  0.00  0.00    +0.000 OA
ATOM      4  N   UNL     1       1.932   4.358  19.824  0.00  0.00    +0.000 N 
ATOM      5  C   UNL     1       0.659   3.889  20.349  0.00  0.00    +0.000 C 
ATOM      6  C   UNL     1       0.445   2.553  19.678  0.00  0.00    +0.000 C 
ATOM      7  C   UNL     1       1.858   1.996  19.535  0.00  0.00    +0.000 C 
ATOM      8  C   UNL     1       2.759   3.241  19.310  0.00  0.00    +0.000 C 
ATOM      9  C   UNL     1       4.078   3.110  20.088  0.00  0.00    +0.000 C 
ATOM     10  C   UNL     1       5.211   3.053  19.075  0.00  0.00    +0.000 C 
ATOM     11  N   UNL     1       4.637   3.295  17.767  0.00  0.00    +0.000 N 
ATOM     12  C   UNL     1       3.173   3.396  17.817  0.00  0.00    +0.000 C 
ATOM     13  H   UNL     1       1.014   6.255  21.149  0.00  0.00    +0.000 HD
ENDROOT
BRANCH  11  14
ATOM     14  C   UNL     1       5.290   4.181  16.916  0.00  0.00    +0.000 A 
ATOM     15  N   UNL     1       4.986   4.256  15.590  0.00  0.00    +0.000 NA
ATOM     16  C   UNL     1       5.654   5.128  14.807  0.00  0.00    +0.000 A 
ATOM     17  N   UNL     1       6.593   6.024  15.164  0.00  0.00    +0.000 NA
ATOM     18  C   UNL     1       6.827   5.962  16.482  0.00  0.00    +0.000 A 
ATOM     19  N   UNL     1       7.711   6.762  17.155  0.00  0.00    +0.000 N 
ATOM     20  C   UNL     1       7.687   6.461  18.493  0.00  0.00    +0.000 A 
ATOM     21  C   UNL     1       6.775   5.446  18.676  0.00  0.00    +0.000 A 
ATOM     22  C   UNL     1       6.241   5.103  17.400  0.00  0.00    +0.000 A 
ATOM     23  H   UNL     1       8.279   7.467  16.708  0.00  0.00    +0.000 HD
ENDBRANCH  11  14
BRANCH   1  24
ATOM     24  C   UNL     1       1.867   7.982  20.299  0.00  0.00    +0.000 C 
BRANCH  24  26
ATOM     25  C   UNL     1      -0.187   8.724  21.592  0.00  0.00    +0.000 C 
ATOM     26  C   UNL     1       1.331   8.759  21.495  0.00  0.00    +0.000 C 
ENDBRANCH  24  26
ENDBRANCH   1  24
TORSDOF 3
ENDMDL
MODEL 6
REMARK VINA RESULT:      -6.6      2.550      7.312
REMARK  Name = 
REMARK  4 active torsions:
REMARK  status: ('A' for Active; 'I' for Inactive)
REMARK    1  A    between atoms: C_1  and  C_2
REMARK    2  A    between atoms: C_2  and  C_3
REMARK    3  A    between atoms: C_3  and  N_4
REMARK    4  A    between atoms: N_14  and  C_15
REMARK                            x       y       z     vdW  Elec       q    Type
REMARK                         _______ _______ _______ _____ _____    ______ ____
ROOT
ATOM      1  N   UNL     1       6.447   4.707  14.366  0.00  0.00    +0.000 N 
ATOM      2  C   UNL     1       6.001   4.724  15.659  0.00  0.00    +0.000 C 
ATOM      3  O   UNL     1       5.082   4.008  16.039  0.00  0.00    +0.000 OA
ATOM      4  N   UNL     1       6.648   5.618  16.490  0.00  0.00    +0.000 N 
ATOM      5  C   UNL     1       7.675   6.567  16.091  0.00  0.00    +0.000 C 
ATOM      6  C   UNL     1       7.621   7.646  17.147  0.00  0.00    +0.000 C 
ATOM      7  C   UNL     1       7.247   6.884  18.415  0.00  0.00    +0.000 C 
ATOM      8  C   UNL     1       6.327   5.728  17.933  0.00  0.00    +0.000 C 
ATOM      9  C   UNL     1       6.646   4.426  18.684  0.00  0.00    +0.000 C 
ATOM     10  C   UNL     1       5.416   4.045  19.495  0.00  0.00    +0.000 C 
ATOM     11  N   UNL     1       4.358   4.968  19.138  0.00  0.00    +0.000 N 
ATOM     12  C   UNL     1       4.826   6.019  18.226  0.00  0.00    +0.000 C 
ATOM     13  H   UNL     1       7.438   4.852  14.257  0.00  0.00    +0.000 HD
ENDROOT
BRANCH  11  14
ATOM     14  C   UNL     1       3.092   4.451  18.889  0.00  0.00    +0.000 A 
ATOM     15  N   UNL     1       2.537   4.482  17.644  0.00  0.00    +0.000 NA
ATOM     16  C   UNL     1       1.302   3.973  17.457  0.00  0.00    +0.000 A 
ATOM     17  N   UNL     1       0.508   3.354  18.351  0.00  0.00    +0.000 NA
ATOM     18  C   UNL     1       1.106   3.291  19.548  0.00  0.00    +0.000 A 
ATOM     19  N   UNL     1       0.564   2.701  20.659  0.00  0.00    +0.000 N 
ATOM     20  C   UNL     1       1.446   2.783  21.707  0.00  0.00    +0.000 A 
ATOM     21  C   UNL     1       2.567   3.443  21.258  0.00  0.00    +0.000 A 
ATOM     22  C   UNL     1       2.351   3.794  19.893  0.00  0.00    +0.000 A 
ATOM     23  H   UNL     1      -0.348   2.270  20.674  0.00  0.00    +0.000 HD
ENDBRANCH  11  14
BRANCH   1  24
ATOM     24  C   UNL     1       5.813   3.797  13.431  0.00  0.00    +0.000 C 
BRANCH  24  26
ATOM     25  C   UNL     1       6.447   2.236  11.534  0.00  0.00    +0.000 C 
ATOM     26  C   UNL     1       6.611   3.620  12.146  0.00  0.00    +0.000 C 
ENDBRANCH  24  26
ENDBRANCH   1  24
TORSDOF 3
ENDMDL
MODEL 7
REMARK VINA RESULT:      -6.5      2.195      5.451
REMARK  Name = 
REMARK  4 active torsions:
REMARK  status: ('A' for Active; 'I' for Inactive)
REMARK    1  A    between atoms: C_1  and  C_2
REMARK    2  A    between atoms: C_2  and  C_3
REMARK    3  A    between atoms: C_3  and  N_4
REMARK    4  A    between atoms: N_14  and  C_15
REMARK                            x       y       z     vdW  Elec       q    Type
REMARK                         _______ _______ _______ _____ _____    ______ ____
ROOT
ATOM      1  N   UNL     1       3.411   8.058  17.535  0.00  0.00    +0.000 N 
ATOM      2  C   UNL     1       3.747   6.751  17.759  0.00  0.00    +0.000 C 
ATOM      3  O   UNL     1       2.941   5.938  18.196  0.00  0.00    +0.000 OA
ATOM      4  N   UNL     1       5.060   6.427  17.477  0.00  0.00    +0.000 N 
ATOM      5  C   UNL     1       6.097   7.355  17.052  0.00  0.00    +0.000 C 
ATOM      6  C   UNL     1       7.389   6.676  17.441  0.00  0.00    +0.000 C 
ATOM      7  C   UNL     1       7.084   5.193  17.254  0.00  0.00    +0.000 C 
ATOM      8  C   UNL     1       5.579   5.046  17.611  0.00  0.00    +0.000 C 
ATOM      9  C   UNL     1       4.878   4.082  16.642  0.00  0.00    +0.000 C 
ATOM     10  C   UNL     1       4.403   2.880  17.444  0.00  0.00    +0.000 C 
ATOM     11  N   UNL     1       4.655   3.164  18.842  0.00  0.00    +0.000 N 
ATOM     12  C   UNL     1       5.376   4.430  19.027  0.00  0.00    +0.000 C 
ATOM     13  H   UNL     1       3.862   8.482  16.741  0.00  0.00    +0.000 HD
ENDROOT
BRANCH  11  14
ATOM     14  C   UNL     1       3.649   2.884  19.761  0.00  0.00    +0.000 A 
ATOM     15  N   UNL     1       3.927   2.618  21.068  0.00  0.00    +0.000 NA
ATOM     16  C   UNL     1       2.915   2.346  21.918  0.00  0.00    +0.000 A 
ATOM     17  N   UNL     1       1.592   2.350  21.671  0.00  0.00    +0.000 NA
ATOM     18  C   UNL     1       1.352   2.669  20.392  0.00  0.00    +0.000 A 
ATOM     19  N   UNL     1       0.105   2.778  19.837  0.00  0.00    +0.000 N 
ATOM     20  C   UNL     1       0.210   3.149  18.521  0.00  0.00    +0.000 A 
ATOM     21  C   UNL     1       1.550   3.272  18.229  0.00  0.00    +0.000 A 
ATOM     22  C   UNL     1       2.286   2.943  19.405  0.00  0.00    +0.000 A 
ATOM     23  H   UNL     1      -0.750   2.613  20.347  0.00  0.00    +0.000 HD
ENDBRANCH  11  14
BRANCH   1  24
ATOM     24  C   UNL     1       2.050   8.476  17.814  0.00  0.00    +0.000 C 
BRANCH  24  26
ATOM     25  C   UNL     1       0.850  10.394  18.962  0.00  0.00    +0.000 C 
ATOM     26  C   UNL     1       1.913   9.986  17.952  0.00  0.00    +0.000 C 
ENDBRANCH  24  26
ENDBRANCH   1  24
TORSDOF 3
ENDMDL
MODEL 8
REMARK VINA RESULT:      -6.3      2.031      6.012
REMARK  Name = 
REMARK  4 active torsions:
REMARK  status: ('A' for Active; 'I' for Inactive)
REMARK    1  A    between atoms: C_1  and  C_2
REMARK    2  A    between atoms: C_2  and  C_3
REMARK    3  A    between atoms: C_3  and  N_4
REMARK    4  A    between atoms: N_14  and  C_15
REMARK                            x       y       z     vdW  Elec       q    Type
REMARK                         _______ _______ _______ _____ _____    ______ ____
ROOT
ATOM      1  N   UNL     1       6.551   4.119  18.540  0.00  0.00    +0.000 N 
ATOM      2  C   UNL     1       5.230   4.462  18.628  0.00  0.00    +0.000 C 
ATOM      3  O   UNL     1       4.792   5.497  18.140  0.00  0.00    +0.000 OA
ATOM      4  N   UNL     1       4.439   3.567  19.323  0.00  0.00    +0.000 N 
ATOM      5  C   UNL     1       4.902   2.373  20.013  0.00  0.00    +0.000 C 
ATOM      6  C   UNL     1       3.835   2.100  21.047  0.00  0.00    +0.000 C 
ATOM      7  C   UNL     1       2.550   2.557  20.363  0.00  0.00    +0.000 C 
ATOM      8  C   UNL     1       2.976   3.755  19.470  0.00  0.00    +0.000 C 
ATOM      9  C   UNL     1       2.262   3.705  18.110  0.00  0.00    +0.000 C 
ATOM     10  C   UNL     1       1.368   4.933  18.010  0.00  0.00    +0.000 C 
ATOM     11  N   UNL     1       1.641   5.763  19.165  0.00  0.00    +0.000 N 
ATOM     12  C   UNL     1       2.575   5.121  20.099  0.00  0.00    +0.000 C 
ATOM     13  H   UNL     1       6.729   3.133  18.450  0.00  0.00    +0.000 HD
ENDROOT
BRANCH  11  14
ATOM     14  C   UNL     1       1.805   7.130  18.968  0.00  0.00    +0.000 A 
ATOM     15  N   UNL     1       2.277   7.633  17.793  0.00  0.00    +0.000 NA
ATOM     16  C   UNL     1       2.424   8.967  17.655  0.00  0.00    +0.000 A 
ATOM     17  N   UNL     1       2.106   9.938  18.532  0.00  0.00    +0.000 NA
ATOM     18  C   UNL     1       1.593   9.413  19.653  0.00  0.00    +0.000 A 
ATOM     19  N   UNL     1       1.153  10.142  20.724  0.00  0.00    +0.000 N 
ATOM     20  C   UNL     1       0.660   9.302  21.690  0.00  0.00    +0.000 A 
ATOM     21  C   UNL     1       0.795   8.012  21.228  0.00  0.00    +0.000 A 
ATOM     22  C   UNL     1       1.412   8.069  19.944  0.00  0.00    +0.000 A 
ATOM     23  H   UNL     1       1.189  11.150  20.767  0.00  0.00    +0.000 HD
ENDBRANCH  11  14
BRANCH   1  24
ATOM     24  C   UNL     1       7.447   5.013  17.830  0.00  0.00    +0.000 C 
BRANCH  24  26
ATOM     25  C   UNL     1       7.735   7.534  17.822  0.00  0.00    +0.000 C 
ATOM     26  C   UNL     1       7.808   6.252  18.638  0.00  0.00    +0.000 C 
ENDBRANCH  24  26
ENDBRANCH   1  24
TORSDOF 3
ENDMDL
MODEL 9
REMARK VINA RESULT:      -6.1      8.008     11.805
REMARK  Name = 
REMARK  4 active torsions:
REMARK  status: ('A' for Active; 'I' for Inactive)
REMARK    1  A    between atoms: C_1  and  C_2
REMARK    2  A    between atoms: C_2  and  C_3
REMARK    3  A    between atoms: C_3  and  N_4
REMARK    4  A    between atoms: N_14  and  C_15
REMARK                            x       y       z     vdW  Elec       q    Type
REMARK                         _______ _______ _______ _____ _____    ______ ____
ROOT
ATOM      1  N   UNL     1      -0.866  10.423  17.380  0.00  0.00    +0.000 N 
ATOM      2  C   UNL     1      -1.015  10.993  18.615  0.00  0.00    +0.000 C 
ATOM      3  O   UNL     1      -2.091  11.005  19.199  0.00  0.00    +0.000 OA
ATOM      4  N   UNL     1       0.128  11.568  19.136  0.00  0.00    +0.000 N 
ATOM      5  C   UNL     1       1.412  11.681  18.462  0.00  0.00    +0.000 C 
ATOM      6  C   UNL     1       2.097  12.838  19.151  0.00  0.00    +0.000 C 
ATOM      7  C   UNL     1       1.606  12.736  20.592  0.00  0.00    +0.000 C 
ATOM      8  C   UNL     1       0.158  12.183  20.484  0.00  0.00    +0.000 C 
ATOM      9  C   UNL     1      -0.115  11.145  21.584  0.00  0.00    +0.000 C 
ATOM     10  C   UNL     1      -1.208  11.700  22.485  0.00  0.00    +0.000 C 
ATOM     11  N   UNL     1      -1.686  12.928  21.881  0.00  0.00    +0.000 N 
ATOM     12  C   UNL     1      -0.907  13.299  20.693  0.00  0.00    +0.000 C 
ATOM     13  H   UNL     1       0.024   9.978  17.223  0.00  0.00    +0.000 HD
ENDROOT
BRANCH  11  14
ATOM     14  C   UNL     1      -3.060  13.133  21.810  0.00  0.00    +0.000 A 
ATOM     15  N   UNL     1      -3.665  13.535  20.657  0.00  0.00    +0.000 NA
ATOM     16  C   UNL     1      -5.001  13.726  20.643  0.00  0.00    +0.000 A 
ATOM     17  N   UNL     1      -5.886  13.517  21.635  0.00  0.00    +0.000 NA
ATOM     18  C   UNL     1      -5.265  13.070  22.735  0.00  0.00    +0.000 A 
ATOM     19  N   UNL     1      -5.895  12.744  23.906  0.00  0.00    +0.000 N 
ATOM     20  C   UNL     1      -4.976  12.292  24.819  0.00  0.00    +0.000 A 
ATOM     21  C   UNL     1      -3.737  12.337  24.221  0.00  0.00    +0.000 A 
ATOM     22  C   UNL     1      -3.906  12.855  22.904  0.00  0.00    +0.000 A 
ATOM     23  H   UNL     1      -6.890  12.826  24.047  0.00  0.00    +0.000 HD
ENDBRANCH  11  14
BRANCH   1  24
ATOM     24  C   UNL     1      -2.024   9.803  16.765  0.00  0.00    +0.000 C 
BRANCH  24  26
ATOM     25  C   UNL     1      -2.996  10.077  14.437  0.00  0.00    +0.000 C 
ATOM     26  C   UNL     1      -2.738  10.728  15.788  0.00  0.00    +0.000 C 
ENDBRANCH  24  26
ENDBRANCH   1  24
TORSDOF 3
ENDMDL
