MODEL 1
REMARK VINA RESULT:      -7.7      0.000      0.000
REMARK  Name = 
REMARK  4 active torsions:
REMARK  status: ('A' for Active; 'I' for Inactive)
REMARK    1  A    between atoms: C_1  and  N_2
REMARK    2  A    between atoms: N_5  and  C_6
REMARK    3  A    between atoms: C_10  and  C_11
REMARK    4  A    between atoms: C_19  and  N_20
REMARK                            x       y       z     vdW  Elec       q    Type
REMARK                         _______ _______ _______ _____ _____    ______ ____
ROOT
ATOM      1  C   UNL     1       5.581   4.338  18.414  0.00  0.00    +0.000 A 
ATOM      2  N   UNL     1       6.665   4.751  19.078  0.00  0.00    +0.000 NA
ATOM      3  C   UNL     1       7.766   4.977  18.341  0.00  0.00    +0.000 A 
ATOM      4  N   UNL     1       7.875   4.855  17.009  0.00  0.00    +0.000 NA
ATOM      5  C   UNL     1       6.752   4.502  16.338  0.00  0.00    +0.000 A 
ATOM      6  C   UNL     1       5.563   4.201  17.009  0.00  0.00    +0.000 A 
ENDROOT
BRANCH   5   7
ATOM      7  C   UNL     1       6.875   4.528  14.858  0.00  0.00    +0.000 A 
ATOM      8  C   UNL     1       7.766   5.399  14.185  0.00  0.00    +0.000 A 
ATOM      9  C   UNL     1       7.881   5.432  12.797  0.00  0.00    +0.000 A 
ATOM     10  C   UNL     1       7.145   4.537  12.046  0.00  0.00    +0.000 A 
ATOM     11  F   UNL     1       7.294   4.524  10.714  0.00  0.00    +0.000 F 
ATOM     12  C   UNL     1       6.279   3.651  12.669  0.00  0.00    +0.000 A 
ATOM     13  F   UNL     1       5.575   2.773  11.938  0.00  0.00    +0.000 F 
ATOM     14  C   UNL     1       6.131   3.648  14.058  0.00  0.00    +0.000 A 
ENDBRANCH   5   7
BRANCH   1  19
ATOM     15  C   UNL     1       0.460   3.227  20.194  0.00  0.00    +0.000 C 
ATOM     16  N   UNL     1       1.871   3.570  20.369  0.00  0.00    +0.000 NA
ATOM     17  C   UNL     1       2.173   4.870  19.709  0.00  0.00    +0.000 C 
ATOM     18  C   UNL     1       3.685   5.233  19.712  0.00  0.00    +0.000 C 
ATOM     19  N   UNL     1       4.387   4.109  19.092  0.00  0.00    +0.000 N 
ATOM     20  C   UNL     1       4.231   2.861  19.848  0.00  0.00    +0.000 C 
ATOM     21  C   UNL     1       2.727   2.495  19.813  0.00  0.00    +0.000 C 
ENDBRANCH   1  19
BRANCH   6  22
ATOM     22  N   UNL     1       4.340   3.938  16.334  0.00  0.00    +0.000 N 
ATOM     23  H   UNL     1       4.080   2.959  16.333  0.00  0.00    +0.000 HD
ATOM     24  H   UNL     1       3.610   4.574  16.631  0.00  0.00    +0.000 HD
ENDBRANCH   6  22
TORSDOF 3
ENDMDL
MODEL 2
REMARK VINA RESULT:      -7.6      0.587      1.436
REMARK  Name = 
REMARK  4 active torsions:
REMARK  status: ('A' for Active; 'I' for Inactive)
REMARK    1  A    between atoms: C_1  and  N_2
REMARK    2  A    between atoms: N_5  and  C_6
REMARK    3  A    between atoms: C_10  and  C_11
REMARK    4  A    between atoms: C_19  and  N_20
REMARK                            x       y       z     vdW  Elec       q    Type
REMARK                         _______ _______ _______ _____ _____    ______ ____
ROOT
ATOM      1  C   UNL     1       5.556   4.336  18.406  0.00  0.00    +0.000 A 
ATOM      2  N   UNL     1       6.628   4.767  19.078  0.00  0.00    +0.000 NA
ATOM      3  C   UNL     1       7.736   4.997  18.351  0.00  0.00    +0.000 A 
ATOM      4  N   UNL     1       7.860   4.860  17.021  0.00  0.00    +0.000 NA
ATOM      5  C   UNL     1       6.748   4.488  16.342  0.00  0.00    +0.000 A 
ATOM      6  C   UNL     1       5.556   4.182  17.003  0.00  0.00    +0.000 A 
ENDROOT
BRANCH   5   7
ATOM      7  C   UNL     1       6.888   4.498  14.863  0.00  0.00    +0.000 A 
ATOM      8  C   UNL     1       6.164   3.614  14.026  0.00  0.00    +0.000 A 
ATOM      9  C   UNL     1       6.298   3.613  12.639  0.00  0.00    +0.000 A 
ATOM     10  C   UNL     1       7.119   4.554  12.048  0.00  0.00    +0.000 A 
ATOM     11  F   UNL     1       7.206   4.596  10.711  0.00  0.00    +0.000 F 
ATOM     12  C   UNL     1       7.826   5.453  12.832  0.00  0.00    +0.000 A 
ATOM     13  F   UNL     1       8.613   6.373  12.255  0.00  0.00    +0.000 F 
ATOM     14  C   UNL     1       7.727   5.424  14.225  0.00  0.00    +0.000 A 
ENDBRANCH   5   7
BRANCH   1  19
ATOM     15  C   UNL     1       0.424   3.205  20.141  0.00  0.00    +0.000 C 
ATOM     16  N   UNL     1       1.831   3.554  20.329  0.00  0.00    +0.000 NA
ATOM     17  C   UNL     1       2.134   4.855  19.669  0.00  0.00    +0.000 C 
ATOM     18  C   UNL     1       3.644   5.224  19.686  0.00  0.00    +0.000 C 
ATOM     19  N   UNL     1       4.357   4.103  19.074  0.00  0.00    +0.000 N 
ATOM     20  C   UNL     1       4.200   2.855  19.830  0.00  0.00    +0.000 C 
ATOM     21  C   UNL     1       2.698   2.482  19.781  0.00  0.00    +0.000 C 
ENDBRANCH   1  19
BRANCH   6  22
ATOM     22  N   UNL     1       4.343   3.899  16.318  0.00  0.00    +0.000 N 
ATOM     23  H   UNL     1       4.445   3.865  15.310  0.00  0.00    +0.000 HD
ATOM     24  H   UNL     1       3.864   3.105  16.726  0.00  0.00    +0.000 HD
ENDBRANCH   6  22
TORSDOF 3
ENDMDL
MODEL 3
REMARK VINA RESULT:      -7.0      0.839      1.853
REMARK  Name = 
REMARK  4 active torsions:
REMARK  status: ('A' for Active; 'I' for Inactive)
REMARK    1  A    between atoms: C_1  and  N_2
REMARK    2  A    between atoms: N_5  and  C_6
REMARK    3  A    between atoms: C_10  and  C_11
REMARK    4  A    between atoms: C_19  and  N_20
REMARK                            x       y       z     vdW  Elec       q    Type
REMARK                         _______ _______ _______ _____ _____    ______ ____
ROOT
ATOM      1  C   UNL     1       5.436   4.294  18.467  0.00  0.00    +0.000 A 
ATOM      2  N   UNL     1       6.447   4.818  19.167  0.00  0.00    +0.000 NA
ATOM      3  C   UNL     1       7.554   5.134  18.472  0.00  0.00    +0.000 A 
ATOM      4  N   UNL     1       7.731   4.998  17.149  0.00  0.00    +0.000 NA
ATOM      5  C   UNL     1       6.676   4.530  16.439  0.00  0.00    +0.000 A 
ATOM      6  C   UNL     1       5.492   4.131  17.066  0.00  0.00    +0.000 A 
ENDROOT
BRANCH   5   7
ATOM      7  C   UNL     1       6.861   4.540  14.965  0.00  0.00    +0.000 A 
ATOM      8  C   UNL     1       6.107   3.710  14.100  0.00  0.00    +0.000 A 
ATOM      9  C   UNL     1       6.282   3.710  12.717  0.00  0.00    +0.000 A 
ATOM     10  C   UNL     1       7.180   4.599  12.159  0.00  0.00    +0.000 A 
ATOM     11  F   UNL     1       7.310   4.644  10.826  0.00  0.00    +0.000 F 
ATOM     12  C   UNL     1       7.919   5.445  12.971  0.00  0.00    +0.000 A 
ATOM     13  F   UNL     1       8.781   6.316  12.426  0.00  0.00    +0.000 F 
ATOM     14  C   UNL     1       7.777   5.414  14.360  0.00  0.00    +0.000 A 
ENDBRANCH   5   7
BRANCH   1  19
ATOM     15  C   UNL     1       1.253   2.888  21.807  0.00  0.00    +0.000 C 
ATOM     16  N   UNL     1       1.839   3.314  20.537  0.00  0.00    +0.000 NA
ATOM     17  C   UNL     1       2.777   2.275  20.027  0.00  0.00    +0.000 C 
ATOM     18  C   UNL     1       3.563   2.716  18.759  0.00  0.00    +0.000 C 
ATOM     19  N   UNL     1       4.239   3.968  19.100  0.00  0.00    +0.000 N 
ATOM     20  C   UNL     1       3.299   5.044  19.432  0.00  0.00    +0.000 C 
ATOM     21  C   UNL     1       2.543   4.607  20.711  0.00  0.00    +0.000 C 
ENDBRANCH   1  19
BRANCH   6  22
ATOM     22  N   UNL     1       4.329   3.743  16.347  0.00  0.00    +0.000 N 
ATOM     23  H   UNL     1       4.487   3.626  15.353  0.00  0.00    +0.000 HD
ATOM     24  H   UNL     1       3.856   2.969  16.798  0.00  0.00    +0.000 HD
ENDBRANCH   6  22
TORSDOF 3
ENDMDL
MODEL 4
REMARK VINA RESULT:      -6.9      6.249      9.021
REMARK  Name = 
REMARK  4 active torsions:
REMARK  status: ('A' for Active; 'I' for Inactive)
REMARK    1  A    between atoms: C_1  and  N_2
REMARK    2  A    between atoms: N_5  and  C_6
REMARK    3  A    between atoms: C_10  and  C_11
REMARK    4  A    between atoms: C_19  and  N_20
REMARK                            x       y       z     vdW  Elec       q    Type
REMARK                         _______ _______ _______ _____ _____    ______ ____
ROOT
ATOM      1  C   UNL     1       2.654   7.116  18.616  0.00  0.00    +0.000 A 
ATOM      2  N   UNL     1       2.961   7.891  17.572  0.00  0.00    +0.000 NA
ATOM      3  C   UNL     1       2.415   9.120  17.560  0.00  0.00    +0.000 A 
ATOM      4  N   UNL     1       1.620   9.649  18.502  0.00  0.00    +0.000 NA
ATOM      5  C   UNL     1       1.371   8.880  19.590  0.00  0.00    +0.000 A 
ATOM      6  C   UNL     1       1.852   7.571  19.685  0.00  0.00    +0.000 A 
ENDROOT
BRANCH   5   7
ATOM      7  C   UNL     1       0.615   9.557  20.674  0.00  0.00    +0.000 A 
ATOM      8  C   UNL     1      -0.267  10.637  20.425  0.00  0.00    +0.000 A 
ATOM      9  C   UNL     1      -0.972  11.281  21.440  0.00  0.00    +0.000 A 
ATOM     10  C   UNL     1      -0.860  10.809  22.733  0.00  0.00    +0.000 A 
ATOM     11  F   UNL     1      -1.581  11.387  23.703  0.00  0.00    +0.000 F 
ATOM     12  C   UNL     1      -0.026   9.738  23.014  0.00  0.00    +0.000 A 
ATOM     13  F   UNL     1       0.072   9.274  24.269  0.00  0.00    +0.000 F 
ATOM     14  C   UNL     1       0.717   9.121  22.004  0.00  0.00    +0.000 A 
ENDBRANCH   5   7
BRANCH   1  19
ATOM     15  C   UNL     1       4.523   2.098  20.018  0.00  0.00    +0.000 C 
ATOM     16  N   UNL     1       4.252   3.190  19.083  0.00  0.00    +0.000 NA
ATOM     17  C   UNL     1       5.003   4.412  19.484  0.00  0.00    +0.000 C 
ATOM     18  C   UNL     1       4.649   5.665  18.634  0.00  0.00    +0.000 C 
ATOM     19  N   UNL     1       3.200   5.839  18.727  0.00  0.00    +0.000 N 
ATOM     20  C   UNL     1       2.459   4.704  18.166  0.00  0.00    +0.000 C 
ATOM     21  C   UNL     1       2.796   3.469  19.037  0.00  0.00    +0.000 C 
ENDBRANCH   1  19
BRANCH   6  22
ATOM     22  N   UNL     1       1.707   6.777  20.855  0.00  0.00    +0.000 N 
ATOM     23  H   UNL     1       0.746   6.683  21.165  0.00  0.00    +0.000 HD
ATOM     24  H   UNL     1       2.218   5.906  20.776  0.00  0.00    +0.000 HD
ENDBRANCH   6  22
TORSDOF 3
ENDMDL
MODEL 5
REMARK VINA RESULT:      -6.9      0.588      1.190
REMARK  Name = 
REMARK  4 active torsions:
REMARK  status: ('A' for Active; 'I' for Inactive)
REMARK    1  A    between atoms: C_1  and  N_2
REMARK    2  A    between atoms: N_5  and  C_6
REMARK    3  A    between atoms: C_10  and  C_11
REMARK    4  A    between atoms: C_19  and  N_20
REMARK                            x       y       z     vdW  Elec       q    Type
REMARK                         _______ _______ _______ _____ _____    ______ ____
ROOT
ATOM      1  C   UNL     1       5.525   4.325  18.504  0.00  0.00    +0.000 A 
ATOM      2  N   UNL     1       6.528   4.889  19.184  0.00  0.00    +0.000 NA
ATOM      3  C   UNL     1       7.609   5.246  18.468  0.00  0.00    +0.000 A 
ATOM      4  N   UNL     1       7.765   5.116  17.141  0.00  0.00    +0.000 NA
ATOM      5  C   UNL     1       6.716   4.606  16.452  0.00  0.00    +0.000 A 
ATOM      6  C   UNL     1       5.561   4.162  17.102  0.00  0.00    +0.000 A 
ENDROOT
BRANCH   5   7
ATOM      7  C   UNL     1       6.872   4.622  14.975  0.00  0.00    +0.000 A 
ATOM      8  C   UNL     1       7.808   5.458  14.319  0.00  0.00    +0.000 A 
ATOM      9  C   UNL     1       7.953   5.482  12.934  0.00  0.00    +0.000 A 
ATOM     10  C   UNL     1       7.202   4.610  12.170  0.00  0.00    +0.000 A 
ATOM     11  F   UNL     1       7.379   4.587  10.841  0.00  0.00    +0.000 F 
ATOM     12  C   UNL     1       6.292   3.758  12.777  0.00  0.00    +0.000 A 
ATOM     13  F   UNL     1       5.573   2.903  12.033  0.00  0.00    +0.000 F 
ATOM     14  C   UNL     1       6.114   3.765  14.162  0.00  0.00    +0.000 A 
ENDBRANCH   5   7
BRANCH   1  19
ATOM     15  C   UNL     1       1.415   2.972  21.954  0.00  0.00    +0.000 C 
ATOM     16  N   UNL     1       1.998   3.238  20.640  0.00  0.00    +0.000 NA
ATOM     17  C   UNL     1       3.092   2.268  20.354  0.00  0.00    +0.000 C 
ATOM     18  C   UNL     1       3.870   2.578  19.044  0.00  0.00    +0.000 C 
ATOM     19  N   UNL     1       4.354   3.953  19.160  0.00  0.00    +0.000 N 
ATOM     20  C   UNL     1       3.263   4.928  19.265  0.00  0.00    +0.000 C 
ATOM     21  C   UNL     1       2.513   4.628  20.586  0.00  0.00    +0.000 C 
ENDBRANCH   1  19
BRANCH   6  22
ATOM     22  N   UNL     1       4.400   3.729  16.406  0.00  0.00    +0.000 N 
ATOM     23  H   UNL     1       4.604   3.246  15.539  0.00  0.00    +0.000 HD
ATOM     24  H   UNL     1       3.758   3.246  17.023  0.00  0.00    +0.000 HD
ENDBRANCH   6  22
TORSDOF 3
ENDMDL
MODEL 6
REMARK VINA RESULT:      -6.9      1.662      1.944
REMARK  Name = 
REMARK  4 active torsions:
REMARK  status: ('A' for Active; 'I' for Inactive)
REMARK    1  A    between atoms: C_1  and  N_2
REMARK    2  A    between atoms: N_5  and  C_6
REMARK    3  A    between atoms: C_10  and  C_11
REMARK    4  A    between atoms: C_19  and  N_20
REMARK                            x       y       z     vdW  Elec       q    Type
REMARK                         _______ _______ _______ _____ _____    ______ ____
ROOT
ATOM      1  C   UNL     1       3.978   5.012  17.812  0.00  0.00    +0.000 A 
ATOM      2  N   UNL     1       3.878   6.339  17.937  0.00  0.00    +0.000 NA
ATOM      3  C   UNL     1       4.508   7.076  17.006  0.00  0.00    +0.000 A 
ATOM      4  N   UNL     1       5.202   6.611  15.955  0.00  0.00    +0.000 NA
ATOM      5  C   UNL     1       5.240   5.265  15.799  0.00  0.00    +0.000 A 
ATOM      6  C   UNL     1       4.656   4.405  16.733  0.00  0.00    +0.000 A 
ENDROOT
BRANCH   5   7
ATOM      7  C   UNL     1       5.886   4.800  14.545  0.00  0.00    +0.000 A 
ATOM      8  C   UNL     1       7.197   5.188  14.178  0.00  0.00    +0.000 A 
ATOM      9  C   UNL     1       7.804   4.760  12.998  0.00  0.00    +0.000 A 
ATOM     10  C   UNL     1       7.129   3.872  12.184  0.00  0.00    +0.000 A 
ATOM     11  F   UNL     1       7.731   3.412  11.079  0.00  0.00    +0.000 F 
ATOM     12  C   UNL     1       5.852   3.451  12.522  0.00  0.00    +0.000 A 
ATOM     13  F   UNL     1       5.203   2.578  11.736  0.00  0.00    +0.000 F 
ATOM     14  C   UNL     1       5.225   3.914  13.681  0.00  0.00    +0.000 A 
ENDBRANCH   5   7
BRANCH   1  19
ATOM     15  C   UNL     1       1.325   2.498  21.967  0.00  0.00    +0.000 C 
ATOM     16  N   UNL     1       1.944   2.558  20.644  0.00  0.00    +0.000 NA
ATOM     17  C   UNL     1       3.392   2.888  20.765  0.00  0.00    +0.000 C 
ATOM     18  C   UNL     1       4.091   3.126  19.397  0.00  0.00    +0.000 C 
ATOM     19  N   UNL     1       3.330   4.171  18.713  0.00  0.00    +0.000 N 
ATOM     20  C   UNL     1       1.946   3.771  18.436  0.00  0.00    +0.000 C 
ATOM     21  C   UNL     1       1.252   3.565  19.805  0.00  0.00    +0.000 C 
ENDBRANCH   1  19
BRANCH   6  22
ATOM     22  N   UNL     1       4.578   2.998  16.544  0.00  0.00    +0.000 N 
ATOM     23  H   UNL     1       5.118   2.468  17.219  0.00  0.00    +0.000 HD
ATOM     24  H   UNL     1       3.619   2.693  16.429  0.00  0.00    +0.000 HD
ENDBRANCH   6  22
TORSDOF 3
ENDMDL
MODEL 7
REMARK VINA RESULT:      -6.9      5.063      8.056
REMARK  Name = 
REMARK  4 active torsions:
REMARK  status: ('A' for Active; 'I' for Inactive)
REMARK    1  A    between atoms: C_1  and  N_2
REMARK    2  A    between atoms: N_5  and  C_6
REMARK    3  A    between atoms: C_10  and  C_11
REMARK    4  A    between atoms: C_19  and  N_20
REMARK                            x       y       z     vdW  Elec       q    Type
REMARK                         _______ _______ _______ _____ _____    ______ ____
ROOT
ATOM      1  C   UNL     1       3.663   5.072  18.906  0.00  0.00    +0.000 A 
ATOM      2  N   UNL     1       3.152   4.117  19.691  0.00  0.00    +0.000 NA
ATOM      3  C   UNL     1       2.253   4.515  20.607  0.00  0.00    +0.000 A 
ATOM      4  N   UNL     1       1.802   5.766  20.792  0.00  0.00    +0.000 NA
ATOM      5  C   UNL     1       2.275   6.714  19.947  0.00  0.00    +0.000 A 
ATOM      6  C   UNL     1       3.245   6.418  18.986  0.00  0.00    +0.000 A 
ENDROOT
BRANCH   5   7
ATOM      7  C   UNL     1       1.637   8.048  20.087  0.00  0.00    +0.000 A 
ATOM      8  C   UNL     1       1.373   8.884  18.974  0.00  0.00    +0.000 A 
ATOM      9  C   UNL     1       0.783  10.139  19.100  0.00  0.00    +0.000 A 
ATOM     10  C   UNL     1       0.378  10.563  20.351  0.00  0.00    +0.000 A 
ATOM     11  F   UNL     1      -0.244  11.745  20.470  0.00  0.00    +0.000 F 
ATOM     12  C   UNL     1       0.597   9.763  21.462  0.00  0.00    +0.000 A 
ATOM     13  F   UNL     1       0.191  10.172  22.674  0.00  0.00    +0.000 F 
ATOM     14  C   UNL     1       1.229   8.524  21.342  0.00  0.00    +0.000 A 
ENDBRANCH   5   7
BRANCH   1  19
ATOM     15  C   UNL     1       7.212   4.744  14.672  0.00  0.00    +0.000 C 
ATOM     16  N   UNL     1       6.487   4.218  15.828  0.00  0.00    +0.000 NA
ATOM     17  C   UNL     1       5.018   4.257  15.579  0.00  0.00    +0.000 C 
ATOM     18  C   UNL     1       4.167   3.860  16.818  0.00  0.00    +0.000 C 
ATOM     19  N   UNL     1       4.577   4.745  17.908  0.00  0.00    +0.000 N 
ATOM     20  C   UNL     1       5.989   4.576  18.271  0.00  0.00    +0.000 C 
ATOM     21  C   UNL     1       6.827   5.001  17.040  0.00  0.00    +0.000 C 
ENDBRANCH   1  19
BRANCH   6  22
ATOM     22  N   UNL     1       3.680   7.357  18.012  0.00  0.00    +0.000 N 
ATOM     23  H   UNL     1       2.972   8.037  17.760  0.00  0.00    +0.000 HD
ATOM     24  H   UNL     1       4.582   7.749  18.252  0.00  0.00    +0.000 HD
ENDBRANCH   6  22
TORSDOF 3
ENDMDL
MODEL 8
REMARK VINA RESULT:      -6.9      6.251      9.052
REMARK  Name = 
REMARK  4 active torsions:
REMARK  status: ('A' for Active; 'I' for Inactive)
REMARK    1  A    between atoms: C_1  and  N_2
REMARK    2  A    between atoms: N_5  and  C_6
REMARK    3  A    between atoms: C_10  and  C_11
REMARK    4  A    between atoms: C_19  and  N_20
REMARK                            x       y       z     vdW  Elec       q    Type
REMARK                         _______ _______ _______ _____ _____    ______ ____
ROOT
ATOM      1  C   UNL     1       2.651   7.079  18.669  0.00  0.00    +0.000 A 
ATOM      2  N   UNL     1       2.975   7.872  17.643  0.00  0.00    +0.000 NA
ATOM      3  C   UNL     1       2.425   9.099  17.641  0.00  0.00    +0.000 A 
ATOM      4  N   UNL     1       1.609   9.610  18.576  0.00  0.00    +0.000 NA
ATOM      5  C   UNL     1       1.342   8.822  19.646  0.00  0.00    +0.000 A 
ATOM      6  C   UNL     1       1.826   7.513  19.729  0.00  0.00    +0.000 A 
ENDROOT
BRANCH   5   7
ATOM      7  C   UNL     1       0.562   9.479  20.726  0.00  0.00    +0.000 A 
ATOM      8  C   UNL     1       0.664   9.086  22.083  0.00  0.00    +0.000 A 
ATOM      9  C   UNL     1      -0.071   9.694  23.098  0.00  0.00    +0.000 A 
ATOM     10  C   UNL     1      -0.883  10.766  22.784  0.00  0.00    +0.000 A 
ATOM     11  F   UNL     1      -1.547  11.392  23.766  0.00  0.00    +0.000 F 
ATOM     12  C   UNL     1      -0.990  11.197  21.471  0.00  0.00    +0.000 A 
ATOM     13  F   UNL     1      -1.770  12.246  21.170  0.00  0.00    +0.000 F 
ATOM     14  C   UNL     1      -0.289  10.559  20.445  0.00  0.00    +0.000 A 
ENDBRANCH   5   7
BRANCH   1  19
ATOM     15  C   UNL     1       4.547   2.062  20.036  0.00  0.00    +0.000 C 
ATOM     16  N   UNL     1       4.259   3.154  19.107  0.00  0.00    +0.000 NA
ATOM     17  C   UNL     1       5.016   4.377  19.495  0.00  0.00    +0.000 C 
ATOM     18  C   UNL     1       4.647   5.630  18.652  0.00  0.00    +0.000 C 
ATOM     19  N   UNL     1       3.199   5.802  18.770  0.00  0.00    +0.000 N 
ATOM     20  C   UNL     1       2.450   4.667  18.222  0.00  0.00    +0.000 C 
ATOM     21  C   UNL     1       2.803   3.432  19.086  0.00  0.00    +0.000 C 
ENDBRANCH   1  19
BRANCH   6  22
ATOM     22  N   UNL     1       1.661   6.700  20.883  0.00  0.00    +0.000 N 
ATOM     23  H   UNL     1       2.531   6.492  21.360  0.00  0.00    +0.000 HD
ATOM     24  H   UNL     1       0.920   7.049  21.479  0.00  0.00    +0.000 HD
ENDBRANCH   6  22
TORSDOF 3
ENDMDL
MODEL 9
REMARK VINA RESULT:      -6.8      1.721      2.391
REMARK  Name = 
REMARK  4 active torsions:
REMARK  status: ('A' for Active; 'I' for Inactive)
REMARK    1  A    between atoms: C_1  and  N_2
REMARK    2  A    between atoms: N_5  and  C_6
REMARK    3  A    between atoms: C_10  and  C_11
REMARK    4  A    between atoms: C_19  and  N_20
REMARK                            x       y       z     vdW  Elec       q    Type
REMARK                         _______ _______ _______ _____ _____    ______ ____
ROOT
ATOM      1  C   UNL     1       3.920   5.031  17.946  0.00  0.00    +0.000 A 
ATOM      2  N   UNL     1       3.793   6.355  18.079  0.00  0.00    +0.000 NA
ATOM      3  C   UNL     1       4.428   7.111  17.166  0.00  0.00    +0.000 A 
ATOM      4  N   UNL     1       5.150   6.667  16.125  0.00  0.00    +0.000 NA
ATOM      5  C   UNL     1       5.216   5.323  15.960  0.00  0.00    +0.000 A 
ATOM      6  C   UNL     1       4.630   4.445  16.876  0.00  0.00    +0.000 A 
ENDROOT
BRANCH   5   7
ATOM      7  C   UNL     1       5.893   4.880  14.715  0.00  0.00    +0.000 A 
ATOM      8  C   UNL     1       5.312   3.943  13.826  0.00  0.00    +0.000 A 
ATOM      9  C   UNL     1       5.947   3.518  12.661  0.00  0.00    +0.000 A 
ATOM     10  C   UNL     1       7.163   4.078  12.322  0.00  0.00    +0.000 A 
ATOM     11  F   UNL     1       7.751   3.716  11.173  0.00  0.00    +0.000 F 
ATOM     12  C   UNL     1       7.754   5.017  13.154  0.00  0.00    +0.000 A 
ATOM     13  F   UNL     1       8.929   5.568  12.817  0.00  0.00    +0.000 F 
ATOM     14  C   UNL     1       7.139   5.410  14.345  0.00  0.00    +0.000 A 
ENDBRANCH   5   7
BRANCH   1  19
ATOM     15  C   UNL     1       1.271   2.428  22.049  0.00  0.00    +0.000 C 
ATOM     16  N   UNL     1       1.883   2.518  20.724  0.00  0.00    +0.000 NA
ATOM     17  C   UNL     1       3.334   2.835  20.846  0.00  0.00    +0.000 C 
ATOM     18  C   UNL     1       4.028   3.103  19.480  0.00  0.00    +0.000 C 
ATOM     19  N   UNL     1       3.271   4.172  18.829  0.00  0.00    +0.000 N 
ATOM     20  C   UNL     1       1.882   3.789  18.549  0.00  0.00    +0.000 C 
ATOM     21  C   UNL     1       1.194   3.553  19.916  0.00  0.00    +0.000 C 
ENDBRANCH   1  19
BRANCH   6  22
ATOM     22  N   UNL     1       4.581   3.038  16.676  0.00  0.00    +0.000 N 
ATOM     23  H   UNL     1       5.110   2.513  17.362  0.00  0.00    +0.000 HD
ATOM     24  H   UNL     1       3.632   2.718  16.530  0.00  0.00    +0.000 HD
ENDBRANCH   6  22
TORSDOF 3
ENDMDL
