MODEL 1
REMARK VINA RESULT:      -8.0      0.000      0.000
REMARK  Name = 
REMARK  12 active torsions:
REMARK  status: ('A' for Active; 'I' for Inactive)
REMARK    1  A    between atoms: C_1  and  O_2
REMARK    2  A    between atoms: O_2  and  C_3
REMARK    3  A    between atoms: C_3  and  C_4
REMARK    4  A    between atoms: C_4  and  N_5
REMARK    5  A    between atoms: N_5  and  C_6
REMARK    6  A    between atoms: C_6  and  C_7
REMARK    7  A    between atoms: C_18  and  C_20
REMARK    8  A    between atoms: C_20  and  N_21
REMARK    9  A    between atoms: C_24  and  C_25
REMARK   10  A    between atoms: C_25  and  C_27
REMARK   11  A    between atoms: C_30  and  O_31
REMARK   12  A    between atoms: O_31  and  C_32
REMARK                            x       y       z     vdW  Elec       q    Type
REMARK                         _______ _______ _______ _____ _____    ______ ____
ROOT
ATOM      1  N   UNL     1       0.542   9.232  20.692  0.00  0.00    +0.000 N 
ATOM      2  C   UNL     1       1.164   8.001  20.832  0.00  0.00    +0.000 C 
ATOM      3  O   UNL     1       0.817   7.209  21.720  0.00  0.00    +0.000 OA
ENDROOT
BRANCH   1   4
ATOM      4  C   UNL     1      -0.545   9.560  21.634  0.00  0.00    +0.000 C 
BRANCH   4   5
ATOM      5  C   UNL     1      -0.120   9.946  23.065  0.00  0.00    +0.000 C 
BRANCH   5   7
ATOM      6  C   UNL     1      -1.835  11.543  22.931  0.00  0.00    +0.000 C 
ATOM      7  O   UNL     1      -0.515  11.279  23.409  0.00  0.00    +0.000 OA
ENDBRANCH   5   7
ENDBRANCH   4   5
ENDBRANCH   1   4
BRANCH   1   8
ATOM      8  C   UNL     1       0.829  10.179  19.589  0.00  0.00    +0.000 C 
BRANCH   8   9
ATOM      9  C   UNL     1      -0.447  10.660  18.876  0.00  0.00    +0.000 A 
ATOM     10  N   UNL     1      -0.807  10.154  17.736  0.00  0.00    +0.000 NA
ATOM     11  C   UNL     1      -2.020  10.557  17.218  0.00  0.00    +0.000 A 
ATOM     12  C   UNL     1      -2.892  11.340  17.864  0.00  0.00    +0.000 A 
ATOM     13  C   UNL     1      -2.433  11.970  19.120  0.00  0.00    +0.000 A 
ATOM     14  O   UNL     1      -3.135  12.740  19.763  0.00  0.00    +0.000 OA
ATOM     15  N   UNL     1      -1.177  11.623  19.516  0.00  0.00    +0.000 N 
ATOM     16  C   UNL     1      -4.282  11.606  17.393  0.00  0.00    +0.000 C 
ATOM     17  O   UNL     1      -4.431  11.336  15.990  0.00  0.00    +0.000 OA
ATOM     18  C   UNL     1      -3.916  10.049  15.640  0.00  0.00    +0.000 C 
ATOM     19  C   UNL     1      -2.404  10.000  15.867  0.00  0.00    +0.000 C 
ATOM     20  H   UNL     1      -0.854  12.041  20.375  0.00  0.00    +0.000 HD
ENDBRANCH   8   9
ENDBRANCH   1   8
BRANCH   2  21
ATOM     21  C   UNL     1       2.239   7.557  19.834  0.00  0.00    +0.000 C 
BRANCH  21  22
ATOM     22  N   UNL     1       2.059   6.167  19.344  0.00  0.00    +0.000 NA
ATOM     23  C   UNL     1       2.649   5.989  18.009  0.00  0.00    +0.000 C 
ATOM     24  C   UNL     1       2.527   4.536  17.535  0.00  0.00    +0.000 C 
ATOM     25  C   UNL     1       3.196   3.566  18.511  0.00  0.00    +0.000 C 
ATOM     26  C   UNL     1       2.605   3.793  19.908  0.00  0.00    +0.000 C 
ATOM     27  C   UNL     1       2.667   5.261  20.336  0.00  0.00    +0.000 C 
BRANCH  25  28
ATOM     28  C   UNL     1       4.724   3.717  18.515  0.00  0.00    +0.000 C 
ATOM     29  O   UNL     1       5.418   3.427  19.489  0.00  0.00    +0.000 OA
BRANCH  28  30
ATOM     30  C   UNL     1       5.428   4.217  17.302  0.00  0.00    +0.000 A 
ATOM     31  C   UNL     1       6.229   5.360  17.421  0.00  0.00    +0.000 A 
ATOM     32  C   UNL     1       6.986   5.804  16.333  0.00  0.00    +0.000 A 
ATOM     33  C   UNL     1       6.971   5.096  15.130  0.00  0.00    +0.000 A 
ATOM     34  C   UNL     1       6.144   3.980  15.001  0.00  0.00    +0.000 A 
ATOM     35  C   UNL     1       5.372   3.540  16.084  0.00  0.00    +0.000 A 
BRANCH  33  36
ATOM     36  O   UNL     1       7.765   5.599  14.136  0.00  0.00    +0.000 OA
ATOM     37  C   UNL     1       7.633   4.960  12.869  0.00  0.00    +0.000 C 
ENDBRANCH  33  36
ENDBRANCH  28  30
ENDBRANCH  25  28
ENDBRANCH  21  22
ENDBRANCH   2  21
TORSDOF 10
ENDMDL
MODEL 2
REMARK VINA RESULT:      -7.8      1.047      1.748
REMARK  Name = 
REMARK  12 active torsions:
REMARK  status: ('A' for Active; 'I' for Inactive)
REMARK    1  A    between atoms: C_1  and  O_2
REMARK    2  A    between atoms: O_2  and  C_3
REMARK    3  A    between atoms: C_3  and  C_4
REMARK    4  A    between atoms: C_4  and  N_5
REMARK    5  A    between atoms: N_5  and  C_6
REMARK    6  A    between atoms: C_6  and  C_7
REMARK    7  A    between atoms: C_18  and  C_20
REMARK    8  A    between atoms: C_20  and  N_21
REMARK    9  A    between atoms: C_24  and  C_25
REMARK   10  A    between atoms: C_25  and  C_27
REMARK   11  A    between atoms: C_30  and  O_31
REMARK   12  A    between atoms: O_31  and  C_32
REMARK                            x       y       z     vdW  Elec       q    Type
REMARK                         _______ _______ _______ _____ _____    ______ ____
ROOT
ATOM      1  N   UNL     1       0.524   9.798  20.296  0.00  0.00    +0.000 N 
ATOM      2  C   UNL     1       1.286   8.658  20.501  0.00  0.00    +0.000 C 
ATOM      3  O   UNL     1       1.236   8.043  21.576  0.00  0.00    +0.000 OA
ENDROOT
BRANCH   1   4
ATOM      4  C   UNL     1      -0.344  10.248  21.400  0.00  0.00    +0.000 C 
BRANCH   4   5
ATOM      5  C   UNL     1      -0.143  11.698  21.887  0.00  0.00    +0.000 C 
BRANCH   5   7
ATOM      6  C   UNL     1      -1.182  13.279  23.276  0.00  0.00    +0.000 C 
ATOM      7  O   UNL     1      -0.731  11.926  23.172  0.00  0.00    +0.000 OA
ENDBRANCH   5   7
ENDBRANCH   4   5
ENDBRANCH   1   4
BRANCH   1   8
ATOM      8  C   UNL     1       0.452  10.518  19.003  0.00  0.00    +0.000 C 
BRANCH   8   9
ATOM      9  C   UNL     1      -0.981  10.591  18.448  0.00  0.00    +0.000 A 
ATOM     10  N   UNL     1      -1.911  11.238  19.082  0.00  0.00    +0.000 NA
ATOM     11  C   UNL     1      -3.139  11.352  18.463  0.00  0.00    +0.000 A 
ATOM     12  C   UNL     1      -3.394  10.942  17.215  0.00  0.00    +0.000 A 
ATOM     13  C   UNL     1      -2.353  10.138  16.542  0.00  0.00    +0.000 A 
ATOM     14  O   UNL     1      -2.505   9.675  15.418  0.00  0.00    +0.000 OA
ATOM     15  N   UNL     1      -1.206   9.961  17.256  0.00  0.00    +0.000 N 
ATOM     16  C   UNL     1      -4.654  11.249  16.478  0.00  0.00    +0.000 C 
ATOM     17  O   UNL     1      -5.721  11.605  17.371  0.00  0.00    +0.000 OA
ATOM     18  C   UNL     1      -5.317  12.607  18.308  0.00  0.00    +0.000 C 
ATOM     19  C   UNL     1      -4.227  12.063  19.234  0.00  0.00    +0.000 C 
ATOM     20  H   UNL     1      -0.485   9.420  16.804  0.00  0.00    +0.000 HD
ENDBRANCH   8   9
ENDBRANCH   1   8
BRANCH   2  21
ATOM     21  C   UNL     1       2.142   8.083  19.368  0.00  0.00    +0.000 C 
BRANCH  21  22
ATOM     22  N   UNL     1       1.910   6.638  19.120  0.00  0.00    +0.000 NA
ATOM     23  C   UNL     1       2.525   6.205  17.857  0.00  0.00    +0.000 C 
ATOM     24  C   UNL     1       2.347   4.698  17.638  0.00  0.00    +0.000 C 
ATOM     25  C   UNL     1       2.946   3.886  18.789  0.00  0.00    +0.000 C 
ATOM     26  C   UNL     1       2.330   4.378  20.105  0.00  0.00    +0.000 C 
ATOM     27  C   UNL     1       2.449   5.894  20.274  0.00  0.00    +0.000 C 
BRANCH  25  28
ATOM     28  C   UNL     1       4.478   3.972  18.818  0.00  0.00    +0.000 C 
ATOM     29  O   UNL     1       5.139   3.702  19.820  0.00  0.00    +0.000 OA
BRANCH  28  30
ATOM     30  C   UNL     1       5.227   4.379  17.597  0.00  0.00    +0.000 A 
ATOM     31  C   UNL     1       6.130   5.445  17.694  0.00  0.00    +0.000 A 
ATOM     32  C   UNL     1       6.926   5.794  16.599  0.00  0.00    +0.000 A 
ATOM     33  C   UNL     1       6.845   5.065  15.411  0.00  0.00    +0.000 A 
ATOM     34  C   UNL     1       5.918   4.029  15.303  0.00  0.00    +0.000 A 
ATOM     35  C   UNL     1       5.108   3.685  16.392  0.00  0.00    +0.000 A 
BRANCH  33  36
ATOM     36  O   UNL     1       7.683   5.472  14.409  0.00  0.00    +0.000 OA
ATOM     37  C   UNL     1       7.472   4.845  13.146  0.00  0.00    +0.000 C 
ENDBRANCH  33  36
ENDBRANCH  28  30
ENDBRANCH  25  28
ENDBRANCH  21  22
ENDBRANCH   2  21
TORSDOF 10
ENDMDL
MODEL 3
REMARK VINA RESULT:      -7.8      1.985     10.163
REMARK  Name = 
REMARK  12 active torsions:
REMARK  status: ('A' for Active; 'I' for Inactive)
REMARK    1  A    between atoms: C_1  and  O_2
REMARK    2  A    between atoms: O_2  and  C_3
REMARK    3  A    between atoms: C_3  and  C_4
REMARK    4  A    between atoms: C_4  and  N_5
REMARK    5  A    between atoms: N_5  and  C_6
REMARK    6  A    between atoms: C_6  and  C_7
REMARK    7  A    between atoms: C_18  and  C_20
REMARK    8  A    between atoms: C_20  and  N_21
REMARK    9  A    between atoms: C_24  and  C_25
REMARK   10  A    between atoms: C_25  and  C_27
REMARK   11  A    between atoms: C_30  and  O_31
REMARK   12  A    between atoms: O_31  and  C_32
REMARK                            x       y       z     vdW  Elec       q    Type
REMARK                         _______ _______ _______ _____ _____    ______ ____
ROOT
ATOM      1  N   UNL     1       1.853   6.319  19.875  0.00  0.00    +0.000 N 
ATOM      2  C   UNL     1       1.635   7.577  20.416  0.00  0.00    +0.000 C 
ATOM      3  O   UNL     1       1.550   7.737  21.642  0.00  0.00    +0.000 OA
ENDROOT
BRANCH   1   4
ATOM      4  C   UNL     1       1.982   5.186  20.809  0.00  0.00    +0.000 C 
BRANCH   4   5
ATOM      5  C   UNL     1       1.045   3.985  20.568  0.00  0.00    +0.000 C 
BRANCH   5   7
ATOM      6  C   UNL     1       2.923   2.721  21.187  0.00  0.00    +0.000 C 
ATOM      7  O   UNL     1       1.497   2.800  21.233  0.00  0.00    +0.000 OA
ENDBRANCH   5   7
ENDBRANCH   4   5
ENDBRANCH   1   4
BRANCH   1   8
ATOM      8  C   UNL     1       2.074   6.072  18.430  0.00  0.00    +0.000 C 
BRANCH   8   9
ATOM      9  C   UNL     1       3.500   5.580  18.127  0.00  0.00    +0.000 A 
ATOM     10  N   UNL     1       3.864   5.296  16.913  0.00  0.00    +0.000 NA
ATOM     11  C   UNL     1       5.189   4.971  16.709  0.00  0.00    +0.000 A 
ATOM     12  C   UNL     1       6.136   5.042  17.652  0.00  0.00    +0.000 A 
ATOM     13  C   UNL     1       5.691   5.287  19.040  0.00  0.00    +0.000 A 
ATOM     14  O   UNL     1       6.471   5.323  19.983  0.00  0.00    +0.000 OA
ATOM     15  N   UNL     1       4.351   5.482  19.192  0.00  0.00    +0.000 N 
ATOM     16  C   UNL     1       7.595   4.890  17.382  0.00  0.00    +0.000 C 
ATOM     17  O   UNL     1       7.840   4.213  16.139  0.00  0.00    +0.000 OA
ATOM     18  C   UNL     1       7.088   4.785  15.066  0.00  0.00    +0.000 C 
ATOM     19  C   UNL     1       5.589   4.593  15.302  0.00  0.00    +0.000 C 
ATOM     20  H   UNL     1       4.036   5.657  20.133  0.00  0.00    +0.000 HD
ENDBRANCH   8   9
ENDBRANCH   1   8
BRANCH   2  21
ATOM     21  C   UNL     1       1.580   8.812  19.511  0.00  0.00    +0.000 C 
BRANCH  21  22
ATOM     22  N   UNL     1       1.104  10.036  20.203  0.00  0.00    +0.000 NA
ATOM     23  C   UNL     1       1.401  11.244  19.419  0.00  0.00    +0.000 C 
ATOM     24  C   UNL     1       0.846  12.501  20.099  0.00  0.00    +0.000 C 
ATOM     25  C   UNL     1      -0.666  12.404  20.314  0.00  0.00    +0.000 C 
ATOM     26  C   UNL     1      -0.967  11.118  21.094  0.00  0.00    +0.000 C 
ATOM     27  C   UNL     1      -0.343   9.882  20.442  0.00  0.00    +0.000 C 
BRANCH  25  28
ATOM     28  C   UNL     1      -1.441  12.454  18.990  0.00  0.00    +0.000 C 
ATOM     29  O   UNL     1      -0.907  12.737  17.918  0.00  0.00    +0.000 OA
BRANCH  28  30
ATOM     30  C   UNL     1      -2.895  12.137  18.963  0.00  0.00    +0.000 A 
ATOM     31  C   UNL     1      -3.349  11.168  18.059  0.00  0.00    +0.000 A 
ATOM     32  C   UNL     1      -4.688  10.767  18.071  0.00  0.00    +0.000 A 
ATOM     33  C   UNL     1      -5.576  11.311  19.001  0.00  0.00    +0.000 A 
ATOM     34  C   UNL     1      -5.132  12.303  19.875  0.00  0.00    +0.000 A 
ATOM     35  C   UNL     1      -3.795  12.718  19.857  0.00  0.00    +0.000 A 
BRANCH  33  36
ATOM     36  O   UNL     1      -6.857  10.835  18.945  0.00  0.00    +0.000 OA
ATOM     37  C   UNL     1      -7.587  10.904  20.168  0.00  0.00    +0.000 C 
ENDBRANCH  33  36
ENDBRANCH  28  30
ENDBRANCH  25  28
ENDBRANCH  21  22
ENDBRANCH   2  21
TORSDOF 10
ENDMDL
MODEL 4
REMARK VINA RESULT:      -7.7      1.810      3.999
REMARK  Name = 
REMARK  12 active torsions:
REMARK  status: ('A' for Active; 'I' for Inactive)
REMARK    1  A    between atoms: C_1  and  O_2
REMARK    2  A    between atoms: O_2  and  C_3
REMARK    3  A    between atoms: C_3  and  C_4
REMARK    4  A    between atoms: C_4  and  N_5
REMARK    5  A    between atoms: N_5  and  C_6
REMARK    6  A    between atoms: C_6  and  C_7
REMARK    7  A    between atoms: C_18  and  C_20
REMARK    8  A    between atoms: C_20  and  N_21
REMARK    9  A    between atoms: C_24  and  C_25
REMARK   10  A    between atoms: C_25  and  C_27
REMARK   11  A    between atoms: C_30  and  O_31
REMARK   12  A    between atoms: O_31  and  C_32
REMARK                            x       y       z     vdW  Elec       q    Type
REMARK                         _______ _______ _______ _____ _____    ______ ____
ROOT
ATOM      1  N   UNL     1       0.346   9.698  19.134  0.00  0.00    +0.000 N 
ATOM      2  C   UNL     1       1.406   8.997  18.579  0.00  0.00    +0.000 C 
ATOM      3  O   UNL     1       1.742   9.179  17.400  0.00  0.00    +0.000 OA
ENDROOT
BRANCH   1   4
ATOM      4  C   UNL     1      -0.360  10.664  18.273  0.00  0.00    +0.000 C 
BRANCH   4   5
ATOM      5  C   UNL     1      -1.874  10.437  18.082  0.00  0.00    +0.000 C 
BRANCH   5   7
ATOM      6  C   UNL     1      -2.647  10.604  15.872  0.00  0.00    +0.000 C 
ATOM      7  O   UNL     1      -2.435  11.311  17.096  0.00  0.00    +0.000 OA
ENDBRANCH   5   7
ENDBRANCH   4   5
ENDBRANCH   1   4
BRANCH   1   8
ATOM      8  C   UNL     1      -0.039   9.611  20.562  0.00  0.00    +0.000 C 
BRANCH   8   9
ATOM      9  C   UNL     1      -0.398  10.983  21.161  0.00  0.00    +0.000 A 
ATOM     10  N   UNL     1      -1.542  11.179  21.742  0.00  0.00    +0.000 NA
ATOM     11  C   UNL     1      -1.742  12.400  22.352  0.00  0.00    +0.000 A 
ATOM     12  C   UNL     1      -0.799  13.341  22.480  0.00  0.00    +0.000 A 
ATOM     13  C   UNL     1       0.466  13.135  21.744  0.00  0.00    +0.000 A 
ATOM     14  O   UNL     1       1.373  13.957  21.756  0.00  0.00    +0.000 OA
ATOM     15  N   UNL     1       0.554  11.959  21.062  0.00  0.00    +0.000 N 
ATOM     16  C   UNL     1      -0.954  14.569  23.314  0.00  0.00    +0.000 C 
ATOM     17  O   UNL     1      -2.335  14.866  23.573  0.00  0.00    +0.000 OA
ATOM     18  C   UNL     1      -3.043  13.721  24.056  0.00  0.00    +0.000 C 
ATOM     19  C   UNL     1      -3.096  12.635  22.981  0.00  0.00    +0.000 C 
ATOM     20  H   UNL     1       1.415  11.803  20.562  0.00  0.00    +0.000 HD
ENDBRANCH   8   9
ENDBRANCH   1   8
BRANCH   2  21
ATOM     21  C   UNL     1       2.242   8.043  19.439  0.00  0.00    +0.000 C 
BRANCH  21  22
ATOM     22  N   UNL     1       1.981   6.608  19.162  0.00  0.00    +0.000 NA
ATOM     23  C   UNL     1       2.592   6.189  17.892  0.00  0.00    +0.000 C 
ATOM     24  C   UNL     1       2.384   4.691  17.642  0.00  0.00    +0.000 C 
ATOM     25  C   UNL     1       2.962   3.843  18.778  0.00  0.00    +0.000 C 
ATOM     26  C   UNL     1       2.351   4.321  20.102  0.00  0.00    +0.000 C 
ATOM     27  C   UNL     1       2.501   5.830  20.302  0.00  0.00    +0.000 C 
BRANCH  25  28
ATOM     28  C   UNL     1       4.495   3.897  18.814  0.00  0.00    +0.000 C 
ATOM     29  O   UNL     1       5.147   3.595  19.813  0.00  0.00    +0.000 OA
BRANCH  28  30
ATOM     30  C   UNL     1       5.257   4.313  17.604  0.00  0.00    +0.000 A 
ATOM     31  C   UNL     1       6.129   5.403  17.708  0.00  0.00    +0.000 A 
ATOM     32  C   UNL     1       6.937   5.763  16.625  0.00  0.00    +0.000 A 
ATOM     33  C   UNL     1       6.900   5.021  15.444  0.00  0.00    +0.000 A 
ATOM     34  C   UNL     1       6.003   3.959  15.328  0.00  0.00    +0.000 A 
ATOM     35  C   UNL     1       5.181   3.604  16.404  0.00  0.00    +0.000 A 
BRANCH  33  36
ATOM     36  O   UNL     1       7.746   5.441  14.453  0.00  0.00    +0.000 OA
ATOM     37  C   UNL     1       7.448   4.950  13.149  0.00  0.00    +0.000 C 
ENDBRANCH  33  36
ENDBRANCH  28  30
ENDBRANCH  25  28
ENDBRANCH  21  22
ENDBRANCH   2  21
TORSDOF 10
ENDMDL
MODEL 5
REMARK VINA RESULT:      -7.7      2.160      4.131
REMARK  Name = 
REMARK  12 active torsions:
REMARK  status: ('A' for Active; 'I' for Inactive)
REMARK    1  A    between atoms: C_1  and  O_2
REMARK    2  A    between atoms: O_2  and  C_3
REMARK    3  A    between atoms: C_3  and  C_4
REMARK    4  A    between atoms: C_4  and  N_5
REMARK    5  A    between atoms: N_5  and  C_6
REMARK    6  A    between atoms: C_6  and  C_7
REMARK    7  A    between atoms: C_18  and  C_20
REMARK    8  A    between atoms: C_20  and  N_21
REMARK    9  A    between atoms: C_24  and  C_25
REMARK   10  A    between atoms: C_25  and  C_27
REMARK   11  A    between atoms: C_30  and  O_31
REMARK   12  A    between atoms: O_31  and  C_32
REMARK                            x       y       z     vdW  Elec       q    Type
REMARK                         _______ _______ _______ _____ _____    ______ ____
ROOT
ATOM      1  N   UNL     1       0.919   9.498  19.357  0.00  0.00    +0.000 N 
ATOM      2  C   UNL     1       1.780   8.683  18.639  0.00  0.00    +0.000 C 
ATOM      3  O   UNL     1       2.023   8.908  17.444  0.00  0.00    +0.000 OA
ENDROOT
BRANCH   1   4
ATOM      4  C   UNL     1       0.309  10.639  18.650  0.00  0.00    +0.000 C 
BRANCH   4   5
ATOM      5  C   UNL     1      -1.186  10.509  18.294  0.00  0.00    +0.000 C 
BRANCH   5   7
ATOM      6  C   UNL     1      -2.731   9.922  16.627  0.00  0.00    +0.000 C 
ATOM      7  O   UNL     1      -1.398   9.735  17.108  0.00  0.00    +0.000 OA
ENDBRANCH   5   7
ENDBRANCH   4   5
ENDBRANCH   1   4
BRANCH   1   8
ATOM      8  C   UNL     1       0.669   9.353  20.810  0.00  0.00    +0.000 C 
BRANCH   8   9
ATOM      9  C   UNL     1       0.244  10.676  21.471  0.00  0.00    +0.000 A 
ATOM     10  N   UNL     1       0.884  11.779  21.229  0.00  0.00    +0.000 NA
ATOM     11  C   UNL     1       0.373  12.940  21.771  0.00  0.00    +0.000 A 
ATOM     12  C   UNL     1      -0.791  13.018  22.426  0.00  0.00    +0.000 A 
ATOM     13  C   UNL     1      -1.463  11.745  22.762  0.00  0.00    +0.000 A 
ATOM     14  O   UNL     1      -2.507  11.702  23.399  0.00  0.00    +0.000 OA
ATOM     15  N   UNL     1      -0.843  10.623  22.299  0.00  0.00    +0.000 N 
ATOM     16  C   UNL     1      -1.438  14.300  22.829  0.00  0.00    +0.000 C 
ATOM     17  O   UNL     1      -0.496  15.384  22.867  0.00  0.00    +0.000 OA
ATOM     18  C   UNL     1       0.280  15.455  21.668  0.00  0.00    +0.000 C 
ATOM     19  C   UNL     1       1.156  14.209  21.524  0.00  0.00    +0.000 C 
ATOM     20  H   UNL     1      -1.295   9.749  22.516  0.00  0.00    +0.000 HD
ENDBRANCH   8   9
ENDBRANCH   1   8
BRANCH   2  21
ATOM     21  C   UNL     1       2.518   7.532  19.332  0.00  0.00    +0.000 C 
BRANCH  21  22
ATOM     22  N   UNL     1       1.867   6.211  19.149  0.00  0.00    +0.000 NA
ATOM     23  C   UNL     1       2.307   5.565  17.904  0.00  0.00    +0.000 C 
ATOM     24  C   UNL     1       1.690   4.170  17.752  0.00  0.00    +0.000 C 
ATOM     25  C   UNL     1       2.041   3.265  18.936  0.00  0.00    +0.000 C 
ATOM     26  C   UNL     1       1.618   3.971  20.231  0.00  0.00    +0.000 C 
ATOM     27  C   UNL     1       2.182   5.389  20.333  0.00  0.00    +0.000 C 
BRANCH  25  28
ATOM     28  C   UNL     1       3.531   2.897  18.957  0.00  0.00    +0.000 C 
ATOM     29  O   UNL     1       3.950   1.852  19.454  0.00  0.00    +0.000 OA
BRANCH  28  30
ATOM     30  C   UNL     1       4.535   3.810  18.344  0.00  0.00    +0.000 A 
ATOM     31  C   UNL     1       5.267   4.656  19.186  0.00  0.00    +0.000 A 
ATOM     32  C   UNL     1       6.289   5.455  18.665  0.00  0.00    +0.000 A 
ATOM     33  C   UNL     1       6.603   5.395  17.306  0.00  0.00    +0.000 A 
ATOM     34  C   UNL     1       5.848   4.581  16.462  0.00  0.00    +0.000 A 
ATOM     35  C   UNL     1       4.815   3.790  16.977  0.00  0.00    +0.000 A 
BRANCH  33  36
ATOM     36  O   UNL     1       7.634   6.199  16.901  0.00  0.00    +0.000 OA
ATOM     37  C   UNL     1       7.636   7.513  17.453  0.00  0.00    +0.000 C 
ENDBRANCH  33  36
ENDBRANCH  28  30
ENDBRANCH  25  28
ENDBRANCH  21  22
ENDBRANCH   2  21
TORSDOF 10
ENDMDL
MODEL 6
REMARK VINA RESULT:      -7.5      2.045     10.178
REMARK  Name = 
REMARK  12 active torsions:
REMARK  status: ('A' for Active; 'I' for Inactive)
REMARK    1  A    between atoms: C_1  and  O_2
REMARK    2  A    between atoms: O_2  and  C_3
REMARK    3  A    between atoms: C_3  and  C_4
REMARK    4  A    between atoms: C_4  and  N_5
REMARK    5  A    between atoms: N_5  and  C_6
REMARK    6  A    between atoms: C_6  and  C_7
REMARK    7  A    between atoms: C_18  and  C_20
REMARK    8  A    between atoms: C_20  and  N_21
REMARK    9  A    between atoms: C_24  and  C_25
REMARK   10  A    between atoms: C_25  and  C_27
REMARK   11  A    between atoms: C_30  and  O_31
REMARK   12  A    between atoms: O_31  and  C_32
REMARK                            x       y       z     vdW  Elec       q    Type
REMARK                         _______ _______ _______ _____ _____    ______ ____
ROOT
ATOM      1  N   UNL     1       1.900   5.437  20.021  0.00  0.00    +0.000 N 
ATOM      2  C   UNL     1       1.856   6.797  20.284  0.00  0.00    +0.000 C 
ATOM      3  O   UNL     1       1.821   7.220  21.448  0.00  0.00    +0.000 OA
ENDROOT
BRANCH   1   4
ATOM      4  C   UNL     1       1.905   4.517  21.174  0.00  0.00    +0.000 C 
BRANCH   4   5
ATOM      5  C   UNL     1       2.039   3.014  20.854  0.00  0.00    +0.000 C 
BRANCH   5   7
ATOM      6  C   UNL     1       3.726   1.726  19.853  0.00  0.00    +0.000 C 
ATOM      7  O   UNL     1       3.389   2.551  20.970  0.00  0.00    +0.000 OA
ENDBRANCH   5   7
ENDBRANCH   4   5
ENDBRANCH   1   4
BRANCH   1   8
ATOM      8  C   UNL     1       2.053   4.866  18.662  0.00  0.00    +0.000 C 
BRANCH   8   9
ATOM      9  C   UNL     1       3.527   4.753  18.232  0.00  0.00    +0.000 A 
ATOM     10  N   UNL     1       3.845   4.504  16.998  0.00  0.00    +0.000 NA
ATOM     11  C   UNL     1       5.185   4.531  16.672  0.00  0.00    +0.000 A 
ATOM     12  C   UNL     1       6.157   4.906  17.511  0.00  0.00    +0.000 A 
ATOM     13  C   UNL     1       5.787   5.105  18.928  0.00  0.00    +0.000 A 
ATOM     14  O   UNL     1       6.609   5.403  19.785  0.00  0.00    +0.000 OA
ATOM     15  N   UNL     1       4.463   4.947  19.208  0.00  0.00    +0.000 N 
ATOM     16  C   UNL     1       7.573   5.131  17.099  0.00  0.00    +0.000 C 
ATOM     17  O   UNL     1       7.881   4.470  15.862  0.00  0.00    +0.000 OA
ATOM     18  C   UNL     1       6.910   4.758  14.851  0.00  0.00    +0.000 C 
ATOM     19  C   UNL     1       5.546   4.190  15.244  0.00  0.00    +0.000 C 
ATOM     20  H   UNL     1       4.197   5.087  20.170  0.00  0.00    +0.000 HD
ENDBRANCH   8   9
ENDBRANCH   1   8
BRANCH   2  21
ATOM     21  C   UNL     1       1.938   7.812  19.138  0.00  0.00    +0.000 C 
BRANCH  21  22
ATOM     22  N   UNL     1       1.570   9.193  19.540  0.00  0.00    +0.000 NA
ATOM     23  C   UNL     1       1.531  10.095  18.379  0.00  0.00    +0.000 C 
ATOM     24  C   UNL     1       1.081  11.504  18.783  0.00  0.00    +0.000 C 
ATOM     25  C   UNL     1      -0.296  11.487  19.449  0.00  0.00    +0.000 C 
ATOM     26  C   UNL     1      -0.255  10.508  20.630  0.00  0.00    +0.000 C 
ATOM     27  C   UNL     1       0.266   9.128  20.225  0.00  0.00    +0.000 C 
BRANCH  25  28
ATOM     28  C   UNL     1      -1.411  11.126  18.457  0.00  0.00    +0.000 C 
ATOM     29  O   UNL     1      -1.209  10.454  17.446  0.00  0.00    +0.000 OA
BRANCH  28  30
ATOM     30  C   UNL     1      -2.808  11.576  18.708  0.00  0.00    +0.000 A 
ATOM     31  C   UNL     1      -3.822  11.098  17.869  0.00  0.00    +0.000 A 
ATOM     32  C   UNL     1      -5.158  11.415  18.130  0.00  0.00    +0.000 A 
ATOM     33  C   UNL     1      -5.493  12.187  19.243  0.00  0.00    +0.000 A 
ATOM     34  C   UNL     1      -4.479  12.695  20.056  0.00  0.00    +0.000 A 
ATOM     35  C   UNL     1      -3.138  12.393  19.790  0.00  0.00    +0.000 A 
BRANCH  33  36
ATOM     36  O   UNL     1      -6.829  12.421  19.423  0.00  0.00    +0.000 OA
ATOM     37  C   UNL     1      -7.549  11.375  20.070  0.00  0.00    +0.000 C 
ENDBRANCH  33  36
ENDBRANCH  28  30
ENDBRANCH  25  28
ENDBRANCH  21  22
ENDBRANCH   2  21
TORSDOF 10
ENDMDL
MODEL 7
REMARK VINA RESULT:      -7.4      2.485     10.407
REMARK  Name = 
REMARK  12 active torsions:
REMARK  status: ('A' for Active; 'I' for Inactive)
REMARK    1  A    between atoms: C_1  and  O_2
REMARK    2  A    between atoms: O_2  and  C_3
REMARK    3  A    between atoms: C_3  and  C_4
REMARK    4  A    between atoms: C_4  and  N_5
REMARK    5  A    between atoms: N_5  and  C_6
REMARK    6  A    between atoms: C_6  and  C_7
REMARK    7  A    between atoms: C_18  and  C_20
REMARK    8  A    between atoms: C_20  and  N_21
REMARK    9  A    between atoms: C_24  and  C_25
REMARK   10  A    between atoms: C_25  and  C_27
REMARK   11  A    between atoms: C_30  and  O_31
REMARK   12  A    between atoms: O_31  and  C_32
REMARK                            x       y       z     vdW  Elec       q    Type
REMARK                         _______ _______ _______ _____ _____    ______ ____
ROOT
ATOM      1  N   UNL     1       1.793   6.270  19.567  0.00  0.00    +0.000 N 
ATOM      2  C   UNL     1       1.827   7.627  19.847  0.00  0.00    +0.000 C 
ATOM      3  O   UNL     1       1.778   8.038  21.016  0.00  0.00    +0.000 OA
ENDROOT
BRANCH   1   4
ATOM      4  C   UNL     1       1.698   5.339  20.707  0.00  0.00    +0.000 C 
BRANCH   4   5
ATOM      5  C   UNL     1       0.880   4.052  20.477  0.00  0.00    +0.000 C 
BRANCH   5   7
ATOM      6  C   UNL     1       2.773   2.910  21.267  0.00  0.00    +0.000 C 
ATOM      7  O   UNL     1       1.344   2.961  21.281  0.00  0.00    +0.000 OA
ENDBRANCH   5   7
ENDBRANCH   4   5
ENDBRANCH   1   4
BRANCH   1   8
ATOM      8  C   UNL     1       1.957   5.706  18.207  0.00  0.00    +0.000 C 
BRANCH   8   9
ATOM      9  C   UNL     1       3.409   5.290  17.911  0.00  0.00    +0.000 A 
ATOM     10  N   UNL     1       3.805   5.063  16.696  0.00  0.00    +0.000 NA
ATOM     11  C   UNL     1       5.146   4.806  16.504  0.00  0.00    +0.000 A 
ATOM     12  C   UNL     1       6.074   4.888  17.464  0.00  0.00    +0.000 A 
ATOM     13  C   UNL     1       5.596   5.066  18.852  0.00  0.00    +0.000 A 
ATOM     14  O   UNL     1       6.359   5.106  19.808  0.00  0.00    +0.000 OA
ATOM     15  N   UNL     1       4.247   5.195  18.987  0.00  0.00    +0.000 N 
ATOM     16  C   UNL     1       7.543   4.812  17.214  0.00  0.00    +0.000 C 
ATOM     17  O   UNL     1       7.837   4.188  15.954  0.00  0.00    +0.000 OA
ATOM     18  C   UNL     1       7.077   4.761  14.888  0.00  0.00    +0.000 C 
ATOM     19  C   UNL     1       5.585   4.494  15.092  0.00  0.00    +0.000 C 
ATOM     20  H   UNL     1       3.909   5.324  19.928  0.00  0.00    +0.000 HD
ENDBRANCH   8   9
ENDBRANCH   1   8
BRANCH   2  21
ATOM     21  C   UNL     1       2.015   8.648  18.720  0.00  0.00    +0.000 C 
BRANCH  21  22
ATOM     22  N   UNL     1       0.953   9.684  18.672  0.00  0.00    +0.000 NA
ATOM     23  C   UNL     1      -0.183   9.326  19.534  0.00  0.00    +0.000 C 
ATOM     24  C   UNL     1      -1.247  10.430  19.541  0.00  0.00    +0.000 C 
ATOM     25  C   UNL     1      -0.669  11.768  20.007  0.00  0.00    +0.000 C 
ATOM     26  C   UNL     1       0.543  12.108  19.130  0.00  0.00    +0.000 C 
ATOM     27  C   UNL     1       1.560  10.967  19.074  0.00  0.00    +0.000 C 
BRANCH  25  28
ATOM     28  C   UNL     1      -0.297  11.747  21.497  0.00  0.00    +0.000 C 
ATOM     29  O   UNL     1       0.706  11.174  21.923  0.00  0.00    +0.000 OA
BRANCH  28  30
ATOM     30  C   UNL     1      -1.153  12.451  22.490  0.00  0.00    +0.000 A 
ATOM     31  C   UNL     1      -0.809  13.758  22.858  0.00  0.00    +0.000 A 
ATOM     32  C   UNL     1      -1.641  14.491  23.710  0.00  0.00    +0.000 A 
ATOM     33  C   UNL     1      -2.833  13.935  24.177  0.00  0.00    +0.000 A 
ATOM     34  C   UNL     1      -3.155  12.621  23.841  0.00  0.00    +0.000 A 
ATOM     35  C   UNL     1      -2.318  11.877  23.000  0.00  0.00    +0.000 A 
BRANCH  33  36
ATOM     36  O   UNL     1      -3.586  14.743  24.984  0.00  0.00    +0.000 OA
ATOM     37  C   UNL     1      -3.973  15.989  24.411  0.00  0.00    +0.000 C 
ENDBRANCH  33  36
ENDBRANCH  28  30
ENDBRANCH  25  28
ENDBRANCH  21  22
ENDBRANCH   2  21
TORSDOF 10
ENDMDL
MODEL 8
REMARK VINA RESULT:      -7.3      1.757      2.283
REMARK  Name = 
REMARK  12 active torsions:
REMARK  status: ('A' for Active; 'I' for Inactive)
REMARK    1  A    between atoms: C_1  and  O_2
REMARK    2  A    between atoms: O_2  and  C_3
REMARK    3  A    between atoms: C_3  and  C_4
REMARK    4  A    between atoms: C_4  and  N_5
REMARK    5  A    between atoms: N_5  and  C_6
REMARK    6  A    between atoms: C_6  and  C_7
REMARK    7  A    between atoms: C_18  and  C_20
REMARK    8  A    between atoms: C_20  and  N_21
REMARK    9  A    between atoms: C_24  and  C_25
REMARK   10  A    between atoms: C_25  and  C_27
REMARK   11  A    between atoms: C_30  and  O_31
REMARK   12  A    between atoms: O_31  and  C_32
REMARK                            x       y       z     vdW  Elec       q    Type
REMARK                         _______ _______ _______ _____ _____    ______ ____
ROOT
ATOM      1  N   UNL     1       1.230   9.326  20.288  0.00  0.00    +0.000 N 
ATOM      2  C   UNL     1       1.599   7.992  20.219  0.00  0.00    +0.000 C 
ATOM      3  O   UNL     1       1.550   7.265  21.221  0.00  0.00    +0.000 OA
ENDROOT
BRANCH   1   4
ATOM      4  C   UNL     1       0.778   9.844  21.593  0.00  0.00    +0.000 C 
BRANCH   4   5
ATOM      5  C   UNL     1      -0.440   9.142  22.227  0.00  0.00    +0.000 C 
BRANCH   5   7
ATOM      6  C   UNL     1      -0.926  11.344  22.880  0.00  0.00    +0.000 C 
ATOM      7  O   UNL     1      -1.093   9.961  23.203  0.00  0.00    +0.000 OA
ENDBRANCH   5   7
ENDBRANCH   4   5
ENDBRANCH   1   4
BRANCH   1   8
ATOM      8  C   UNL     1       1.159  10.223  19.110  0.00  0.00    +0.000 C 
BRANCH   8   9
ATOM      9  C   UNL     1      -0.238  10.840  18.921  0.00  0.00    +0.000 A 
ATOM     10  N   UNL     1      -1.170  10.199  18.283  0.00  0.00    +0.000 NA
ATOM     11  C   UNL     1      -2.425  10.770  18.255  0.00  0.00    +0.000 A 
ATOM     12  C   UNL     1      -2.767  11.872  18.932  0.00  0.00    +0.000 A 
ATOM     13  C   UNL     1      -1.678  12.630  19.582  0.00  0.00    +0.000 A 
ATOM     14  O   UNL     1      -1.877  13.676  20.186  0.00  0.00    +0.000 OA
ATOM     15  N   UNL     1      -0.440  12.074  19.473  0.00  0.00    +0.000 N 
ATOM     16  C   UNL     1      -4.168  12.368  19.063  0.00  0.00    +0.000 C 
ATOM     17  O   UNL     1      -5.021  11.838  18.037  0.00  0.00    +0.000 OA
ATOM     18  C   UNL     1      -4.897  10.417  17.926  0.00  0.00    +0.000 C 
ATOM     19  C   UNL     1      -3.488  10.039  17.467  0.00  0.00    +0.000 C 
ATOM     20  H   UNL     1       0.311  12.578  19.918  0.00  0.00    +0.000 HD
ENDBRANCH   8   9
ENDBRANCH   1   8
BRANCH   2  21
ATOM     21  C   UNL     1       1.994   7.365  18.877  0.00  0.00    +0.000 C 
BRANCH  21  22
ATOM     22  N   UNL     1       2.310   5.917  18.967  0.00  0.00    +0.000 NA
ATOM     23  C   UNL     1       2.214   5.266  17.653  0.00  0.00    +0.000 C 
ATOM     24  C   UNL     1       2.612   3.787  17.733  0.00  0.00    +0.000 C 
ATOM     25  C   UNL     1       4.032   3.613  18.275  0.00  0.00    +0.000 C 
ATOM     26  C   UNL     1       4.132   4.335  19.625  0.00  0.00    +0.000 C 
ATOM     27  C   UNL     1       3.662   5.789  19.544  0.00  0.00    +0.000 C 
BRANCH  25  28
ATOM     28  C   UNL     1       5.091   4.120  17.286  0.00  0.00    +0.000 C 
ATOM     29  O   UNL     1       5.248   3.626  16.170  0.00  0.00    +0.000 OA
BRANCH  28  30
ATOM     30  C   UNL     1       5.970   5.264  17.654  0.00  0.00    +0.000 A 
ATOM     31  C   UNL     1       7.002   5.042  18.575  0.00  0.00    +0.000 A 
ATOM     32  C   UNL     1       7.910   6.062  18.872  0.00  0.00    +0.000 A 
ATOM     33  C   UNL     1       7.812   7.299  18.232  0.00  0.00    +0.000 A 
ATOM     34  C   UNL     1       6.762   7.531  17.344  0.00  0.00    +0.000 A 
ATOM     35  C   UNL     1       5.840   6.517  17.055  0.00  0.00    +0.000 A 
BRANCH  33  36
ATOM     36  O   UNL     1       8.764   8.220  18.574  0.00  0.00    +0.000 OA
ATOM     37  C   UNL     1       8.496   9.557  18.159  0.00  0.00    +0.000 C 
ENDBRANCH  33  36
ENDBRANCH  28  30
ENDBRANCH  25  28
ENDBRANCH  21  22
ENDBRANCH   2  21
TORSDOF 10
ENDMDL
MODEL 9
REMARK VINA RESULT:      -7.3      2.229      4.305
REMARK  Name = 
REMARK  12 active torsions:
REMARK  status: ('A' for Active; 'I' for Inactive)
REMARK    1  A    between atoms: C_1  and  O_2
REMARK    2  A    between atoms: O_2  and  C_3
REMARK    3  A    between atoms: C_3  and  C_4
REMARK    4  A    between atoms: C_4  and  N_5
REMARK    5  A    between atoms: N_5  and  C_6
REMARK    6  A    between atoms: C_6  and  C_7
REMARK    7  A    between atoms: C_18  and  C_20
REMARK    8  A    between atoms: C_20  and  N_21
REMARK    9  A    between atoms: C_24  and  C_25
REMARK   10  A    between atoms: C_25  and  C_27
REMARK   11  A    between atoms: C_30  and  O_31
REMARK   12  A    between atoms: O_31  and  C_32
REMARK                            x       y       z     vdW  Elec       q    Type
REMARK                         _______ _______ _______ _____ _____    ______ ____
ROOT
ATOM      1  N   UNL     1      -0.031  10.587  20.119  0.00  0.00    +0.000 N 
ATOM      2  C   UNL     1       0.882   9.962  19.284  0.00  0.00    +0.000 C 
ATOM      3  O   UNL     1       0.942  10.247  18.079  0.00  0.00    +0.000 OA
ENDROOT
BRANCH   1   4
ATOM      4  C   UNL     1      -0.923  11.599  19.523  0.00  0.00    +0.000 C 
BRANCH   4   5
ATOM      5  C   UNL     1      -2.173  11.069  18.792  0.00  0.00    +0.000 C 
BRANCH   5   7
ATOM      6  C   UNL     1      -3.494  11.270  16.862  0.00  0.00    +0.000 C 
ATOM      7  O   UNL     1      -2.179  11.416  17.403  0.00  0.00    +0.000 OA
ENDBRANCH   5   7
ENDBRANCH   4   5
ENDBRANCH   1   4
BRANCH   1   8
ATOM      8  C   UNL     1      -0.084  10.376  21.585  0.00  0.00    +0.000 C 
BRANCH   8   9
ATOM      9  C   UNL     1      -0.745  11.551  22.327  0.00  0.00    +0.000 A 
ATOM     10  N   UNL     1      -0.238  12.745  22.274  0.00  0.00    +0.000 NA
ATOM     11  C   UNL     1      -0.951  13.763  22.872  0.00  0.00    +0.000 A 
ATOM     12  C   UNL     1      -2.174  13.620  23.396  0.00  0.00    +0.000 A 
ATOM     13  C   UNL     1      -2.698  12.243  23.521  0.00  0.00    +0.000 A 
ATOM     14  O   UNL     1      -3.785  11.999  24.029  0.00  0.00    +0.000 OA
ATOM     15  N   UNL     1      -1.891  11.268  23.017  0.00  0.00    +0.000 N 
ATOM     16  C   UNL     1      -3.023  14.757  23.854  0.00  0.00    +0.000 C 
ATOM     17  O   UNL     1      -2.244  15.936  24.110  0.00  0.00    +0.000 OA
ATOM     18  C   UNL     1      -1.371  16.242  23.019  0.00  0.00    +0.000 C 
ATOM     19  C   UNL     1      -0.326  15.138  22.847  0.00  0.00    +0.000 C 
ATOM     20  H   UNL     1      -2.241  10.326  23.091  0.00  0.00    +0.000 HD
ENDBRANCH   8   9
ENDBRANCH   1   8
BRANCH   2  21
ATOM     21  C   UNL     1       1.899   8.966  19.852  0.00  0.00    +0.000 C 
BRANCH  21  22
ATOM     22  N   UNL     1       1.642   7.560  19.451  0.00  0.00    +0.000 NA
ATOM     23  C   UNL     1       2.339   7.225  18.201  0.00  0.00    +0.000 C 
ATOM     24  C   UNL     1       2.133   5.753  17.825  0.00  0.00    +0.000 C 
ATOM     25  C   UNL     1       2.617   4.815  18.933  0.00  0.00    +0.000 C 
ATOM     26  C   UNL     1       1.917   5.204  20.242  0.00  0.00    +0.000 C 
ATOM     27  C   UNL     1       2.069   6.692  20.564  0.00  0.00    +0.000 C 
BRANCH  25  28
ATOM     28  C   UNL     1       4.144   4.840  19.083  0.00  0.00    +0.000 C 
ATOM     29  O   UNL     1       4.707   4.745  20.173  0.00  0.00    +0.000 OA
BRANCH  28  30
ATOM     30  C   UNL     1       5.010   4.968  17.879  0.00  0.00    +0.000 A 
ATOM     31  C   UNL     1       5.953   6.004  17.842  0.00  0.00    +0.000 A 
ATOM     32  C   UNL     1       6.853   6.098  16.777  0.00  0.00    +0.000 A 
ATOM     33  C   UNL     1       6.836   5.146  15.757  0.00  0.00    +0.000 A 
ATOM     34  C   UNL     1       5.873   4.137  15.774  0.00  0.00    +0.000 A 
ATOM     35  C   UNL     1       4.960   4.047  16.832  0.00  0.00    +0.000 A 
BRANCH  33  36
ATOM     36  O   UNL     1       7.773   5.315  14.774  0.00  0.00    +0.000 OA
ATOM     37  C   UNL     1       7.372   4.896  13.472  0.00  0.00    +0.000 C 
ENDBRANCH  33  36
ENDBRANCH  28  30
ENDBRANCH  25  28
ENDBRANCH  21  22
ENDBRANCH   2  21
TORSDOF 10
ENDMDL
