MODEL 1
REMARK VINA RESULT:      -8.2      0.000      0.000
REMARK  Name = 
REMARK  5 active torsions:
REMARK  status: ('A' for Active; 'I' for Inactive)
REMARK    1  A    between atoms: C_1  and  O_2
REMARK    2  A    between atoms: O_2  and  C_3
REMARK    3  A    between atoms: C_6  and  C_7
REMARK    4  A    between atoms: N_8  and  N_9
REMARK    5  A    between atoms: C_12  and  N_13
REMARK                            x       y       z     vdW  Elec       q    Type
REMARK                         _______ _______ _______ _____ _____    ______ ____
ROOT
ATOM      1  N   UNL     1       2.251   8.309  18.216  0.00  0.00    +0.000 N 
ATOM      2  C   UNL     1       2.923   7.071  18.300  0.00  0.00    +0.000 A 
ATOM      3  C   UNL     1       2.523   6.106  19.197  0.00  0.00    +0.000 A 
ATOM      4  C   UNL     1       3.207   4.914  19.213  0.00  0.00    +0.000 A 
ATOM      5  N   UNL     1       4.209   4.709  18.339  0.00  0.00    +0.000 NA
ATOM      6  C   UNL     1       4.531   5.673  17.463  0.00  0.00    +0.000 A 
ATOM      7  N   UNL     1       5.547   5.439  16.551  0.00  0.00    +0.000 N 
ATOM      8  C   UNL     1       5.496   6.142  15.275  0.00  0.00    +0.000 C 
ATOM      9  C   UNL     1       5.678   5.037  14.238  0.00  0.00    +0.000 C 
ATOM     10  C   UNL     1       6.548   4.023  14.959  0.00  0.00    +0.000 C 
ATOM     11  C   UNL     1       6.022   4.073  16.395  0.00  0.00    +0.000 C 
ATOM     12  N   UNL     1       3.917   6.865  17.429  0.00  0.00    +0.000 NA
ATOM     13  H   UNL     1       2.780   8.923  17.600  0.00  0.00    +0.000 HD
ENDROOT
BRANCH   4  14
ATOM     14  N   UNL     1       2.859   3.894  20.080  0.00  0.00    +0.000 N 
ATOM     15  C   UNL     1       2.515   2.550  19.623  0.00  0.00    +0.000 C 
ATOM     16  C   UNL     1       1.283   2.189  20.444  0.00  0.00    +0.000 C 
ATOM     17  C   UNL     1       1.514   2.918  21.757  0.00  0.00    +0.000 C 
ATOM     18  C   UNL     1       2.176   4.229  21.327  0.00  0.00    +0.000 C 
ENDBRANCH   4  14
BRANCH   1  20
ATOM     19  C   UNL     1       0.789   9.725  19.136  0.00  0.00    +0.000 C 
ATOM     20  N   UNL     1       1.672   8.800  19.345  0.00  0.00    +0.000 NA
BRANCH  19  24
ATOM     21  C   UNL     1      -1.270  11.552  22.404  0.00  0.00    +0.000 A 
ATOM     22  C   UNL     1      -1.320  12.132  21.135  0.00  0.00    +0.000 A 
ATOM     23  C   UNL     1      -0.656  11.539  20.059  0.00  0.00    +0.000 A 
ATOM     24  C   UNL     1       0.079  10.368  20.258  0.00  0.00    +0.000 A 
ATOM     25  C   UNL     1       0.151   9.792  21.529  0.00  0.00    +0.000 A 
ATOM     26  C   UNL     1      -0.525  10.387  22.603  0.00  0.00    +0.000 A 
BRANCH  21  28
ATOM     27  C   UNL     1      -3.345  12.385  23.175  0.00  0.00    +0.000 C 
ATOM     28  O   UNL     1      -1.945  12.232  23.378  0.00  0.00    +0.000 OA
ENDBRANCH  21  28
ENDBRANCH  19  24
ENDBRANCH   1  20
TORSDOF 4
ENDMDL
MODEL 2
REMARK VINA RESULT:      -8.0      0.916      1.499
REMARK  Name = 
REMARK  5 active torsions:
REMARK  status: ('A' for Active; 'I' for Inactive)
REMARK    1  A    between atoms: C_1  and  O_2
REMARK    2  A    between atoms: O_2  and  C_3
REMARK    3  A    between atoms: C_6  and  C_7
REMARK    4  A    between atoms: N_8  and  N_9
REMARK    5  A    between atoms: C_12  and  N_13
REMARK                            x       y       z     vdW  Elec       q    Type
REMARK                         _______ _______ _______ _____ _____    ______ ____
ROOT
ATOM      1  N   UNL     1       2.178   8.989  17.853  0.00  0.00    +0.000 N 
ATOM      2  C   UNL     1       2.654   7.690  18.132  0.00  0.00    +0.000 A 
ATOM      3  C   UNL     1       2.022   6.885  19.053  0.00  0.00    +0.000 A 
ATOM      4  C   UNL     1       2.525   5.623  19.263  0.00  0.00    +0.000 A 
ATOM      5  N   UNL     1       3.583   5.201  18.547  0.00  0.00    +0.000 NA
ATOM      6  C   UNL     1       4.137   6.017  17.638  0.00  0.00    +0.000 A 
ATOM      7  N   UNL     1       5.209   5.560  16.890  0.00  0.00    +0.000 N 
ATOM      8  C   UNL     1       5.405   6.126  15.560  0.00  0.00    +0.000 C 
ATOM      9  C   UNL     1       5.549   4.902  14.659  0.00  0.00    +0.000 C 
ATOM     10  C   UNL     1       6.180   3.867  15.573  0.00  0.00    +0.000 C 
ATOM     11  C   UNL     1       5.503   4.136  16.919  0.00  0.00    +0.000 C 
ATOM     12  N   UNL     1       3.704   7.268  17.419  0.00  0.00    +0.000 NA
ATOM     13  H   UNL     1       2.855   9.462  17.258  0.00  0.00    +0.000 HD
ENDROOT
BRANCH   4  14
ATOM     14  N   UNL     1       1.940   4.754  20.165  0.00  0.00    +0.000 N 
ATOM     15  C   UNL     1       2.561   4.396  21.436  0.00  0.00    +0.000 C 
ATOM     16  C   UNL     1       2.365   2.887  21.528  0.00  0.00    +0.000 C 
ATOM     17  C   UNL     1       1.046   2.664  20.805  0.00  0.00    +0.000 C 
ATOM     18  C   UNL     1       1.090   3.677  19.660  0.00  0.00    +0.000 C 
ENDBRANCH   4  14
BRANCH   1  20
ATOM     19  C   UNL     1       0.369  10.107  18.536  0.00  0.00    +0.000 C 
ATOM     20  N   UNL     1       1.546   9.666  18.850  0.00  0.00    +0.000 NA
BRANCH  19  24
ATOM     21  C   UNL     1      -1.985  12.350  21.309  0.00  0.00    +0.000 A 
ATOM     22  C   UNL     1      -1.052  11.421  21.775  0.00  0.00    +0.000 A 
ATOM     23  C   UNL     1      -0.274  10.688  20.877  0.00  0.00    +0.000 A 
ATOM     24  C   UNL     1      -0.442  10.871  19.502  0.00  0.00    +0.000 A 
ATOM     25  C   UNL     1      -1.388  11.784  19.027  0.00  0.00    +0.000 A 
ATOM     26  C   UNL     1      -2.160  12.523  19.933  0.00  0.00    +0.000 A 
BRANCH  21  28
ATOM     27  C   UNL     1      -4.093  12.719  22.316  0.00  0.00    +0.000 C 
ATOM     28  O   UNL     1      -2.697  12.993  22.281  0.00  0.00    +0.000 OA
ENDBRANCH  21  28
ENDBRANCH  19  24
ENDBRANCH   1  20
TORSDOF 4
ENDMDL
MODEL 3
REMARK VINA RESULT:      -8.0      0.902      1.209
REMARK  Name = 
REMARK  5 active torsions:
REMARK  status: ('A' for Active; 'I' for Inactive)
REMARK    1  A    between atoms: C_1  and  O_2
REMARK    2  A    between atoms: O_2  and  C_3
REMARK    3  A    between atoms: C_6  and  C_7
REMARK    4  A    between atoms: N_8  and  N_9
REMARK    5  A    between atoms: C_12  and  N_13
REMARK                            x       y       z     vdW  Elec       q    Type
REMARK                         _______ _______ _______ _____ _____    ______ ____
ROOT
ATOM      1  N   UNL     1       2.335   8.953  17.739  0.00  0.00    +0.000 N 
ATOM      2  C   UNL     1       2.755   7.629  17.988  0.00  0.00    +0.000 A 
ATOM      3  C   UNL     1       2.073   6.822  18.871  0.00  0.00    +0.000 A 
ATOM      4  C   UNL     1       2.523   5.536  19.053  0.00  0.00    +0.000 A 
ATOM      5  N   UNL     1       3.579   5.095  18.347  0.00  0.00    +0.000 NA
ATOM      6  C   UNL     1       4.183   5.915  17.474  0.00  0.00    +0.000 A 
ATOM      7  N   UNL     1       5.253   5.439  16.735  0.00  0.00    +0.000 N 
ATOM      8  C   UNL     1       5.500   6.035  15.427  0.00  0.00    +0.000 C 
ATOM      9  C   UNL     1       5.616   4.835  14.492  0.00  0.00    +0.000 C 
ATOM     10  C   UNL     1       6.186   3.749  15.388  0.00  0.00    +0.000 C 
ATOM     11  C   UNL     1       5.491   4.004  16.726  0.00  0.00    +0.000 C 
ATOM     12  N   UNL     1       3.803   7.188  17.284  0.00  0.00    +0.000 NA
ATOM     13  H   UNL     1       3.043   9.417  17.173  0.00  0.00    +0.000 HD
ENDROOT
BRANCH   4  14
ATOM     14  N   UNL     1       1.885   4.665  19.916  0.00  0.00    +0.000 N 
ATOM     15  C   UNL     1       2.270   4.512  21.316  0.00  0.00    +0.000 C 
ATOM     16  C   UNL     1       2.264   3.005  21.535  0.00  0.00    +0.000 C 
ATOM     17  C   UNL     1       1.167   2.522  20.601  0.00  0.00    +0.000 C 
ATOM     18  C   UNL     1       1.312   3.432  19.379  0.00  0.00    +0.000 C 
ENDBRANCH   4  14
BRANCH   1  20
ATOM     19  C   UNL     1       0.505  10.012  18.458  0.00  0.00    +0.000 C 
ATOM     20  N   UNL     1       1.708   9.625  18.742  0.00  0.00    +0.000 NA
BRANCH  19  24
ATOM     21  C   UNL     1      -1.828  12.164  21.320  0.00  0.00    +0.000 A 
ATOM     22  C   UNL     1      -2.167  12.209  19.965  0.00  0.00    +0.000 A 
ATOM     23  C   UNL     1      -1.415  11.504  19.024  0.00  0.00    +0.000 A 
ATOM     24  C   UNL     1      -0.305  10.764  19.436  0.00  0.00    +0.000 A 
ATOM     25  C   UNL     1       0.053  10.730  20.786  0.00  0.00    +0.000 A 
ATOM     26  C   UNL     1      -0.710  11.432  21.728  0.00  0.00    +0.000 A 
BRANCH  21  28
ATOM     27  C   UNL     1      -2.024  13.375  23.341  0.00  0.00    +0.000 C 
ATOM     28  O   UNL     1      -2.628  12.906  22.142  0.00  0.00    +0.000 OA
ENDBRANCH  21  28
ENDBRANCH  19  24
ENDBRANCH   1  20
TORSDOF 4
ENDMDL
MODEL 4
REMARK VINA RESULT:      -8.0      0.576      1.188
REMARK  Name = 
REMARK  5 active torsions:
REMARK  status: ('A' for Active; 'I' for Inactive)
REMARK    1  A    between atoms: C_1  and  O_2
REMARK    2  A    between atoms: O_2  and  C_3
REMARK    3  A    between atoms: C_6  and  C_7
REMARK    4  A    between atoms: N_8  and  N_9
REMARK    5  A    between atoms: C_12  and  N_13
REMARK                            x       y       z     vdW  Elec       q    Type
REMARK                         _______ _______ _______ _____ _____    ______ ____
ROOT
ATOM      1  N   UNL     1       2.309   8.210  18.204  0.00  0.00    +0.000 N 
ATOM      2  C   UNL     1       2.866   6.913  18.216  0.00  0.00    +0.000 A 
ATOM      3  C   UNL     1       2.327   5.916  18.999  0.00  0.00    +0.000 A 
ATOM      4  C   UNL     1       2.906   4.670  18.949  0.00  0.00    +0.000 A 
ATOM      5  N   UNL     1       3.944   4.451  18.121  0.00  0.00    +0.000 NA
ATOM      6  C   UNL     1       4.404   5.452  17.356  0.00  0.00    +0.000 A 
ATOM      7  N   UNL     1       5.456   5.205  16.489  0.00  0.00    +0.000 N 
ATOM      8  C   UNL     1       5.550   6.015  15.280  0.00  0.00    +0.000 C 
ATOM      9  C   UNL     1       5.708   4.988  14.162  0.00  0.00    +0.000 C 
ATOM     10  C   UNL     1       6.440   3.843  14.840  0.00  0.00    +0.000 C 
ATOM     11  C   UNL     1       5.824   3.820  16.240  0.00  0.00    +0.000 C 
ATOM     12  N   UNL     1       3.896   6.693  17.392  0.00  0.00    +0.000 NA
ATOM     13  H   UNL     1       2.928   8.823  17.678  0.00  0.00    +0.000 HD
ENDROOT
BRANCH   4  14
ATOM     14  N   UNL     1       2.416   3.618  19.698  0.00  0.00    +0.000 N 
ATOM     15  C   UNL     1       1.079   3.618  20.285  0.00  0.00    +0.000 C 
ATOM     16  C   UNL     1       1.298   3.090  21.697  0.00  0.00    +0.000 C 
ATOM     17  C   UNL     1       2.465   2.130  21.532  0.00  0.00    +0.000 C 
ATOM     18  C   UNL     1       3.349   2.818  20.490  0.00  0.00    +0.000 C 
ENDBRANCH   4  14
BRANCH   1  20
ATOM     19  C   UNL     1       0.858   9.622  19.147  0.00  0.00    +0.000 C 
ATOM     20  N   UNL     1       1.698   8.654  19.336  0.00  0.00    +0.000 NA
BRANCH  19  24
ATOM     21  C   UNL     1      -1.276  11.399  22.395  0.00  0.00    +0.000 A 
ATOM     22  C   UNL     1      -0.524  10.240  22.603  0.00  0.00    +0.000 A 
ATOM     23  C   UNL     1       0.181   9.655  21.549  0.00  0.00    +0.000 A 
ATOM     24  C   UNL     1       0.121  10.223  20.274  0.00  0.00    +0.000 A 
ATOM     25  C   UNL     1      -0.644  11.371  20.054  0.00  0.00    +0.000 A 
ATOM     26  C   UNL     1      -1.343  11.958  21.116  0.00  0.00    +0.000 A 
BRANCH  21  28
ATOM     27  C   UNL     1      -2.512  13.162  23.373  0.00  0.00    +0.000 C 
ATOM     28  O   UNL     1      -1.933  11.868  23.496  0.00  0.00    +0.000 OA
ENDBRANCH  21  28
ENDBRANCH  19  24
ENDBRANCH   1  20
TORSDOF 4
ENDMDL
MODEL 5
REMARK VINA RESULT:      -7.8      3.973      9.017
REMARK  Name = 
REMARK  5 active torsions:
REMARK  status: ('A' for Active; 'I' for Inactive)
REMARK    1  A    between atoms: C_1  and  O_2
REMARK    2  A    between atoms: O_2  and  C_3
REMARK    3  A    between atoms: C_6  and  C_7
REMARK    4  A    between atoms: N_8  and  N_9
REMARK    5  A    between atoms: C_12  and  N_13
REMARK                            x       y       z     vdW  Elec       q    Type
REMARK                         _______ _______ _______ _____ _____    ______ ____
ROOT
ATOM      1  N   UNL     1       1.166   9.324  21.172  0.00  0.00    +0.000 N 
ATOM      2  C   UNL     1       0.561  10.257  20.302  0.00  0.00    +0.000 A 
ATOM      3  C   UNL     1      -0.551   9.922  19.563  0.00  0.00    +0.000 A 
ATOM      4  C   UNL     1      -1.103  10.884  18.751  0.00  0.00    +0.000 A 
ATOM      5  N   UNL     1      -0.573  12.120  18.729  0.00  0.00    +0.000 NA
ATOM      6  C   UNL     1       0.491  12.399  19.498  0.00  0.00    +0.000 A 
ATOM      7  N   UNL     1       1.010  13.683  19.485  0.00  0.00    +0.000 N 
ATOM      8  C   UNL     1       1.692  14.157  20.683  0.00  0.00    +0.000 C 
ATOM      9  C   UNL     1       1.038  15.506  20.970  0.00  0.00    +0.000 C 
ATOM     10  C   UNL     1       0.655  16.008  19.588  0.00  0.00    +0.000 C 
ATOM     11  C   UNL     1       0.217  14.733  18.865  0.00  0.00    +0.000 C 
ATOM     12  N   UNL     1       1.085  11.487  20.282  0.00  0.00    +0.000 NA
ATOM     13  H   UNL     1       2.040   9.717  21.512  0.00  0.00    +0.000 HD
ENDROOT
BRANCH   4  14
ATOM     14  N   UNL     1      -2.224  10.625  17.986  0.00  0.00    +0.000 N 
ATOM     15  C   UNL     1      -2.161   9.959  16.688  0.00  0.00    +0.000 C 
ATOM     16  C   UNL     1      -3.095  10.780  15.808  0.00  0.00    +0.000 C 
ATOM     17  C   UNL     1      -4.153  11.267  16.784  0.00  0.00    +0.000 C 
ATOM     18  C   UNL     1      -3.361  11.540  18.064  0.00  0.00    +0.000 C 
ENDBRANCH   4  14
BRANCH   1  20
ATOM     19  C   UNL     1       2.029   7.583  20.070  0.00  0.00    +0.000 C 
ATOM     20  N   UNL     1       1.084   8.004  20.850  0.00  0.00    +0.000 NA
BRANCH  19  24
ATOM     21  C   UNL     1       2.159   3.528  18.729  0.00  0.00    +0.000 A 
ATOM     22  C   UNL     1       1.875   3.813  20.066  0.00  0.00    +0.000 A 
ATOM     23  C   UNL     1       1.824   5.135  20.513  0.00  0.00    +0.000 A 
ATOM     24  C   UNL     1       2.076   6.179  19.620  0.00  0.00    +0.000 A 
ATOM     25  C   UNL     1       2.381   5.902  18.285  0.00  0.00    +0.000 A 
ATOM     26  C   UNL     1       2.423   4.574  17.840  0.00  0.00    +0.000 A 
BRANCH  21  28
ATOM     27  C   UNL     1       3.476   1.579  18.482  0.00  0.00    +0.000 C 
ATOM     28  O   UNL     1       2.197   2.199  18.415  0.00  0.00    +0.000 OA
ENDBRANCH  21  28
ENDBRANCH  19  24
ENDBRANCH   1  20
TORSDOF 4
ENDMDL
MODEL 6
REMARK VINA RESULT:      -7.8      0.913      1.507
REMARK  Name = 
REMARK  5 active torsions:
REMARK  status: ('A' for Active; 'I' for Inactive)
REMARK    1  A    between atoms: C_1  and  O_2
REMARK    2  A    between atoms: O_2  and  C_3
REMARK    3  A    between atoms: C_6  and  C_7
REMARK    4  A    between atoms: N_8  and  N_9
REMARK    5  A    between atoms: C_12  and  N_13
REMARK                            x       y       z     vdW  Elec       q    Type
REMARK                         _______ _______ _______ _____ _____    ______ ____
ROOT
ATOM      1  N   UNL     1       2.082   8.849  17.640  0.00  0.00    +0.000 N 
ATOM      2  C   UNL     1       2.661   7.640  18.082  0.00  0.00    +0.000 A 
ATOM      3  C   UNL     1       1.942   6.746  18.844  0.00  0.00    +0.000 A 
ATOM      4  C   UNL     1       2.558   5.578  19.225  0.00  0.00    +0.000 A 
ATOM      5  N   UNL     1       3.815   5.325  18.818  0.00  0.00    +0.000 NA
ATOM      6  C   UNL     1       4.455   6.218  18.047  0.00  0.00    +0.000 A 
ATOM      7  N   UNL     1       5.739   5.932  17.613  0.00  0.00    +0.000 N 
ATOM      8  C   UNL     1       6.182   6.521  16.355  0.00  0.00    +0.000 C 
ATOM      9  C   UNL     1       6.734   5.335  15.569  0.00  0.00    +0.000 C 
ATOM     10  C   UNL     1       7.257   4.410  16.654  0.00  0.00    +0.000 C 
ATOM     11  C   UNL     1       6.225   4.571  17.772  0.00  0.00    +0.000 C 
ATOM     12  N   UNL     1       3.909   7.386  17.675  0.00  0.00    +0.000 NA
ATOM     13  H   UNL     1       2.811   9.421  17.217  0.00  0.00    +0.000 HD
ENDROOT
BRANCH   4  14
ATOM     14  N   UNL     1       1.898   4.629  19.983  0.00  0.00    +0.000 N 
ATOM     15  C   UNL     1       2.238   4.352  21.376  0.00  0.00    +0.000 C 
ATOM     16  C   UNL     1       2.236   2.831  21.458  0.00  0.00    +0.000 C 
ATOM     17  C   UNL     1       1.175   2.429  20.446  0.00  0.00    +0.000 C 
ATOM     18  C   UNL     1       1.354   3.447  19.318  0.00  0.00    +0.000 C 
ENDBRANCH   4  14
BRANCH   1  20
ATOM     19  C   UNL     1       1.435   9.519  19.669  0.00  0.00    +0.000 C 
ATOM     20  N   UNL     1       1.122   9.420  18.416  0.00  0.00    +0.000 NA
BRANCH  19  24
ATOM     21  C   UNL     1      -1.283  11.252  22.475  0.00  0.00    +0.000 A 
ATOM     22  C   UNL     1      -0.461  10.191  22.862  0.00  0.00    +0.000 A 
ATOM     23  C   UNL     1       0.435   9.622  21.954  0.00  0.00    +0.000 A 
ATOM     24  C   UNL     1       0.497  10.105  20.645  0.00  0.00    +0.000 A 
ATOM     25  C   UNL     1      -0.337  11.153  20.244  0.00  0.00    +0.000 A 
ATOM     26  C   UNL     1      -1.227  11.725  21.161  0.00  0.00    +0.000 A 
BRANCH  21  28
ATOM     27  C   UNL     1      -3.113  12.647  23.019  0.00  0.00    +0.000 C 
ATOM     28  O   UNL     1      -2.127  11.713  23.444  0.00  0.00    +0.000 OA
ENDBRANCH  21  28
ENDBRANCH  19  24
ENDBRANCH   1  20
TORSDOF 4
ENDMDL
MODEL 7
REMARK VINA RESULT:      -7.7      1.341      1.812
REMARK  Name = 
REMARK  5 active torsions:
REMARK  status: ('A' for Active; 'I' for Inactive)
REMARK    1  A    between atoms: C_1  and  O_2
REMARK    2  A    between atoms: O_2  and  C_3
REMARK    3  A    between atoms: C_6  and  C_7
REMARK    4  A    between atoms: N_8  and  N_9
REMARK    5  A    between atoms: C_12  and  N_13
REMARK                            x       y       z     vdW  Elec       q    Type
REMARK                         _______ _______ _______ _____ _____    ______ ____
ROOT
ATOM      1  N   UNL     1       2.208   8.948  17.500  0.00  0.00    +0.000 N 
ATOM      2  C   UNL     1       2.675   7.686  17.926  0.00  0.00    +0.000 A 
ATOM      3  C   UNL     1       1.805   6.732  18.405  0.00  0.00    +0.000 A 
ATOM      4  C   UNL     1       2.323   5.516  18.784  0.00  0.00    +0.000 A 
ATOM      5  N   UNL     1       3.640   5.281  18.645  0.00  0.00    +0.000 NA
ATOM      6  C   UNL     1       4.434   6.237  18.140  0.00  0.00    +0.000 A 
ATOM      7  N   UNL     1       5.784   5.972  17.978  0.00  0.00    +0.000 N 
ATOM      8  C   UNL     1       6.499   6.683  16.924  0.00  0.00    +0.000 C 
ATOM      9  C   UNL     1       7.218   5.576  16.157  0.00  0.00    +0.000 C 
ATOM     10  C   UNL     1       7.484   4.529  17.224  0.00  0.00    +0.000 C 
ATOM     11  C   UNL     1       6.226   4.591  18.092  0.00  0.00    +0.000 C 
ATOM     12  N   UNL     1       3.984   7.450  17.786  0.00  0.00    +0.000 NA
ATOM     13  H   UNL     1       3.011   9.546  17.318  0.00  0.00    +0.000 HD
ENDROOT
BRANCH   4  14
ATOM     14  N   UNL     1       1.511   4.506  19.265  0.00  0.00    +0.000 N 
ATOM     15  C   UNL     1       1.373   4.213  20.689  0.00  0.00    +0.000 C 
ATOM     16  C   UNL     1       1.449   2.693  20.759  0.00  0.00    +0.000 C 
ATOM     17  C   UNL     1       0.829   2.252  19.443  0.00  0.00    +0.000 C 
ATOM     18  C   UNL     1       1.311   3.310  18.449  0.00  0.00    +0.000 C 
ENDBRANCH   4  14
BRANCH   1  20
ATOM     19  C   UNL     1       1.331  10.380  18.973  0.00  0.00    +0.000 C 
ATOM     20  N   UNL     1       1.095   9.453  18.098  0.00  0.00    +0.000 NA
BRANCH  19  24
ATOM     21  C   UNL     1      -1.868  12.255  21.098  0.00  0.00    +0.000 A 
ATOM     22  C   UNL     1      -0.688  11.917  21.766  0.00  0.00    +0.000 A 
ATOM     23  C   UNL     1       0.365  11.309  21.079  0.00  0.00    +0.000 A 
ATOM     24  C   UNL     1       0.232  11.022  19.718  0.00  0.00    +0.000 A 
ATOM     25  C   UNL     1      -0.952  11.339  19.047  0.00  0.00    +0.000 A 
ATOM     26  C   UNL     1      -2.002  11.955  19.739  0.00  0.00    +0.000 A 
BRANCH  21  28
ATOM     27  C   UNL     1      -3.022  12.245  23.162  0.00  0.00    +0.000 C 
ATOM     28  O   UNL     1      -2.830  12.829  21.878  0.00  0.00    +0.000 OA
ENDBRANCH  21  28
ENDBRANCH  19  24
ENDBRANCH   1  20
TORSDOF 4
ENDMDL
MODEL 8
REMARK VINA RESULT:      -7.6      6.216      8.451
REMARK  Name = 
REMARK  5 active torsions:
REMARK  status: ('A' for Active; 'I' for Inactive)
REMARK    1  A    between atoms: C_1  and  O_2
REMARK    2  A    between atoms: O_2  and  C_3
REMARK    3  A    between atoms: C_6  and  C_7
REMARK    4  A    between atoms: N_8  and  N_9
REMARK    5  A    between atoms: C_12  and  N_13
REMARK                            x       y       z     vdW  Elec       q    Type
REMARK                         _______ _______ _______ _____ _____    ______ ____
ROOT
ATOM      1  N   UNL     1       7.719   7.049  18.544  0.00  0.00    +0.000 N 
ATOM      2  C   UNL     1       6.887   6.213  17.768  0.00  0.00    +0.000 A 
ATOM      3  C   UNL     1       7.041   6.129  16.402  0.00  0.00    +0.000 A 
ATOM      4  C   UNL     1       6.211   5.281  15.709  0.00  0.00    +0.000 A 
ATOM      5  N   UNL     1       5.309   4.538  16.377  0.00  0.00    +0.000 NA
ATOM      6  C   UNL     1       5.228   4.636  17.713  0.00  0.00    +0.000 A 
ATOM      7  N   UNL     1       4.314   3.847  18.389  0.00  0.00    +0.000 N 
ATOM      8  C   UNL     1       4.617   3.478  19.767  0.00  0.00    +0.000 C 
ATOM      9  C   UNL     1       4.425   1.964  19.792  0.00  0.00    +0.000 C 
ATOM     10  C   UNL     1       3.345   1.732  18.750  0.00  0.00    +0.000 C 
ATOM     11  C   UNL     1       3.688   2.753  17.664  0.00  0.00    +0.000 C 
ATOM     12  N   UNL     1       5.993   5.472  18.431  0.00  0.00    +0.000 NA
ATOM     13  H   UNL     1       7.357   7.074  19.495  0.00  0.00    +0.000 HD
ENDROOT
BRANCH   4  14
ATOM     14  N   UNL     1       6.311   5.136  14.338  0.00  0.00    +0.000 N 
ATOM     15  C   UNL     1       5.445   4.244  13.571  0.00  0.00    +0.000 C 
ATOM     16  C   UNL     1       6.399   3.539  12.616  0.00  0.00    +0.000 C 
ATOM     17  C   UNL     1       7.467   4.588  12.353  0.00  0.00    +0.000 C 
ATOM     18  C   UNL     1       7.618   5.290  13.704  0.00  0.00    +0.000 C 
ENDBRANCH   4  14
BRANCH   1  20
ATOM     19  C   UNL     1       8.561   9.101  18.803  0.00  0.00    +0.000 C 
ATOM     20  N   UNL     1       8.210   8.178  17.964  0.00  0.00    +0.000 NA
BRANCH  19  24
ATOM     21  C   UNL     1      10.097  12.842  17.421  0.00  0.00    +0.000 A 
ATOM     22  C   UNL     1      10.967  11.873  17.925  0.00  0.00    +0.000 A 
ATOM     23  C   UNL     1      10.475  10.645  18.373  0.00  0.00    +0.000 A 
ATOM     24  C   UNL     1       9.103  10.391  18.334  0.00  0.00    +0.000 A 
ATOM     25  C   UNL     1       8.223  11.363  17.850  0.00  0.00    +0.000 A 
ATOM     26  C   UNL     1       8.723  12.590  17.394  0.00  0.00    +0.000 A 
BRANCH  21  28
ATOM     27  C   UNL     1      11.824  14.415  17.788  0.00  0.00    +0.000 C 
ATOM     28  O   UNL     1      10.693  14.007  17.028  0.00  0.00    +0.000 OA
ENDBRANCH  21  28
ENDBRANCH  19  24
ENDBRANCH   1  20
TORSDOF 4
ENDMDL
MODEL 9
REMARK VINA RESULT:      -7.6      1.369      1.621
REMARK  Name = 
REMARK  5 active torsions:
REMARK  status: ('A' for Active; 'I' for Inactive)
REMARK    1  A    between atoms: C_1  and  O_2
REMARK    2  A    between atoms: O_2  and  C_3
REMARK    3  A    between atoms: C_6  and  C_7
REMARK    4  A    between atoms: N_8  and  N_9
REMARK    5  A    between atoms: C_12  and  N_13
REMARK                            x       y       z     vdW  Elec       q    Type
REMARK                         _______ _______ _______ _____ _____    ______ ____
ROOT
ATOM      1  N   UNL     1       2.130   8.765  17.508  0.00  0.00    +0.000 N 
ATOM      2  C   UNL     1       2.713   7.598  18.048  0.00  0.00    +0.000 A 
ATOM      3  C   UNL     1       1.968   6.711  18.792  0.00  0.00    +0.000 A 
ATOM      4  C   UNL     1       2.592   5.584  19.272  0.00  0.00    +0.000 A 
ATOM      5  N   UNL     1       3.885   5.361  18.974  0.00  0.00    +0.000 NA
ATOM      6  C   UNL     1       4.552   6.244  18.214  0.00  0.00    +0.000 A 
ATOM      7  N   UNL     1       5.875   5.988  17.894  0.00  0.00    +0.000 N 
ATOM      8  C   UNL     1       6.395   6.540  16.648  0.00  0.00    +0.000 C 
ATOM      9  C   UNL     1       7.046   5.343  15.960  0.00  0.00    +0.000 C 
ATOM     10  C   UNL     1       7.514   4.485  17.123  0.00  0.00    +0.000 C 
ATOM     11  C   UNL     1       6.393   4.654  18.151  0.00  0.00    +0.000 C 
ATOM     12  N   UNL     1       3.997   7.374  17.750  0.00  0.00    +0.000 NA
ATOM     13  H   UNL     1       2.869   9.345  17.118  0.00  0.00    +0.000 HD
ENDROOT
BRANCH   4  14
ATOM     14  N   UNL     1       1.908   4.644  20.019  0.00  0.00    +0.000 N 
ATOM     15  C   UNL     1       2.219   4.365  21.418  0.00  0.00    +0.000 C 
ATOM     16  C   UNL     1       2.198   2.843  21.502  0.00  0.00    +0.000 C 
ATOM     17  C   UNL     1       1.150   2.453  20.472  0.00  0.00    +0.000 C 
ATOM     18  C   UNL     1       1.360   3.467  19.346  0.00  0.00    +0.000 C 
ENDBRANCH   4  14
BRANCH   1  20
ATOM     19  C   UNL     1       1.340  10.516  18.647  0.00  0.00    +0.000 C 
ATOM     20  N   UNL     1       1.094   9.332  18.182  0.00  0.00    +0.000 NA
BRANCH  19  24
ATOM     21  C   UNL     1      -1.588  12.668  20.896  0.00  0.00    +0.000 A 
ATOM     22  C   UNL     1      -1.906  12.168  19.631  0.00  0.00    +0.000 A 
ATOM     23  C   UNL     1      -0.958  11.458  18.892  0.00  0.00    +0.000 A 
ATOM     24  C   UNL     1       0.323  11.262  19.412  0.00  0.00    +0.000 A 
ATOM     25  C   UNL     1       0.656  11.777  20.667  0.00  0.00    +0.000 A 
ATOM     26  C   UNL     1      -0.301  12.481  21.409  0.00  0.00    +0.000 A 
BRANCH  21  28
ATOM     27  C   UNL     1      -3.406  12.606  22.406  0.00  0.00    +0.000 C 
ATOM     28  O   UNL     1      -2.591  13.358  21.515  0.00  0.00    +0.000 OA
ENDBRANCH  21  28
ENDBRANCH  19  24
ENDBRANCH   1  20
TORSDOF 4
ENDMDL
