MODEL 1
REMARK VINA RESULT:      -7.7      0.000      0.000
REMARK  Name = 
REMARK  11 active torsions:
REMARK  status: ('A' for Active; 'I' for Inactive)
REMARK    1  A    between atoms: C_1  and  O_2
REMARK    2  A    between atoms: O_2  and  C_3
REMARK    3  A    between atoms: C_3  and  C_4
REMARK    4  A    between atoms: C_4  and  O_5
REMARK    5  A    between atoms: O_5  and  C_6
REMARK    6  A    between atoms: C_6  and  C_8
REMARK    7  A    between atoms: C_9  and  N_10
REMARK    8  A    between atoms: C_11  and  C_13
REMARK    9  A    between atoms: C_13  and  N_14
REMARK   10  A    between atoms: C_24  and  C_25
REMARK   11  A    between atoms: C_28  and  C_29
REMARK                            x       y       z     vdW  Elec       q    Type
REMARK                         _______ _______ _______ _____ _____    ______ ____
ROOT
ATOM      1  C   UNL     1       3.594   4.443  17.673  0.00  0.00    +0.000 A 
ATOM      2  C   UNL     1       3.847   5.477  18.552  0.00  0.00    +0.000 A 
ATOM      3  S   UNL     1       5.466   5.991  18.509  0.00  0.00    +0.000 S 
ATOM      4  C   UNL     1       5.901   4.854  17.296  0.00  0.00    +0.000 A 
ATOM      5  C   UNL     1       4.807   4.073  16.926  0.00  0.00    +0.000 A 
ATOM      6  C   UNL     1       4.850   2.966  15.909  0.00  0.00    +0.000 C 
ENDROOT
BRANCH   4   7
ATOM      7  C   UNL     1       7.273   4.784  16.785  0.00  0.00    +0.000 C 
ATOM      8  N   UNL     1       7.544   5.421  15.608  0.00  0.00    +0.000 N 
ATOM      9  O   UNL     1       8.204   4.196  17.335  0.00  0.00    +0.000 OA
ATOM     10  H   UNL     1       6.822   5.867  15.064  0.00  0.00    +0.000 HD
ATOM     11  H   UNL     1       8.478   5.324  15.233  0.00  0.00    +0.000 HD
ENDBRANCH   4   7
BRANCH   2  12
ATOM     12  N   UNL     1       2.980   6.032  19.494  0.00  0.00    +0.000 N 
ATOM     13  C   UNL     1       2.375   7.267  19.297  0.00  0.00    +0.000 C 
ATOM     14  O   UNL     1       2.465   7.941  18.270  0.00  0.00    +0.000 OA
ATOM     15  H   UNL     1       2.411   5.365  20.021  0.00  0.00    +0.000 HD
BRANCH  13  16
ATOM     16  C   UNL     1       1.526   7.750  20.487  0.00  0.00    +0.000 C 
BRANCH  16  17
ATOM     17  N   UNL     1       1.019   9.110  20.348  0.00  0.00    +0.000 N 
ATOM     18  C   UNL     1       0.867   9.756  19.039  0.00  0.00    +0.000 C 
ATOM     19  C   UNL     1       0.091  11.073  19.260  0.00  0.00    +0.000 C 
ATOM     20  C   UNL     1      -0.369  10.922  20.673  0.00  0.00    +0.000 A 
ATOM     21  C   UNL     1      -1.215  11.762  21.382  0.00  0.00    +0.000 A 
ATOM     22  C   UNL     1      -1.460  11.466  22.722  0.00  0.00    +0.000 A 
ATOM     23  C   UNL     1      -0.841  10.362  23.324  0.00  0.00    +0.000 A 
ATOM     24  C   UNL     1       0.005   9.524  22.587  0.00  0.00    +0.000 A 
ATOM     25  C   UNL     1       0.224   9.792  21.247  0.00  0.00    +0.000 A 
ENDBRANCH  16  17
ENDBRANCH  13  16
ENDBRANCH   2  12
BRANCH   1  26
ATOM     26  C   UNL     1       2.259   3.842  17.541  0.00  0.00    +0.000 C 
ATOM     27  O   UNL     1       1.275   4.483  17.197  0.00  0.00    +0.000 OA
BRANCH  26  28
ATOM     28  O   UNL     1       2.264   2.520  17.855  0.00  0.00    +0.000 OA
BRANCH  28  29
ATOM     29  C   UNL     1       2.283   2.190  19.249  0.00  0.00    +0.000 C 
BRANCH  29  30
ATOM     30  C   UNL     1       0.978   2.681  19.876  0.00  0.00    +0.000 C 
BRANCH  30  32
ATOM     31  C   UNL     1       2.159   3.370  21.809  0.00  0.00    +0.000 C 
ATOM     32  O   UNL     1       1.269   3.753  20.773  0.00  0.00    +0.000 OA
ENDBRANCH  30  32
ENDBRANCH  29  30
ENDBRANCH  28  29
ENDBRANCH  26  28
ENDBRANCH   1  26
TORSDOF 9
ENDMDL
MODEL 2
REMARK VINA RESULT:      -7.7      2.050      2.651
REMARK  Name = 
REMARK  11 active torsions:
REMARK  status: ('A' for Active; 'I' for Inactive)
REMARK    1  A    between atoms: C_1  and  O_2
REMARK    2  A    between atoms: O_2  and  C_3
REMARK    3  A    between atoms: C_3  and  C_4
REMARK    4  A    between atoms: C_4  and  O_5
REMARK    5  A    between atoms: O_5  and  C_6
REMARK    6  A    between atoms: C_6  and  C_8
REMARK    7  A    between atoms: C_9  and  N_10
REMARK    8  A    between atoms: C_11  and  C_13
REMARK    9  A    between atoms: C_13  and  N_14
REMARK   10  A    between atoms: C_24  and  C_25
REMARK   11  A    between atoms: C_28  and  C_29
REMARK                            x       y       z     vdW  Elec       q    Type
REMARK                         _______ _______ _______ _____ _____    ______ ____
ROOT
ATOM      1  C   UNL     1       3.048   5.241  17.804  0.00  0.00    +0.000 A 
ATOM      2  C   UNL     1       3.289   6.562  18.124  0.00  0.00    +0.000 A 
ATOM      3  S   UNL     1       4.811   7.096  17.588  0.00  0.00    +0.000 S 
ATOM      4  C   UNL     1       5.212   5.578  16.890  0.00  0.00    +0.000 A 
ATOM      5  C   UNL     1       4.182   4.656  17.072  0.00  0.00    +0.000 A 
ATOM      6  C   UNL     1       4.221   3.227  16.606  0.00  0.00    +0.000 C 
ENDROOT
BRANCH   4   7
ATOM      7  C   UNL     1       6.498   5.373  16.219  0.00  0.00    +0.000 C 
ATOM      8  N   UNL     1       7.511   4.816  16.947  0.00  0.00    +0.000 N 
ATOM      9  O   UNL     1       6.738   5.659  15.046  0.00  0.00    +0.000 OA
ATOM     10  H   UNL     1       7.414   4.616  17.930  0.00  0.00    +0.000 HD
ATOM     11  H   UNL     1       8.412   4.727  16.494  0.00  0.00    +0.000 HD
ENDBRANCH   4   7
BRANCH   2  12
ATOM     12  N   UNL     1       2.499   7.416  18.895  0.00  0.00    +0.000 N 
ATOM     13  C   UNL     1       1.975   8.595  18.379  0.00  0.00    +0.000 C 
ATOM     14  O   UNL     1       2.074   8.958  17.206  0.00  0.00    +0.000 OA
ATOM     15  H   UNL     1       1.904   6.962  19.592  0.00  0.00    +0.000 HD
BRANCH  13  16
ATOM     16  C   UNL     1       1.207   9.445  19.407  0.00  0.00    +0.000 C 
BRANCH  16  17
ATOM     17  N   UNL     1       0.439  10.539  18.824  0.00  0.00    +0.000 N 
ATOM     18  C   UNL     1      -0.992  10.415  18.524  0.00  0.00    +0.000 C 
ATOM     19  C   UNL     1      -1.511  11.822  18.153  0.00  0.00    +0.000 C 
ATOM     20  C   UNL     1      -0.356  12.685  18.541  0.00  0.00    +0.000 A 
ATOM     21  C   UNL     1      -0.295  14.071  18.537  0.00  0.00    +0.000 A 
ATOM     22  C   UNL     1       0.915  14.675  18.875  0.00  0.00    +0.000 A 
ATOM     23  C   UNL     1       2.032  13.889  19.184  0.00  0.00    +0.000 A 
ATOM     24  C   UNL     1       1.946  12.491  19.188  0.00  0.00    +0.000 A 
ATOM     25  C   UNL     1       0.739  11.886  18.887  0.00  0.00    +0.000 A 
ENDBRANCH  16  17
ENDBRANCH  13  16
ENDBRANCH   2  12
BRANCH   1  26
ATOM     26  C   UNL     1       1.791   4.569  18.168  0.00  0.00    +0.000 C 
ATOM     27  O   UNL     1       1.127   3.929  17.365  0.00  0.00    +0.000 OA
BRANCH  26  28
ATOM     28  O   UNL     1       1.472   4.761  19.474  0.00  0.00    +0.000 OA
BRANCH  28  29
ATOM     29  C   UNL     1       1.148   3.591  20.236  0.00  0.00    +0.000 C 
BRANCH  29  30
ATOM     30  C   UNL     1       2.419   3.107  20.934  0.00  0.00    +0.000 C 
BRANCH  30  32
ATOM     31  C   UNL     1       4.473   2.244  20.132  0.00  0.00    +0.000 C 
ATOM     32  O   UNL     1       3.059   2.132  20.110  0.00  0.00    +0.000 OA
ENDBRANCH  30  32
ENDBRANCH  29  30
ENDBRANCH  28  29
ENDBRANCH  26  28
ENDBRANCH   1  26
TORSDOF 9
ENDMDL
MODEL 3
REMARK VINA RESULT:      -7.4      2.472      4.940
REMARK  Name = 
REMARK  11 active torsions:
REMARK  status: ('A' for Active; 'I' for Inactive)
REMARK    1  A    between atoms: C_1  and  O_2
REMARK    2  A    between atoms: O_2  and  C_3
REMARK    3  A    between atoms: C_3  and  C_4
REMARK    4  A    between atoms: C_4  and  O_5
REMARK    5  A    between atoms: O_5  and  C_6
REMARK    6  A    between atoms: C_6  and  C_8
REMARK    7  A    between atoms: C_9  and  N_10
REMARK    8  A    between atoms: C_11  and  C_13
REMARK    9  A    between atoms: C_13  and  N_14
REMARK   10  A    between atoms: C_24  and  C_25
REMARK   11  A    between atoms: C_28  and  C_29
REMARK                            x       y       z     vdW  Elec       q    Type
REMARK                         _______ _______ _______ _____ _____    ______ ____
ROOT
ATOM      1  C   UNL     1       3.600   5.808  18.749  0.00  0.00    +0.000 A 
ATOM      2  C   UNL     1       2.547   6.592  19.173  0.00  0.00    +0.000 A 
ATOM      3  S   UNL     1       1.493   5.761  20.216  0.00  0.00    +0.000 S 
ATOM      4  C   UNL     1       2.411   4.310  20.155  0.00  0.00    +0.000 A 
ATOM      5  C   UNL     1       3.525   4.458  19.328  0.00  0.00    +0.000 A 
ATOM      6  C   UNL     1       4.523   3.372  19.035  0.00  0.00    +0.000 C 
ENDROOT
BRANCH   4   7
ATOM      7  C   UNL     1       1.994   3.120  20.901  0.00  0.00    +0.000 C 
ATOM      8  N   UNL     1       2.209   3.111  22.249  0.00  0.00    +0.000 N 
ATOM      9  O   UNL     1       1.461   2.126  20.408  0.00  0.00    +0.000 OA
ATOM     10  H   UNL     1       2.700   3.857  22.717  0.00  0.00    +0.000 HD
ATOM     11  H   UNL     1       1.968   2.265  22.751  0.00  0.00    +0.000 HD
ENDBRANCH   4   7
BRANCH   2  12
ATOM     12  N   UNL     1       2.223   7.887  18.766  0.00  0.00    +0.000 N 
ATOM     13  C   UNL     1       1.545   8.769  19.598  0.00  0.00    +0.000 C 
ATOM     14  O   UNL     1       1.245   8.544  20.772  0.00  0.00    +0.000 OA
ATOM     15  H   UNL     1       2.891   8.334  18.135  0.00  0.00    +0.000 HD
BRANCH  13  16
ATOM     16  C   UNL     1       1.199  10.117  18.939  0.00  0.00    +0.000 C 
BRANCH  16  17
ATOM     17  N   UNL     1      -0.115  10.638  19.295  0.00  0.00    +0.000 N 
ATOM     18  C   UNL     1      -0.292  11.679  20.313  0.00  0.00    +0.000 C 
ATOM     19  C   UNL     1      -1.764  12.145  20.250  0.00  0.00    +0.000 C 
ATOM     20  C   UNL     1      -2.234  11.494  18.991  0.00  0.00    +0.000 A 
ATOM     21  C   UNL     1      -3.462  11.651  18.364  0.00  0.00    +0.000 A 
ATOM     22  C   UNL     1      -3.719  10.890  17.225  0.00  0.00    +0.000 A 
ATOM     23  C   UNL     1      -2.762   9.980  16.756  0.00  0.00    +0.000 A 
ATOM     24  C   UNL     1      -1.527   9.842  17.402  0.00  0.00    +0.000 A 
ATOM     25  C   UNL     1      -1.252  10.621  18.512  0.00  0.00    +0.000 A 
ENDBRANCH  16  17
ENDBRANCH  13  16
ENDBRANCH   2  12
BRANCH   1  26
ATOM     26  C   UNL     1       4.637   6.322  17.841  0.00  0.00    +0.000 C 
ATOM     27  O   UNL     1       4.395   6.691  16.701  0.00  0.00    +0.000 OA
BRANCH  26  28
ATOM     28  O   UNL     1       5.866   6.319  18.421  0.00  0.00    +0.000 OA
BRANCH  28  29
ATOM     29  C   UNL     1       6.990   6.175  17.544  0.00  0.00    +0.000 C 
BRANCH  29  30
ATOM     30  C   UNL     1       7.648   4.824  17.826  0.00  0.00    +0.000 C 
BRANCH  30  32
ATOM     31  C   UNL     1       7.108   4.696  15.525  0.00  0.00    +0.000 C 
ATOM     32  O   UNL     1       7.870   4.148  16.588  0.00  0.00    +0.000 OA
ENDBRANCH  30  32
ENDBRANCH  29  30
ENDBRANCH  28  29
ENDBRANCH  26  28
ENDBRANCH   1  26
TORSDOF 9
ENDMDL
MODEL 4
REMARK VINA RESULT:      -7.4      1.713      2.135
REMARK  Name = 
REMARK  11 active torsions:
REMARK  status: ('A' for Active; 'I' for Inactive)
REMARK    1  A    between atoms: C_1  and  O_2
REMARK    2  A    between atoms: O_2  and  C_3
REMARK    3  A    between atoms: C_3  and  C_4
REMARK    4  A    between atoms: C_4  and  O_5
REMARK    5  A    between atoms: O_5  and  C_6
REMARK    6  A    between atoms: C_6  and  C_8
REMARK    7  A    between atoms: C_9  and  N_10
REMARK    8  A    between atoms: C_11  and  C_13
REMARK    9  A    between atoms: C_13  and  N_14
REMARK   10  A    between atoms: C_24  and  C_25
REMARK   11  A    between atoms: C_28  and  C_29
REMARK                            x       y       z     vdW  Elec       q    Type
REMARK                         _______ _______ _______ _____ _____    ______ ____
ROOT
ATOM      1  C   UNL     1       3.039   5.288  17.774  0.00  0.00    +0.000 A 
ATOM      2  C   UNL     1       3.230   6.625  18.057  0.00  0.00    +0.000 A 
ATOM      3  S   UNL     1       4.725   7.206  17.493  0.00  0.00    +0.000 S 
ATOM      4  C   UNL     1       5.180   5.688  16.830  0.00  0.00    +0.000 A 
ATOM      5  C   UNL     1       4.190   4.730  17.047  0.00  0.00    +0.000 A 
ATOM      6  C   UNL     1       4.282   3.292  16.617  0.00  0.00    +0.000 C 
ENDROOT
BRANCH   4   7
ATOM      7  C   UNL     1       6.468   5.516  16.152  0.00  0.00    +0.000 C 
ATOM      8  N   UNL     1       7.519   5.062  16.895  0.00  0.00    +0.000 N 
ATOM      9  O   UNL     1       6.676   5.746  14.961  0.00  0.00    +0.000 OA
ATOM     10  H   UNL     1       7.446   4.914  17.890  0.00  0.00    +0.000 HD
ATOM     11  H   UNL     1       8.418   4.997  16.434  0.00  0.00    +0.000 HD
ENDBRANCH   4   7
BRANCH   2  12
ATOM     12  N   UNL     1       2.413   7.467  18.813  0.00  0.00    +0.000 N 
ATOM     13  C   UNL     1       1.999   8.706  18.340  0.00  0.00    +0.000 C 
ATOM     14  O   UNL     1       2.227   9.143  17.211  0.00  0.00    +0.000 OA
ATOM     15  H   UNL     1       1.733   7.000  19.418  0.00  0.00    +0.000 HD
BRANCH  13  16
ATOM     16  C   UNL     1       1.179   9.526  19.353  0.00  0.00    +0.000 C 
BRANCH  16  17
ATOM     17  N   UNL     1       0.001  10.171  18.787  0.00  0.00    +0.000 N 
ATOM     18  C   UNL     1      -0.749   9.585  17.670  0.00  0.00    +0.000 C 
ATOM     19  C   UNL     1      -2.047  10.406  17.503  0.00  0.00    +0.000 C 
ATOM     20  C   UNL     1      -2.041  11.241  18.740  0.00  0.00    +0.000 A 
ATOM     21  C   UNL     1      -3.034  12.101  19.187  0.00  0.00    +0.000 A 
ATOM     22  C   UNL     1      -2.789  12.841  20.343  0.00  0.00    +0.000 A 
ATOM     23  C   UNL     1      -1.561  12.724  21.007  0.00  0.00    +0.000 A 
ATOM     24  C   UNL     1      -0.575  11.845  20.541  0.00  0.00    +0.000 A 
ATOM     25  C   UNL     1      -0.826  11.082  19.415  0.00  0.00    +0.000 A 
ENDBRANCH  16  17
ENDBRANCH  13  16
ENDBRANCH   2  12
BRANCH   1  26
ATOM     26  C   UNL     1       1.814   4.576  18.167  0.00  0.00    +0.000 C 
ATOM     27  O   UNL     1       1.060   4.059  17.355  0.00  0.00    +0.000 OA
BRANCH  26  28
ATOM     28  O   UNL     1       1.633   4.582  19.514  0.00  0.00    +0.000 OA
BRANCH  28  29
ATOM     29  C   UNL     1       0.996   3.431  20.082  0.00  0.00    +0.000 C 
BRANCH  29  30
ATOM     30  C   UNL     1       1.976   2.259  20.017  0.00  0.00    +0.000 C 
BRANCH  30  32
ATOM     31  C   UNL     1       4.336   2.383  20.143  0.00  0.00    +0.000 C 
ATOM     32  O   UNL     1       3.110   2.557  20.832  0.00  0.00    +0.000 OA
ENDBRANCH  30  32
ENDBRANCH  29  30
ENDBRANCH  28  29
ENDBRANCH  26  28
ENDBRANCH   1  26
TORSDOF 9
ENDMDL
MODEL 5
REMARK VINA RESULT:      -7.4      2.454      4.726
REMARK  Name = 
REMARK  11 active torsions:
REMARK  status: ('A' for Active; 'I' for Inactive)
REMARK    1  A    between atoms: C_1  and  O_2
REMARK    2  A    between atoms: O_2  and  C_3
REMARK    3  A    between atoms: C_3  and  C_4
REMARK    4  A    between atoms: C_4  and  O_5
REMARK    5  A    between atoms: O_5  and  C_6
REMARK    6  A    between atoms: C_6  and  C_8
REMARK    7  A    between atoms: C_9  and  N_10
REMARK    8  A    between atoms: C_11  and  C_13
REMARK    9  A    between atoms: C_13  and  N_14
REMARK   10  A    between atoms: C_24  and  C_25
REMARK   11  A    between atoms: C_28  and  C_29
REMARK                            x       y       z     vdW  Elec       q    Type
REMARK                         _______ _______ _______ _____ _____    ______ ____
ROOT
ATOM      1  C   UNL     1       3.494   5.490  18.570  0.00  0.00    +0.000 A 
ATOM      2  C   UNL     1       2.536   6.358  19.053  0.00  0.00    +0.000 A 
ATOM      3  S   UNL     1       1.637   5.693  20.333  0.00  0.00    +0.000 S 
ATOM      4  C   UNL     1       2.504   4.209  20.306  0.00  0.00    +0.000 A 
ATOM      5  C   UNL     1       3.480   4.219  19.310  0.00  0.00    +0.000 A 
ATOM      6  C   UNL     1       4.397   3.068  19.000  0.00  0.00    +0.000 C 
ENDROOT
BRANCH   4   7
ATOM      7  C   UNL     1       2.181   3.129  21.241  0.00  0.00    +0.000 C 
ATOM      8  N   UNL     1       0.881   2.717  21.308  0.00  0.00    +0.000 N 
ATOM      9  O   UNL     1       2.991   2.560  21.972  0.00  0.00    +0.000 OA
ATOM     10  H   UNL     1       0.147   3.177  20.792  0.00  0.00    +0.000 HD
ATOM     11  H   UNL     1       0.654   2.009  21.994  0.00  0.00    +0.000 HD
ENDBRANCH   4   7
BRANCH   2  12
ATOM     12  N   UNL     1       2.181   7.610  18.549  0.00  0.00    +0.000 N 
ATOM     13  C   UNL     1       1.678   8.614  19.367  0.00  0.00    +0.000 C 
ATOM     14  O   UNL     1       1.577   8.542  20.593  0.00  0.00    +0.000 OA
ATOM     15  H   UNL     1       2.743   7.950  17.766  0.00  0.00    +0.000 HD
BRANCH  13  16
ATOM     16  C   UNL     1       1.260   9.891  18.615  0.00  0.00    +0.000 C 
BRANCH  16  17
ATOM     17  N   UNL     1       0.002  10.470  19.070  0.00  0.00    +0.000 N 
ATOM     18  C   UNL     1      -0.050  11.504  20.108  0.00  0.00    +0.000 C 
ATOM     19  C   UNL     1      -1.498  12.041  20.155  0.00  0.00    +0.000 C 
ATOM     20  C   UNL     1      -2.089  11.431  18.927  0.00  0.00    +0.000 A 
ATOM     21  C   UNL     1      -3.348  11.657  18.391  0.00  0.00    +0.000 A 
ATOM     22  C   UNL     1      -3.723  10.924  17.267  0.00  0.00    +0.000 A 
ATOM     23  C   UNL     1      -2.848   9.975  16.721  0.00  0.00    +0.000 A 
ATOM     24  C   UNL     1      -1.579   9.769  17.274  0.00  0.00    +0.000 A 
ATOM     25  C   UNL     1      -1.187  10.518  18.369  0.00  0.00    +0.000 A 
ENDBRANCH  16  17
ENDBRANCH  13  16
ENDBRANCH   2  12
BRANCH   1  26
ATOM     26  C   UNL     1       4.390   5.857  17.463  0.00  0.00    +0.000 C 
ATOM     27  O   UNL     1       4.712   7.013  17.227  0.00  0.00    +0.000 OA
BRANCH  26  28
ATOM     28  O   UNL     1       4.789   4.771  16.751  0.00  0.00    +0.000 OA
BRANCH  28  29
ATOM     29  C   UNL     1       6.055   4.867  16.086  0.00  0.00    +0.000 C 
BRANCH  29  30
ATOM     30  C   UNL     1       7.155   4.554  17.101  0.00  0.00    +0.000 C 
BRANCH  30  32
ATOM     31  C   UNL     1       7.778   5.926  18.928  0.00  0.00    +0.000 C 
ATOM     32  O   UNL     1       7.763   5.777  17.517  0.00  0.00    +0.000 OA
ENDBRANCH  30  32
ENDBRANCH  29  30
ENDBRANCH  28  29
ENDBRANCH  26  28
ENDBRANCH   1  26
TORSDOF 9
ENDMDL
MODEL 6
REMARK VINA RESULT:      -7.2      2.251      4.381
REMARK  Name = 
REMARK  11 active torsions:
REMARK  status: ('A' for Active; 'I' for Inactive)
REMARK    1  A    between atoms: C_1  and  O_2
REMARK    2  A    between atoms: O_2  and  C_3
REMARK    3  A    between atoms: C_3  and  C_4
REMARK    4  A    between atoms: C_4  and  O_5
REMARK    5  A    between atoms: O_5  and  C_6
REMARK    6  A    between atoms: C_6  and  C_8
REMARK    7  A    between atoms: C_9  and  N_10
REMARK    8  A    between atoms: C_11  and  C_13
REMARK    9  A    between atoms: C_13  and  N_14
REMARK   10  A    between atoms: C_24  and  C_25
REMARK   11  A    between atoms: C_28  and  C_29
REMARK                            x       y       z     vdW  Elec       q    Type
REMARK                         _______ _______ _______ _____ _____    ______ ____
ROOT
ATOM      1  C   UNL     1       2.900   5.819  18.667  0.00  0.00    +0.000 A 
ATOM      2  C   UNL     1       2.305   6.057  19.889  0.00  0.00    +0.000 A 
ATOM      3  S   UNL     1       1.380   4.738  20.433  0.00  0.00    +0.000 S 
ATOM      4  C   UNL     1       1.748   3.781  19.054  0.00  0.00    +0.000 A 
ATOM      5  C   UNL     1       2.575   4.473  18.170  0.00  0.00    +0.000 A 
ATOM      6  C   UNL     1       3.063   3.933  16.854  0.00  0.00    +0.000 C 
ENDROOT
BRANCH   4   7
ATOM      7  C   UNL     1       1.207   2.426  18.910  0.00  0.00    +0.000 C 
ATOM      8  N   UNL     1       2.050   1.379  19.154  0.00  0.00    +0.000 N 
ATOM      9  O   UNL     1       0.051   2.156  18.589  0.00  0.00    +0.000 OA
ATOM     10  H   UNL     1       3.028   1.517  19.356  0.00  0.00    +0.000 HD
ATOM     11  H   UNL     1       1.687   0.447  19.000  0.00  0.00    +0.000 HD
ENDBRANCH   4   7
BRANCH   2  12
ATOM     12  N   UNL     1       2.298   7.243  20.623  0.00  0.00    +0.000 N 
ATOM     13  C   UNL     1       1.118   7.819  21.077  0.00  0.00    +0.000 C 
ATOM     14  O   UNL     1      -0.002   7.317  20.962  0.00  0.00    +0.000 OA
ATOM     15  H   UNL     1       3.100   7.388  21.241  0.00  0.00    +0.000 HD
BRANCH  13  16
ATOM     16  C   UNL     1       1.308   9.170  21.789  0.00  0.00    +0.000 C 
BRANCH  16  17
ATOM     17  N   UNL     1       0.623  10.287  21.148  0.00  0.00    +0.000 N 
ATOM     18  C   UNL     1       0.702  10.524  19.703  0.00  0.00    +0.000 C 
ATOM     19  C   UNL     1      -0.324  11.626  19.358  0.00  0.00    +0.000 C 
ATOM     20  C   UNL     1      -1.098  11.731  20.631  0.00  0.00    +0.000 A 
ATOM     21  C   UNL     1      -2.233  12.491  20.872  0.00  0.00    +0.000 A 
ATOM     22  C   UNL     1      -2.758  12.494  22.163  0.00  0.00    +0.000 A 
ATOM     23  C   UNL     1      -2.131  11.761  23.180  0.00  0.00    +0.000 A 
ATOM     24  C   UNL     1      -0.990  10.995  22.912  0.00  0.00    +0.000 A 
ATOM     25  C   UNL     1      -0.484  10.960  21.624  0.00  0.00    +0.000 A 
ENDBRANCH  16  17
ENDBRANCH  13  16
ENDBRANCH   2  12
BRANCH   1  26
ATOM     26  C   UNL     1       3.749   6.822  18.006  0.00  0.00    +0.000 C 
ATOM     27  O   UNL     1       3.302   7.855  17.528  0.00  0.00    +0.000 OA
BRANCH  26  28
ATOM     28  O   UNL     1       5.056   6.449  17.988  0.00  0.00    +0.000 OA
BRANCH  28  29
ATOM     29  C   UNL     1       5.755   6.618  16.748  0.00  0.00    +0.000 C 
BRANCH  29  30
ATOM     30  C   UNL     1       7.239   6.344  16.995  0.00  0.00    +0.000 C 
BRANCH  30  32
ATOM     31  C   UNL     1       6.930   4.572  15.455  0.00  0.00    +0.000 C 
ATOM     32  O   UNL     1       7.516   4.979  16.681  0.00  0.00    +0.000 OA
ENDBRANCH  30  32
ENDBRANCH  29  30
ENDBRANCH  28  29
ENDBRANCH  26  28
ENDBRANCH   1  26
TORSDOF 9
ENDMDL
MODEL 7
REMARK VINA RESULT:      -7.2      2.683      4.817
REMARK  Name = 
REMARK  11 active torsions:
REMARK  status: ('A' for Active; 'I' for Inactive)
REMARK    1  A    between atoms: C_1  and  O_2
REMARK    2  A    between atoms: O_2  and  C_3
REMARK    3  A    between atoms: C_3  and  C_4
REMARK    4  A    between atoms: C_4  and  O_5
REMARK    5  A    between atoms: O_5  and  C_6
REMARK    6  A    between atoms: C_6  and  C_8
REMARK    7  A    between atoms: C_9  and  N_10
REMARK    8  A    between atoms: C_11  and  C_13
REMARK    9  A    between atoms: C_13  and  N_14
REMARK   10  A    between atoms: C_24  and  C_25
REMARK   11  A    between atoms: C_28  and  C_29
REMARK                            x       y       z     vdW  Elec       q    Type
REMARK                         _______ _______ _______ _____ _____    ______ ____
ROOT
ATOM      1  C   UNL     1       3.616   4.867  18.265  0.00  0.00    +0.000 A 
ATOM      2  C   UNL     1       2.827   5.909  18.709  0.00  0.00    +0.000 A 
ATOM      3  S   UNL     1       1.932   5.506  20.096  0.00  0.00    +0.000 S 
ATOM      4  C   UNL     1       2.574   3.914  20.173  0.00  0.00    +0.000 A 
ATOM      5  C   UNL     1       3.472   3.686  19.130  0.00  0.00    +0.000 A 
ATOM      6  C   UNL     1       4.192   2.388  18.889  0.00  0.00    +0.000 C 
ENDROOT
BRANCH   4   7
ATOM      7  C   UNL     1       2.165   2.985  21.229  0.00  0.00    +0.000 C 
ATOM      8  N   UNL     1       0.834   2.702  21.343  0.00  0.00    +0.000 N 
ATOM      9  O   UNL     1       2.928   2.435  22.023  0.00  0.00    +0.000 OA
ATOM     10  H   UNL     1       0.140   3.162  20.776  0.00  0.00    +0.000 HD
ATOM     11  H   UNL     1       0.552   2.103  22.108  0.00  0.00    +0.000 HD
ENDBRANCH   4   7
BRANCH   2  12
ATOM     12  N   UNL     1       2.620   7.148  18.100  0.00  0.00    +0.000 N 
ATOM     13  C   UNL     1       2.101   8.230  18.799  0.00  0.00    +0.000 C 
ATOM     14  O   UNL     1       1.859   8.241  20.007  0.00  0.00    +0.000 OA
ATOM     15  H   UNL     1       3.290   7.401  17.370  0.00  0.00    +0.000 HD
BRANCH  13  16
ATOM     16  C   UNL     1       1.862   9.482  17.935  0.00  0.00    +0.000 C 
BRANCH  16  17
ATOM     17  N   UNL     1       0.922  10.437  18.511  0.00  0.00    +0.000 N 
ATOM     18  C   UNL     1       1.362  11.708  19.095  0.00  0.00    +0.000 C 
ATOM     19  C   UNL     1       0.097  12.550  19.377  0.00  0.00    +0.000 C 
ATOM     20  C   UNL     1      -0.955  11.765  18.666  0.00  0.00    +0.000 A 
ATOM     21  C   UNL     1      -2.287  12.108  18.480  0.00  0.00    +0.000 A 
ATOM     22  C   UNL     1      -3.117  11.189  17.840  0.00  0.00    +0.000 A 
ATOM     23  C   UNL     1      -2.609   9.952  17.424  0.00  0.00    +0.000 A 
ATOM     24  C   UNL     1      -1.260   9.630  17.616  0.00  0.00    +0.000 A 
ATOM     25  C   UNL     1      -0.422  10.551  18.219  0.00  0.00    +0.000 A 
ENDBRANCH  16  17
ENDBRANCH  13  16
ENDBRANCH   2  12
BRANCH   1  26
ATOM     26  C   UNL     1       4.478   4.993  17.080  0.00  0.00    +0.000 C 
ATOM     27  O   UNL     1       4.440   4.202  16.148  0.00  0.00    +0.000 OA
BRANCH  26  28
ATOM     28  O   UNL     1       5.305   6.068  17.164  0.00  0.00    +0.000 OA
BRANCH  28  29
ATOM     29  C   UNL     1       6.390   5.973  18.096  0.00  0.00    +0.000 C 
BRANCH  29  30
ATOM     30  C   UNL     1       7.590   6.717  17.511  0.00  0.00    +0.000 C 
BRANCH  30  32
ATOM     31  C   UNL     1       8.099   8.998  17.885  0.00  0.00    +0.000 C 
ATOM     32  O   UNL     1       7.220   8.074  17.265  0.00  0.00    +0.000 OA
ENDBRANCH  30  32
ENDBRANCH  29  30
ENDBRANCH  28  29
ENDBRANCH  26  28
ENDBRANCH   1  26
TORSDOF 9
ENDMDL
MODEL 8
REMARK VINA RESULT:      -7.2      1.169      1.315
REMARK  Name = 
REMARK  11 active torsions:
REMARK  status: ('A' for Active; 'I' for Inactive)
REMARK    1  A    between atoms: C_1  and  O_2
REMARK    2  A    between atoms: O_2  and  C_3
REMARK    3  A    between atoms: C_3  and  C_4
REMARK    4  A    between atoms: C_4  and  O_5
REMARK    5  A    between atoms: O_5  and  C_6
REMARK    6  A    between atoms: C_6  and  C_8
REMARK    7  A    between atoms: C_9  and  N_10
REMARK    8  A    between atoms: C_11  and  C_13
REMARK    9  A    between atoms: C_13  and  N_14
REMARK   10  A    between atoms: C_24  and  C_25
REMARK   11  A    between atoms: C_28  and  C_29
REMARK                            x       y       z     vdW  Elec       q    Type
REMARK                         _______ _______ _______ _____ _____    ______ ____
ROOT
ATOM      1  C   UNL     1       3.175   4.840  18.141  0.00  0.00    +0.000 A 
ATOM      2  C   UNL     1       3.477   5.953  18.899  0.00  0.00    +0.000 A 
ATOM      3  S   UNL     1       5.100   6.433  18.739  0.00  0.00    +0.000 S 
ATOM      4  C   UNL     1       5.470   5.172  17.632  0.00  0.00    +0.000 A 
ATOM      5  C   UNL     1       4.351   4.376  17.388  0.00  0.00    +0.000 A 
ATOM      6  C   UNL     1       4.338   3.171  16.488  0.00  0.00    +0.000 C 
ENDROOT
BRANCH   4   7
ATOM      7  C   UNL     1       6.818   5.026  17.077  0.00  0.00    +0.000 C 
ATOM      8  N   UNL     1       7.711   4.264  17.773  0.00  0.00    +0.000 N 
ATOM      9  O   UNL     1       7.210   5.536  16.027  0.00  0.00    +0.000 OA
ATOM     10  H   UNL     1       7.488   3.868  18.673  0.00  0.00    +0.000 HD
ATOM     11  H   UNL     1       8.656   4.211  17.413  0.00  0.00    +0.000 HD
ENDBRANCH   4   7
BRANCH   2  12
ATOM     12  N   UNL     1       2.657   6.615  19.814  0.00  0.00    +0.000 N 
ATOM     13  C   UNL     1       2.045   7.824  19.509  0.00  0.00    +0.000 C 
ATOM     14  O   UNL     1       2.086   8.379  18.409  0.00  0.00    +0.000 OA
ATOM     15  H   UNL     1       2.114   6.015  20.438  0.00  0.00    +0.000 HD
BRANCH  13  16
ATOM     16  C   UNL     1       1.255   8.443  20.676  0.00  0.00    +0.000 C 
BRANCH  16  17
ATOM     17  N   UNL     1       0.586   9.696  20.349  0.00  0.00    +0.000 N 
ATOM     18  C   UNL     1       0.311  10.096  18.965  0.00  0.00    +0.000 C 
ATOM     19  C   UNL     1      -0.607  11.337  19.014  0.00  0.00    +0.000 C 
ATOM     20  C   UNL     1      -0.994  11.372  20.456  0.00  0.00    +0.000 A 
ATOM     21  C   UNL     1      -1.907  12.218  21.067  0.00  0.00    +0.000 A 
ATOM     22  C   UNL     1      -2.066  12.123  22.448  0.00  0.00    +0.000 A 
ATOM     23  C   UNL     1      -1.300  11.210  23.184  0.00  0.00    +0.000 A 
ATOM     24  C   UNL     1      -0.388  10.361  22.545  0.00  0.00    +0.000 A 
ATOM     25  C   UNL     1      -0.251  10.426  21.170  0.00  0.00    +0.000 A 
ENDBRANCH  16  17
ENDBRANCH  13  16
ENDBRANCH   2  12
BRANCH   1  26
ATOM     26  C   UNL     1       1.828   4.251  18.124  0.00  0.00    +0.000 C 
ATOM     27  O   UNL     1       1.159   4.159  17.104  0.00  0.00    +0.000 OA
BRANCH  26  28
ATOM     28  O   UNL     1       1.435   3.847  19.360  0.00  0.00    +0.000 OA
BRANCH  28  29
ATOM     29  C   UNL     1       1.980   2.610  19.836  0.00  0.00    +0.000 C 
BRANCH  29  30
ATOM     30  C   UNL     1       2.402   2.801  21.292  0.00  0.00    +0.000 C 
BRANCH  30  32
ATOM     31  C   UNL     1       4.406   2.094  20.249  0.00  0.00    +0.000 C 
ATOM     32  O   UNL     1       3.707   2.251  21.473  0.00  0.00    +0.000 OA
ENDBRANCH  30  32
ENDBRANCH  29  30
ENDBRANCH  28  29
ENDBRANCH  26  28
ENDBRANCH   1  26
TORSDOF 9
ENDMDL
MODEL 9
REMARK VINA RESULT:      -7.2      3.931      9.206
REMARK  Name = 
REMARK  11 active torsions:
REMARK  status: ('A' for Active; 'I' for Inactive)
REMARK    1  A    between atoms: C_1  and  O_2
REMARK    2  A    between atoms: O_2  and  C_3
REMARK    3  A    between atoms: C_3  and  C_4
REMARK    4  A    between atoms: C_4  and  O_5
REMARK    5  A    between atoms: O_5  and  C_6
REMARK    6  A    between atoms: C_6  and  C_8
REMARK    7  A    between atoms: C_9  and  N_10
REMARK    8  A    between atoms: C_11  and  C_13
REMARK    9  A    between atoms: C_13  and  N_14
REMARK   10  A    between atoms: C_24  and  C_25
REMARK   11  A    between atoms: C_28  and  C_29
REMARK                            x       y       z     vdW  Elec       q    Type
REMARK                         _______ _______ _______ _____ _____    ______ ____
ROOT
ATOM      1  C   UNL     1      -1.057  11.405  20.500  0.00  0.00    +0.000 A 
ATOM      2  C   UNL     1      -0.411  10.619  21.433  0.00  0.00    +0.000 A 
ATOM      3  S   UNL     1      -0.973  10.888  23.014  0.00  0.00    +0.000 S 
ATOM      4  C   UNL     1      -2.120  12.066  22.516  0.00  0.00    +0.000 A 
ATOM      5  C   UNL     1      -2.069  12.262  21.136  0.00  0.00    +0.000 A 
ATOM      6  C   UNL     1      -2.922  13.242  20.379  0.00  0.00    +0.000 C 
ENDROOT
BRANCH   4   7
ATOM      7  C   UNL     1      -2.989  12.733  23.490  0.00  0.00    +0.000 C 
ATOM      8  N   UNL     1      -4.136  12.091  23.859  0.00  0.00    +0.000 N 
ATOM      9  O   UNL     1      -2.765  13.828  24.005  0.00  0.00    +0.000 OA
ATOM     10  H   UNL     1      -4.423  11.224  23.432  0.00  0.00    +0.000 HD
ATOM     11  H   UNL     1      -4.758  12.580  24.489  0.00  0.00    +0.000 HD
ENDBRANCH   4   7
BRANCH   2  12
ATOM     12  N   UNL     1       0.668   9.759  21.229  0.00  0.00    +0.000 N 
ATOM     13  C   UNL     1       0.532   8.379  21.312  0.00  0.00    +0.000 C 
ATOM     14  O   UNL     1      -0.534   7.783  21.479  0.00  0.00    +0.000 OA
ATOM     15  H   UNL     1       1.364  10.072  20.548  0.00  0.00    +0.000 HD
BRANCH  13  16
ATOM     16  C   UNL     1       1.852   7.604  21.147  0.00  0.00    +0.000 C 
BRANCH  16  17
ATOM     17  N   UNL     1       1.950   6.845  19.905  0.00  0.00    +0.000 N 
ATOM     18  C   UNL     1       2.707   7.336  18.749  0.00  0.00    +0.000 C 
ATOM     19  C   UNL     1       2.790   6.182  17.726  0.00  0.00    +0.000 C 
ATOM     20  C   UNL     1       2.285   5.028  18.527  0.00  0.00    +0.000 A 
ATOM     21  C   UNL     1       2.240   3.693  18.153  0.00  0.00    +0.000 A 
ATOM     22  C   UNL     1       1.661   2.784  19.037  0.00  0.00    +0.000 A 
ATOM     23  C   UNL     1       1.124   3.228  20.253  0.00  0.00    +0.000 A 
ATOM     24  C   UNL     1       1.186   4.580  20.612  0.00  0.00    +0.000 A 
ATOM     25  C   UNL     1       1.791   5.482  19.755  0.00  0.00    +0.000 A 
ENDBRANCH  16  17
ENDBRANCH  13  16
ENDBRANCH   2  12
BRANCH   1  26
ATOM     26  C   UNL     1      -0.732  11.338  19.066  0.00  0.00    +0.000 C 
ATOM     27  O   UNL     1      -0.208  12.263  18.463  0.00  0.00    +0.000 OA
BRANCH  26  28
ATOM     28  O   UNL     1      -1.096  10.149  18.519  0.00  0.00    +0.000 OA
BRANCH  28  29
ATOM     29  C   UNL     1      -1.887  10.205  17.325  0.00  0.00    +0.000 C 
BRANCH  29  30
ATOM     30  C   UNL     1      -3.359  10.292  17.729  0.00  0.00    +0.000 C 
BRANCH  30  32
ATOM     31  C   UNL     1      -5.002  11.814  16.962  0.00  0.00    +0.000 C 
ATOM     32  O   UNL     1      -4.119  10.760  16.615  0.00  0.00    +0.000 OA
ENDBRANCH  30  32
ENDBRANCH  29  30
ENDBRANCH  28  29
ENDBRANCH  26  28
ENDBRANCH   1  26
TORSDOF 9
ENDMDL
