MODEL 1
REMARK VINA RESULT:      -7.9      0.000      0.000
REMARK  Name = 
REMARK  4 active torsions:
REMARK  status: ('A' for Active; 'I' for Inactive)
REMARK    1  A    between atoms: C_1  and  C_2
REMARK    2  A    between atoms: C_2  and  C_3
REMARK    3  A    between atoms: C_5  and  C_6
REMARK    4  A    between atoms: C_20  and  C_21
REMARK                            x       y       z     vdW  Elec       q    Type
REMARK                         _______ _______ _______ _____ _____    ______ ____
ROOT
ATOM      1  C   UNL     1       5.657   5.827  16.439  0.00  0.00    +0.000 A 
ATOM      2  C   UNL     1       5.025   4.740  17.036  0.00  0.00    +0.000 A 
ATOM      3  C   UNL     1       3.996   5.278  17.757  0.00  0.00    +0.000 A 
ATOM      4  N   UNL     1       3.988   6.624  17.523  0.00  0.00    +0.000 N 
ATOM      5  C   UNL     1       3.086   7.576  18.071  0.00  0.00    +0.000 A 
ATOM      6  C   UNL     1       2.770   8.711  17.340  0.00  0.00    +0.000 A 
ATOM      7  C   UNL     1       1.882   9.622  17.895  0.00  0.00    +0.000 A 
ATOM      8  C   UNL     1       1.354   9.380  19.152  0.00  0.00    +0.000 A 
ATOM      9  C   UNL     1       1.695   8.212  19.810  0.00  0.00    +0.000 A 
ATOM     10  C   UNL     1       1.137   7.897  21.156  0.00  0.00    +0.000 C 
ATOM     11  N   UNL     1       2.536   7.302  19.280  0.00  0.00    +0.000 NA
ATOM     12  N   UNL     1       5.028   6.977  16.725  0.00  0.00    +0.000 NA
ENDROOT
BRANCH   3  13
ATOM     13  C   UNL     1       3.033   4.593  18.503  0.00  0.00    +0.000 A 
ATOM     14  C   UNL     1       3.134   4.194  19.785  0.00  0.00    +0.000 A 
ATOM     15  C   UNL     1       2.055   3.475  20.143  0.00  0.00    +0.000 A 
ATOM     16  C   UNL     1       1.578   2.834  21.338  0.00  0.00    +0.000 A 
ATOM     17  N   UNL     1       2.452   2.957  22.134  0.00  0.00    +0.000 NA
ATOM     18  C   UNL     1       1.410   2.424  21.926  0.00  0.00    +0.000 A 
ATOM     19  C   UNL     1       0.291   2.458  20.164  0.00  0.00    +0.000 A 
ATOM     20  C   UNL     1       1.115   3.246  19.259  0.00  0.00    +0.000 A 
ATOM     21  S   UNL     1       1.569   4.027  17.795  0.00  0.00    +0.000 S 
ENDBRANCH   3  13
BRANCH   1  23
ATOM     22  C   UNL     1       6.822   4.517  14.716  0.00  0.00    +0.000 C 
ATOM     23  C   UNL     1       6.820   5.802  15.512  0.00  0.00    +0.000 C 
ENDBRANCH   1  23
TORSDOF 2
ENDMDL
MODEL 2
REMARK VINA RESULT:      -7.7      1.475      6.000
REMARK  Name = 
REMARK  4 active torsions:
REMARK  status: ('A' for Active; 'I' for Inactive)
REMARK    1  A    between atoms: C_1  and  C_2
REMARK    2  A    between atoms: C_2  and  C_3
REMARK    3  A    between atoms: C_5  and  C_6
REMARK    4  A    between atoms: C_20  and  C_21
REMARK                            x       y       z     vdW  Elec       q    Type
REMARK                         _______ _______ _______ _____ _____    ______ ____
ROOT
ATOM      1  C   UNL     1       1.787   8.138  19.516  0.00  0.00    +0.000 A 
ATOM      2  C   UNL     1       2.669   7.866  18.474  0.00  0.00    +0.000 A 
ATOM      3  C   UNL     1       3.006   6.551  18.627  0.00  0.00    +0.000 A 
ATOM      4  N   UNL     1       2.284   6.059  19.677  0.00  0.00    +0.000 N 
ATOM      5  C   UNL     1       2.322   4.732  20.187  0.00  0.00    +0.000 A 
ATOM      6  C   UNL     1       1.187   4.199  20.776  0.00  0.00    +0.000 A 
ATOM      7  C   UNL     1       1.248   2.900  21.260  0.00  0.00    +0.000 A 
ATOM      8  C   UNL     1       2.431   2.188  21.155  0.00  0.00    +0.000 A 
ATOM      9  C   UNL     1       3.515   2.778  20.530  0.00  0.00    +0.000 A 
ATOM     10  C   UNL     1       4.804   2.045  20.374  0.00  0.00    +0.000 C 
ATOM     11  N   UNL     1       3.471   4.029  20.031  0.00  0.00    +0.000 NA
ATOM     12  N   UNL     1       1.542   7.041  20.249  0.00  0.00    +0.000 NA
ENDROOT
BRANCH   3  13
ATOM     13  C   UNL     1       3.834   5.785  17.801  0.00  0.00    +0.000 A 
ATOM     14  C   UNL     1       5.074   6.101  17.381  0.00  0.00    +0.000 A 
ATOM     15  C   UNL     1       5.531   5.175  16.518  0.00  0.00    +0.000 A 
ATOM     16  C   UNL     1       6.746   4.940  15.786  0.00  0.00    +0.000 A 
ATOM     17  N   UNL     1       7.432   5.888  15.999  0.00  0.00    +0.000 NA
ATOM     18  C   UNL     1       7.331   4.903  15.341  0.00  0.00    +0.000 A 
ATOM     19  C   UNL     1       5.725   3.570  15.280  0.00  0.00    +0.000 A 
ATOM     20  C   UNL     1       4.761   4.165  16.194  0.00  0.00    +0.000 A 
ATOM     21  S   UNL     1       3.289   4.325  17.071  0.00  0.00    +0.000 S 
ENDBRANCH   3  13
BRANCH   1  23
ATOM     22  C   UNL     1       0.833  10.166  18.508  0.00  0.00    +0.000 C 
ATOM     23  C   UNL     1       1.082   9.418  19.797  0.00  0.00    +0.000 C 
ENDBRANCH   1  23
TORSDOF 2
ENDMDL
MODEL 3
REMARK VINA RESULT:      -6.9      0.966      1.178
REMARK  Name = 
REMARK  4 active torsions:
REMARK  status: ('A' for Active; 'I' for Inactive)
REMARK    1  A    between atoms: C_1  and  C_2
REMARK    2  A    between atoms: C_2  and  C_3
REMARK    3  A    between atoms: C_5  and  C_6
REMARK    4  A    between atoms: C_20  and  C_21
REMARK                            x       y       z     vdW  Elec       q    Type
REMARK                         _______ _______ _______ _____ _____    ______ ____
ROOT
ATOM      1  C   UNL     1       5.866   6.699  17.330  0.00  0.00    +0.000 A 
ATOM      2  C   UNL     1       5.294   5.517  17.789  0.00  0.00    +0.000 A 
ATOM      3  C   UNL     1       4.091   5.885  18.321  0.00  0.00    +0.000 A 
ATOM      4  N   UNL     1       3.939   7.226  18.108  0.00  0.00    +0.000 N 
ATOM      5  C   UNL     1       2.832   8.028  18.499  0.00  0.00    +0.000 A 
ATOM      6  C   UNL     1       2.496   9.137  17.739  0.00  0.00    +0.000 A 
ATOM      7  C   UNL     1       1.408   9.900  18.138  0.00  0.00    +0.000 A 
ATOM      8  C   UNL     1       0.705   9.543  19.277  0.00  0.00    +0.000 A 
ATOM      9  C   UNL     1       1.084   8.406  19.969  0.00  0.00    +0.000 A 
ATOM     10  C   UNL     1       0.347   7.968  21.189  0.00  0.00    +0.000 C 
ATOM     11  N   UNL     1       2.122   7.637  19.586  0.00  0.00    +0.000 NA
ATOM     12  N   UNL     1       5.044   7.744  17.514  0.00  0.00    +0.000 NA
ENDROOT
BRANCH   3  13
ATOM     13  C   UNL     1       3.115   5.050  18.873  0.00  0.00    +0.000 A 
ATOM     14  C   UNL     1       3.093   4.545  20.121  0.00  0.00    +0.000 A 
ATOM     15  C   UNL     1       2.056   3.701  20.271  0.00  0.00    +0.000 A 
ATOM     16  C   UNL     1       1.499   2.912  21.336  0.00  0.00    +0.000 A 
ATOM     17  N   UNL     1       2.248   3.039  22.251  0.00  0.00    +0.000 NA
ATOM     18  C   UNL     1       1.300   2.436  21.861  0.00  0.00    +0.000 A 
ATOM     19  C   UNL     1       0.416   2.531  19.973  0.00  0.00    +0.000 A 
ATOM     20  C   UNL     1       1.264   3.471  19.253  0.00  0.00    +0.000 A 
ATOM     21  S   UNL     1       1.818   4.422  17.931  0.00  0.00    +0.000 S 
ENDBRANCH   3  13
BRANCH   1  23
ATOM     22  C   UNL     1       8.003   7.913  17.324  0.00  0.00    +0.000 C 
ATOM     23  C   UNL     1       7.166   6.866  16.625  0.00  0.00    +0.000 C 
ENDBRANCH   1  23
TORSDOF 2
ENDMDL
MODEL 4
REMARK VINA RESULT:      -6.8      1.832      6.023
REMARK  Name = 
REMARK  4 active torsions:
REMARK  status: ('A' for Active; 'I' for Inactive)
REMARK    1  A    between atoms: C_1  and  C_2
REMARK    2  A    between atoms: C_2  and  C_3
REMARK    3  A    between atoms: C_5  and  C_6
REMARK    4  A    between atoms: C_20  and  C_21
REMARK                            x       y       z     vdW  Elec       q    Type
REMARK                         _______ _______ _______ _____ _____    ______ ____
ROOT
ATOM      1  C   UNL     1       1.840   8.337  19.194  0.00  0.00    +0.000 A 
ATOM      2  C   UNL     1       2.969   8.192  18.395  0.00  0.00    +0.000 A 
ATOM      3  C   UNL     1       3.306   6.872  18.489  0.00  0.00    +0.000 A 
ATOM      4  N   UNL     1       2.358   6.258  19.259  0.00  0.00    +0.000 N 
ATOM      5  C   UNL     1       2.315   4.883  19.618  0.00  0.00    +0.000 A 
ATOM      6  C   UNL     1       1.088   4.276  19.832  0.00  0.00    +0.000 A 
ATOM      7  C   UNL     1       1.073   2.932  20.175  0.00  0.00    +0.000 A 
ATOM      8  C   UNL     1       2.270   2.248  20.306  0.00  0.00    +0.000 A 
ATOM      9  C   UNL     1       3.455   2.915  20.050  0.00  0.00    +0.000 A 
ATOM     10  C   UNL     1       4.768   2.217  20.157  0.00  0.00    +0.000 C 
ATOM     11  N   UNL     1       3.491   4.213  19.691  0.00  0.00    +0.000 NA
ATOM     12  N   UNL     1       1.457   7.163  19.719  0.00  0.00    +0.000 NA
ENDROOT
BRANCH   3  13
ATOM     13  C   UNL     1       4.348   6.212  17.831  0.00  0.00    +0.000 A 
ATOM     14  C   UNL     1       4.322   5.698  16.586  0.00  0.00    +0.000 A 
ATOM     15  C   UNL     1       5.468   5.047  16.319  0.00  0.00    +0.000 A 
ATOM     16  C   UNL     1       6.037   4.351  15.197  0.00  0.00    +0.000 A 
ATOM     17  N   UNL     1       5.182   4.331  14.371  0.00  0.00    +0.000 NA
ATOM     18  C   UNL     1       6.257   3.909  14.651  0.00  0.00    +0.000 A 
ATOM     19  C   UNL     1       7.311   4.187  16.432  0.00  0.00    +0.000 A 
ATOM     20  C   UNL     1       6.395   4.975  17.243  0.00  0.00    +0.000 A 
ATOM     21  S   UNL     1       5.829   5.836  18.622  0.00  0.00    +0.000 S 
ENDBRANCH   3  13
BRANCH   1  23
ATOM     22  C   UNL     1       0.251   9.909  18.171  0.00  0.00    +0.000 C 
ATOM     23  C   UNL     1       1.037   9.571  19.417  0.00  0.00    +0.000 C 
ENDBRANCH   1  23
TORSDOF 2
ENDMDL
MODEL 5
REMARK VINA RESULT:      -6.8      1.303      4.355
REMARK  Name = 
REMARK  4 active torsions:
REMARK  status: ('A' for Active; 'I' for Inactive)
REMARK    1  A    between atoms: C_1  and  C_2
REMARK    2  A    between atoms: C_2  and  C_3
REMARK    3  A    between atoms: C_5  and  C_6
REMARK    4  A    between atoms: C_20  and  C_21
REMARK                            x       y       z     vdW  Elec       q    Type
REMARK                         _______ _______ _______ _____ _____    ______ ____
ROOT
ATOM      1  C   UNL     1       2.300   9.147  17.929  0.00  0.00    +0.000 A 
ATOM      2  C   UNL     1       1.592   8.100  18.511  0.00  0.00    +0.000 A 
ATOM      3  C   UNL     1       2.380   6.998  18.341  0.00  0.00    +0.000 A 
ATOM      4  N   UNL     1       3.541   7.408  17.746  0.00  0.00    +0.000 N 
ATOM      5  C   UNL     1       4.645   6.590  17.383  0.00  0.00    +0.000 A 
ATOM      6  C   UNL     1       5.920   7.131  17.385  0.00  0.00    +0.000 A 
ATOM      7  C   UNL     1       6.981   6.310  17.033  0.00  0.00    +0.000 A 
ATOM      8  C   UNL     1       6.737   4.993  16.681  0.00  0.00    +0.000 A 
ATOM      9  C   UNL     1       5.439   4.516  16.729  0.00  0.00    +0.000 A 
ATOM     10  C   UNL     1       5.127   3.100  16.379  0.00  0.00    +0.000 C 
ATOM     11  N   UNL     1       4.397   5.289  17.092  0.00  0.00    +0.000 NA
ATOM     12  N   UNL     1       3.490   8.735  17.467  0.00  0.00    +0.000 NA
ENDROOT
BRANCH   3  13
ATOM     13  C   UNL     1       2.133   5.699  18.794  0.00  0.00    +0.000 A 
ATOM     14  C   UNL     1       2.323   5.226  20.040  0.00  0.00    +0.000 A 
ATOM     15  C   UNL     1       2.074   3.905  20.088  0.00  0.00    +0.000 A 
ATOM     16  C   UNL     1       2.062   2.881  21.097  0.00  0.00    +0.000 A 
ATOM     17  N   UNL     1       2.455   3.408  22.088  0.00  0.00    +0.000 NA
ATOM     18  C   UNL     1       2.170   2.359  21.605  0.00  0.00    +0.000 A 
ATOM     19  C   UNL     1       1.627   1.972  19.627  0.00  0.00    +0.000 A 
ATOM     20  C   UNL     1       1.726   3.278  18.991  0.00  0.00    +0.000 A 
ATOM     21  S   UNL     1       1.655   4.439  17.723  0.00  0.00    +0.000 S 
ENDBRANCH   3  13
BRANCH   1  23
ATOM     22  C   UNL     1       1.088  10.947  19.083  0.00  0.00    +0.000 C 
ATOM     23  C   UNL     1       1.912  10.583  17.869  0.00  0.00    +0.000 C 
ENDBRANCH   1  23
TORSDOF 2
ENDMDL
MODEL 6
REMARK VINA RESULT:      -6.8      2.932      5.965
REMARK  Name = 
REMARK  4 active torsions:
REMARK  status: ('A' for Active; 'I' for Inactive)
REMARK    1  A    between atoms: C_1  and  C_2
REMARK    2  A    between atoms: C_2  and  C_3
REMARK    3  A    between atoms: C_5  and  C_6
REMARK    4  A    between atoms: C_20  and  C_21
REMARK                            x       y       z     vdW  Elec       q    Type
REMARK                         _______ _______ _______ _____ _____    ______ ____
ROOT
ATOM      1  C   UNL     1       5.827   3.853  13.560  0.00  0.00    +0.000 A 
ATOM      2  C   UNL     1       6.765   4.647  14.211  0.00  0.00    +0.000 A 
ATOM      3  C   UNL     1       6.195   4.962  15.412  0.00  0.00    +0.000 A 
ATOM      4  N   UNL     1       4.997   4.308  15.483  0.00  0.00    +0.000 N 
ATOM      5  C   UNL     1       4.069   4.351  16.559  0.00  0.00    +0.000 A 
ATOM      6  C   UNL     1       3.265   3.250  16.806  0.00  0.00    +0.000 A 
ATOM      7  C   UNL     1       2.371   3.315  17.866  0.00  0.00    +0.000 A 
ATOM      8  C   UNL     1       2.301   4.468  18.629  0.00  0.00    +0.000 A 
ATOM      9  C   UNL     1       3.155   5.517  18.339  0.00  0.00    +0.000 A 
ATOM     10  C   UNL     1       3.132   6.772  19.143  0.00  0.00    +0.000 C 
ATOM     11  N   UNL     1       4.047   5.467  17.330  0.00  0.00    +0.000 NA
ATOM     12  N   UNL     1       4.750   3.636  14.330  0.00  0.00    +0.000 NA
ENDROOT
BRANCH   3  13
ATOM     13  C   UNL     1       6.760   5.706  16.451  0.00  0.00    +0.000 A 
ATOM     14  C   UNL     1       7.005   7.030  16.459  0.00  0.00    +0.000 A 
ATOM     15  C   UNL     1       7.647   7.386  17.586  0.00  0.00    +0.000 A 
ATOM     16  C   UNL     1       8.127   8.607  18.173  0.00  0.00    +0.000 A 
ATOM     17  N   UNL     1       7.931   9.449  17.356  0.00  0.00    +0.000 NA
ATOM     18  C   UNL     1       8.458   9.224  18.398  0.00  0.00    +0.000 A 
ATOM     19  C   UNL     1       8.608   7.389  19.382  0.00  0.00    +0.000 A 
ATOM     20  C   UNL     1       7.956   6.465  18.466  0.00  0.00    +0.000 A 
ATOM     21  S   UNL     1       7.369   4.958  17.878  0.00  0.00    +0.000 S 
ENDBRANCH   3  13
BRANCH   1  23
ATOM     22  C   UNL     1       4.608   3.155  11.543  0.00  0.00    +0.000 C 
ATOM     23  C   UNL     1       5.955   3.204  12.227  0.00  0.00    +0.000 C 
ENDBRANCH   1  23
TORSDOF 2
ENDMDL
MODEL 7
REMARK VINA RESULT:      -6.8      1.990      4.982
REMARK  Name = 
REMARK  4 active torsions:
REMARK  status: ('A' for Active; 'I' for Inactive)
REMARK    1  A    between atoms: C_1  and  C_2
REMARK    2  A    between atoms: C_2  and  C_3
REMARK    3  A    between atoms: C_5  and  C_6
REMARK    4  A    between atoms: C_20  and  C_21
REMARK                            x       y       z     vdW  Elec       q    Type
REMARK                         _______ _______ _______ _____ _____    ______ ____
ROOT
ATOM      1  C   UNL     1       5.875   5.001  15.448  0.00  0.00    +0.000 A 
ATOM      2  C   UNL     1       5.299   6.116  16.049  0.00  0.00    +0.000 A 
ATOM      3  C   UNL     1       4.366   5.615  16.912  0.00  0.00    +0.000 A 
ATOM      4  N   UNL     1       4.453   4.252  16.867  0.00  0.00    +0.000 N 
ATOM      5  C   UNL     1       3.666   3.326  17.605  0.00  0.00    +0.000 A 
ATOM      6  C   UNL     1       4.211   2.101  17.956  0.00  0.00    +0.000 A 
ATOM      7  C   UNL     1       3.424   1.217  18.681  0.00  0.00    +0.000 A 
ATOM      8  C   UNL     1       2.130   1.575  19.019  0.00  0.00    +0.000 A 
ATOM      9  C   UNL     1       1.665   2.827  18.656  0.00  0.00    +0.000 A 
ATOM     10  C   UNL     1       0.285   3.267  19.013  0.00  0.00    +0.000 C 
ATOM     11  N   UNL     1       2.419   3.710  17.973  0.00  0.00    +0.000 NA
ATOM     12  N   UNL     1       5.369   3.862  15.945  0.00  0.00    +0.000 NA
ENDROOT
BRANCH   3  13
ATOM     13  C   UNL     1       3.548   6.333  17.789  0.00  0.00    +0.000 A 
ATOM     14  C   UNL     1       2.830   7.436  17.506  0.00  0.00    +0.000 A 
ATOM     15  C   UNL     1       2.241   7.915  18.617  0.00  0.00    +0.000 A 
ATOM     16  C   UNL     1       1.354   8.998  18.944  0.00  0.00    +0.000 A 
ATOM     17  N   UNL     1       1.220   9.613  17.935  0.00  0.00    +0.000 NA
ATOM     18  C   UNL     1       0.992   9.619  19.102  0.00  0.00    +0.000 A 
ATOM     19  C   UNL     1       1.628   8.237  20.532  0.00  0.00    +0.000 A 
ATOM     20  C   UNL     1       2.443   7.309  19.761  0.00  0.00    +0.000 A 
ATOM     21  S   UNL     1       3.457   5.951  19.465  0.00  0.00    +0.000 S 
ENDBRANCH   3  13
BRANCH   1  23
ATOM     22  C   UNL     1       6.583   4.129  13.262  0.00  0.00    +0.000 C 
ATOM     23  C   UNL     1       6.979   4.975  14.451  0.00  0.00    +0.000 C 
ENDBRANCH   1  23
TORSDOF 2
ENDMDL
MODEL 8
REMARK VINA RESULT:      -6.5      2.041      6.279
REMARK  Name = 
REMARK  4 active torsions:
REMARK  status: ('A' for Active; 'I' for Inactive)
REMARK    1  A    between atoms: C_1  and  C_2
REMARK    2  A    between atoms: C_2  and  C_3
REMARK    3  A    between atoms: C_5  and  C_6
REMARK    4  A    between atoms: C_20  and  C_21
REMARK                            x       y       z     vdW  Elec       q    Type
REMARK                         _______ _______ _______ _____ _____    ______ ____
ROOT
ATOM      1  C   UNL     1       1.823   7.424  20.274  0.00  0.00    +0.000 A 
ATOM      2  C   UNL     1       3.016   7.509  19.563  0.00  0.00    +0.000 A 
ATOM      3  C   UNL     1       3.268   6.237  19.133  0.00  0.00    +0.000 A 
ATOM      4  N   UNL     1       2.215   5.456  19.519  0.00  0.00    +0.000 N 
ATOM      5  C   UNL     1       2.060   4.062  19.283  0.00  0.00    +0.000 A 
ATOM      6  C   UNL     1       0.786   3.535  19.148  0.00  0.00    +0.000 A 
ATOM      7  C   UNL     1       0.661   2.173  18.911  0.00  0.00    +0.000 A 
ATOM      8  C   UNL     1       1.799   1.388  18.832  0.00  0.00    +0.000 A 
ATOM      9  C   UNL     1       3.039   1.991  18.950  0.00  0.00    +0.000 A 
ATOM     10  C   UNL     1       4.294   1.192  18.852  0.00  0.00    +0.000 C 
ATOM     11  N   UNL     1       3.184   3.315  19.156  0.00  0.00    +0.000 NA
ATOM     12  N   UNL     1       1.326   6.178  20.247  0.00  0.00    +0.000 NA
ENDROOT
BRANCH   3  13
ATOM     13  C   UNL     1       4.330   5.805  18.334  0.00  0.00    +0.000 A 
ATOM     14  C   UNL     1       4.291   5.525  17.017  0.00  0.00    +0.000 A 
ATOM     15  C   UNL     1       5.476   5.040  16.602  0.00  0.00    +0.000 A 
ATOM     16  C   UNL     1       6.049   4.614  15.355  0.00  0.00    +0.000 A 
ATOM     17  N   UNL     1       5.162   4.665  14.564  0.00  0.00    +0.000 NA
ATOM     18  C   UNL     1       6.281   4.300  14.731  0.00  0.00    +0.000 A 
ATOM     19  C   UNL     1       7.388   4.346  16.501  0.00  0.00    +0.000 A 
ATOM     20  C   UNL     1       6.446   4.887  17.470  0.00  0.00    +0.000 A 
ATOM     21  S   UNL     1       5.873   5.429  18.999  0.00  0.00    +0.000 S 
ENDBRANCH   3  13
BRANCH   1  23
ATOM     22  C   UNL     1       0.724   9.591  19.905  0.00  0.00    +0.000 C 
ATOM     23  C   UNL     1       1.074   8.531  20.926  0.00  0.00    +0.000 C 
ENDBRANCH   1  23
TORSDOF 2
ENDMDL
MODEL 9
REMARK VINA RESULT:      -6.4      4.526      8.211
REMARK  Name = 
REMARK  4 active torsions:
REMARK  status: ('A' for Active; 'I' for Inactive)
REMARK    1  A    between atoms: C_1  and  C_2
REMARK    2  A    between atoms: C_2  and  C_3
REMARK    3  A    between atoms: C_5  and  C_6
REMARK    4  A    between atoms: C_20  and  C_21
REMARK                            x       y       z     vdW  Elec       q    Type
REMARK                         _______ _______ _______ _____ _____    ______ ____
ROOT
ATOM      1  C   UNL     1       2.072   8.633  18.357  0.00  0.00    +0.000 A 
ATOM      2  C   UNL     1       2.009   9.936  17.872  0.00  0.00    +0.000 A 
ATOM      3  C   UNL     1       1.292  10.630  18.805  0.00  0.00    +0.000 A 
ATOM      4  N   UNL     1       1.015   9.773  19.833  0.00  0.00    +0.000 N 
ATOM      5  C   UNL     1       0.287  10.074  21.016  0.00  0.00    +0.000 A 
ATOM      6  C   UNL     1       0.587   9.398  22.188  0.00  0.00    +0.000 A 
ATOM      7  C   UNL     1      -0.134   9.714  23.331  0.00  0.00    +0.000 A 
ATOM      8  C   UNL     1      -1.128  10.676  23.265  0.00  0.00    +0.000 A 
ATOM      9  C   UNL     1      -1.352  11.328  22.066  0.00  0.00    +0.000 A 
ATOM     10  C   UNL     1      -2.398  12.385  21.949  0.00  0.00    +0.000 C 
ATOM     11  N   UNL     1      -0.648  11.054  20.950  0.00  0.00    +0.000 NA
ATOM     12  N   UNL     1       1.475   8.528  19.554  0.00  0.00    +0.000 NA
ENDROOT
BRANCH   3  13
ATOM     13  C   UNL     1       0.991  11.995  18.801  0.00  0.00    +0.000 A 
ATOM     14  C   UNL     1       1.743  12.991  19.307  0.00  0.00    +0.000 A 
ATOM     15  C   UNL     1       1.094  14.166  19.216  0.00  0.00    +0.000 A 
ATOM     16  C   UNL     1       1.373  15.540  19.533  0.00  0.00    +0.000 A 
ATOM     17  N   UNL     1       2.432  15.531  20.074  0.00  0.00    +0.000 NA
ATOM     18  C   UNL     1       1.497  16.213  19.803  0.00  0.00    +0.000 A 
ATOM     19  C   UNL     1      -0.285  15.629  18.886  0.00  0.00    +0.000 A 
ATOM     20  C   UNL     1      -0.113  14.194  18.706  0.00  0.00    +0.000 A 
ATOM     21  S   UNL     1      -0.523  12.590  18.238  0.00  0.00    +0.000 S 
ENDBRANCH   3  13
BRANCH   1  23
ATOM     22  C   UNL     1       2.836   6.328  18.736  0.00  0.00    +0.000 C 
ATOM     23  C   UNL     1       2.773   7.470  17.748  0.00  0.00    +0.000 C 
ENDBRANCH   1  23
TORSDOF 2
ENDMDL
