MODEL 1
REMARK VINA RESULT:      -7.7      0.000      0.000
REMARK  Name = 
REMARK  10 active torsions:
REMARK  status: ('A' for Active; 'I' for Inactive)
REMARK    1  A    between atoms: C_1  and  C_2
REMARK    2  A    between atoms: C_2  and  C_3
REMARK    3  A    between atoms: C_2  and  C_4
REMARK    4  A    between atoms: C_4  and  C_5
REMARK    5  A    between atoms: C_5  and  N_6
REMARK    6  A    between atoms: C_9  and  N_10
REMARK    7  A    between atoms: N_10  and  C_11
REMARK    8  A    between atoms: N_10  and  C_12
REMARK    9  A    between atoms: C_12  and  C_13
REMARK   10  A    between atoms: C_19  and  C_20
REMARK                            x       y       z     vdW  Elec       q    Type
REMARK                         _______ _______ _______ _____ _____    ______ ____
ROOT
ATOM      1  N   UNL     1       4.219   4.417  18.028  0.00  0.00    +0.000 NA
ATOM      2  C   UNL     1       4.531   3.493  19.121  0.00  0.00    +0.000 C 
ENDROOT
BRANCH   1   6
ATOM      3  N   UNL     1       6.787   5.574  15.488  0.00  0.00    +0.000 NA
ATOM      4  C   UNL     1       5.387   6.011  15.368  0.00  0.00    +0.000 C 
ATOM      5  C   UNL     1       4.758   6.521  16.662  0.00  0.00    +0.000 C 
ATOM      6  C   UNL     1       5.048   5.649  17.899  0.00  0.00    +0.000 C 
ATOM      7  C   UNL     1       6.572   5.507  17.976  0.00  0.00    +0.000 C 
ATOM      8  C   UNL     1       7.151   4.873  16.723  0.00  0.00    +0.000 C 
BRANCH   3   9
ATOM      9  C   UNL     1       7.207   4.765  14.329  0.00  0.00    +0.000 C 
BRANCH   9  10
ATOM     10  C   UNL     1       6.160   3.735  13.897  0.00  0.00    +0.000 C 
BRANCH  10  12
ATOM     11  C   UNL     1       4.885   3.277  11.746  0.00  0.00    +0.000 C 
ATOM     12  C   UNL     1       6.260   3.342  12.411  0.00  0.00    +0.000 C 
ATOM     13  C   UNL     1       7.162   4.331  11.674  0.00  0.00    +0.000 C 
ENDBRANCH  10  12
ENDBRANCH   9  10
ENDBRANCH   3   9
ENDBRANCH   1   6
BRANCH   1  14
ATOM     14  C   UNL     1       2.771   4.702  18.130  0.00  0.00    +0.000 C 
BRANCH  14  15
ATOM     15  C   UNL     1       2.410   5.942  18.914  0.00  0.00    +0.000 A 
ATOM     16  C   UNL     1       2.387   7.182  18.242  0.00  0.00    +0.000 A 
ATOM     17  C   UNL     1       1.952   8.332  18.890  0.00  0.00    +0.000 A 
ATOM     18 CL   UNL     1       1.962   9.841  18.063  0.00  0.00    +0.000 Cl
ATOM     19  C   UNL     1       1.498   8.272  20.204  0.00  0.00    +0.000 A 
ATOM     20  C   UNL     1       1.533   7.054  20.891  0.00  0.00    +0.000 A 
ATOM     21  C   UNL     1       2.011   5.894  20.266  0.00  0.00    +0.000 A 
BRANCH  21  22
ATOM     22  C   UNL     1       2.093   4.692  21.058  0.00  0.00    +0.000 C 
ATOM     23  N   UNL     1       2.138   3.721  21.684  0.00  0.00    +0.000 NA
ENDBRANCH  21  22
ENDBRANCH  14  15
ENDBRANCH   1  14
TORSDOF 7
ENDMDL
MODEL 2
REMARK VINA RESULT:      -7.6      2.278      2.925
REMARK  Name = 
REMARK  10 active torsions:
REMARK  status: ('A' for Active; 'I' for Inactive)
REMARK    1  A    between atoms: C_1  and  C_2
REMARK    2  A    between atoms: C_2  and  C_3
REMARK    3  A    between atoms: C_2  and  C_4
REMARK    4  A    between atoms: C_4  and  C_5
REMARK    5  A    between atoms: C_5  and  N_6
REMARK    6  A    between atoms: C_9  and  N_10
REMARK    7  A    between atoms: N_10  and  C_11
REMARK    8  A    between atoms: N_10  and  C_12
REMARK    9  A    between atoms: C_12  and  C_13
REMARK   10  A    between atoms: C_19  and  C_20
REMARK                            x       y       z     vdW  Elec       q    Type
REMARK                         _______ _______ _______ _____ _____    ______ ____
ROOT
ATOM      1  N   UNL     1       5.316   5.736  18.300  0.00  0.00    +0.000 NA
ATOM      2  C   UNL     1       6.199   5.257  19.367  0.00  0.00    +0.000 C 
ENDROOT
BRANCH   1   6
ATOM      3  N   UNL     1       6.513   5.208  14.740  0.00  0.00    +0.000 NA
ATOM      4  C   UNL     1       5.148   5.698  14.991  0.00  0.00    +0.000 C 
ATOM      5  C   UNL     1       5.048   6.840  15.999  0.00  0.00    +0.000 C 
ATOM      6  C   UNL     1       5.897   6.644  17.271  0.00  0.00    +0.000 C 
ATOM      7  C   UNL     1       7.328   6.374  16.793  0.00  0.00    +0.000 C 
ATOM      8  C   UNL     1       7.411   5.151  15.897  0.00  0.00    +0.000 C 
BRANCH   3   9
ATOM      9  C   UNL     1       6.506   3.898  14.066  0.00  0.00    +0.000 C 
BRANCH   9  10
ATOM     10  C   UNL     1       6.112   3.978  12.588  0.00  0.00    +0.000 C 
BRANCH  10  12
ATOM     11  C   UNL     1       4.118   3.265  11.182  0.00  0.00    +0.000 C 
ATOM     12  C   UNL     1       5.233   2.803  12.120  0.00  0.00    +0.000 C 
ATOM     13  C   UNL     1       6.102   1.747  11.436  0.00  0.00    +0.000 C 
ENDBRANCH  10  12
ENDBRANCH   9  10
ENDBRANCH   3   9
ENDBRANCH   1   6
BRANCH   1  14
ATOM     14  C   UNL     1       4.130   6.309  18.974  0.00  0.00    +0.000 C 
BRANCH  14  15
ATOM     15  C   UNL     1       2.998   5.340  19.225  0.00  0.00    +0.000 A 
ATOM     16  C   UNL     1       3.055   4.066  18.623  0.00  0.00    +0.000 A 
ATOM     17  C   UNL     1       2.098   3.100  18.914  0.00  0.00    +0.000 A 
ATOM     18 CL   UNL     1       2.166   1.563  18.146  0.00  0.00    +0.000 Cl
ATOM     19  C   UNL     1       1.085   3.365  19.831  0.00  0.00    +0.000 A 
ATOM     20  C   UNL     1       1.003   4.631  20.420  0.00  0.00    +0.000 A 
ATOM     21  C   UNL     1       1.934   5.629  20.105  0.00  0.00    +0.000 A 
BRANCH  21  22
ATOM     22  C   UNL     1       1.743   6.934  20.689  0.00  0.00    +0.000 C 
ATOM     23  N   UNL     1       1.610   7.987  21.148  0.00  0.00    +0.000 NA
ENDBRANCH  21  22
ENDBRANCH  14  15
ENDBRANCH   1  14
TORSDOF 7
ENDMDL
MODEL 3
REMARK VINA RESULT:      -7.6      2.454      3.271
REMARK  Name = 
REMARK  10 active torsions:
REMARK  status: ('A' for Active; 'I' for Inactive)
REMARK    1  A    between atoms: C_1  and  C_2
REMARK    2  A    between atoms: C_2  and  C_3
REMARK    3  A    between atoms: C_2  and  C_4
REMARK    4  A    between atoms: C_4  and  C_5
REMARK    5  A    between atoms: C_5  and  N_6
REMARK    6  A    between atoms: C_9  and  N_10
REMARK    7  A    between atoms: N_10  and  C_11
REMARK    8  A    between atoms: N_10  and  C_12
REMARK    9  A    between atoms: C_12  and  C_13
REMARK   10  A    between atoms: C_19  and  C_20
REMARK                            x       y       z     vdW  Elec       q    Type
REMARK                         _______ _______ _______ _____ _____    ______ ____
ROOT
ATOM      1  N   UNL     1       5.855   5.646  18.593  0.00  0.00    +0.000 NA
ATOM      2  C   UNL     1       6.946   5.441  19.549  0.00  0.00    +0.000 C 
ENDROOT
BRANCH   1   6
ATOM      3  N   UNL     1       6.357   5.334  14.846  0.00  0.00    +0.000 NA
ATOM      4  C   UNL     1       5.015   5.598  15.387  0.00  0.00    +0.000 C 
ATOM      5  C   UNL     1       4.949   6.705  16.438  0.00  0.00    +0.000 C 
ATOM      6  C   UNL     1       6.062   6.641  17.502  0.00  0.00    +0.000 C 
ATOM      7  C   UNL     1       7.388   6.605  16.733  0.00  0.00    +0.000 C 
ATOM      8  C   UNL     1       7.473   5.415  15.793  0.00  0.00    +0.000 C 
BRANCH   3   9
ATOM      9  C   UNL     1       6.415   4.043  14.138  0.00  0.00    +0.000 C 
BRANCH   9  10
ATOM     10  C   UNL     1       5.126   3.709  13.380  0.00  0.00    +0.000 C 
BRANCH  10  12
ATOM     11  C   UNL     1       6.251   2.146  11.720  0.00  0.00    +0.000 C 
ATOM     12  C   UNL     1       5.356   3.374  11.894  0.00  0.00    +0.000 C 
ATOM     13  C   UNL     1       4.012   3.156  11.199  0.00  0.00    +0.000 C 
ENDBRANCH  10  12
ENDBRANCH   9  10
ENDBRANCH   3   9
ENDBRANCH   1   6
BRANCH   1  14
ATOM     14  C   UNL     1       4.645   5.916  19.399  0.00  0.00    +0.000 C 
BRANCH  14  15
ATOM     15  C   UNL     1       3.625   4.801  19.430  0.00  0.00    +0.000 A 
ATOM     16  C   UNL     1       3.995   3.536  18.928  0.00  0.00    +0.000 A 
ATOM     17  C   UNL     1       3.133   2.450  19.037  0.00  0.00    +0.000 A 
ATOM     18 CL   UNL     1       3.588   0.923  18.391  0.00  0.00    +0.000 Cl
ATOM     19  C   UNL     1       1.904   2.587  19.676  0.00  0.00    +0.000 A 
ATOM     20  C   UNL     1       1.514   3.841  20.160  0.00  0.00    +0.000 A 
ATOM     21  C   UNL     1       2.353   4.955  20.018  0.00  0.00    +0.000 A 
BRANCH  21  22
ATOM     22  C   UNL     1       1.855   6.230  20.470  0.00  0.00    +0.000 C 
ATOM     23  N   UNL     1       1.460   7.262  20.810  0.00  0.00    +0.000 NA
ENDBRANCH  21  22
ENDBRANCH  14  15
ENDBRANCH   1  14
TORSDOF 7
ENDMDL
MODEL 4
REMARK VINA RESULT:      -7.4      1.153      1.797
REMARK  Name = 
REMARK  10 active torsions:
REMARK  status: ('A' for Active; 'I' for Inactive)
REMARK    1  A    between atoms: C_1  and  C_2
REMARK    2  A    between atoms: C_2  and  C_3
REMARK    3  A    between atoms: C_2  and  C_4
REMARK    4  A    between atoms: C_4  and  C_5
REMARK    5  A    between atoms: C_5  and  N_6
REMARK    6  A    between atoms: C_9  and  N_10
REMARK    7  A    between atoms: N_10  and  C_11
REMARK    8  A    between atoms: N_10  and  C_12
REMARK    9  A    between atoms: C_12  and  C_13
REMARK   10  A    between atoms: C_19  and  C_20
REMARK                            x       y       z     vdW  Elec       q    Type
REMARK                         _______ _______ _______ _____ _____    ______ ____
ROOT
ATOM      1  N   UNL     1       4.484   6.287  18.157  0.00  0.00    +0.000 NA
ATOM      2  C   UNL     1       4.986   7.055  17.015  0.00  0.00    +0.000 C 
ENDROOT
BRANCH   1   6
ATOM      3  N   UNL     1       6.295   3.824  15.912  0.00  0.00    +0.000 NA
ATOM      4  C   UNL     1       7.064   4.717  16.793  0.00  0.00    +0.000 C 
ATOM      5  C   UNL     1       6.566   4.788  18.234  0.00  0.00    +0.000 C 
ATOM      6  C   UNL     1       5.036   4.919  18.374  0.00  0.00    +0.000 C 
ATOM      7  C   UNL     1       4.432   3.760  17.574  0.00  0.00    +0.000 C 
ATOM      8  C   UNL     1       4.843   3.797  16.113  0.00  0.00    +0.000 C 
BRANCH   3   9
ATOM      9  C   UNL     1       6.584   4.080  14.490  0.00  0.00    +0.000 C 
BRANCH   9  10
ATOM     10  C   UNL     1       5.349   3.966  13.590  0.00  0.00    +0.000 C 
BRANCH  10  12
ATOM     11  C   UNL     1       4.418   3.237  11.340  0.00  0.00    +0.000 C 
ATOM     12  C   UNL     1       5.590   3.133  12.317  0.00  0.00    +0.000 C 
ATOM     13  C   UNL     1       6.887   3.580  11.643  0.00  0.00    +0.000 C 
ENDBRANCH  10  12
ENDBRANCH   9  10
ENDBRANCH   3   9
ENDBRANCH   1   6
BRANCH   1  14
ATOM     14  C   UNL     1       3.010   6.305  18.049  0.00  0.00    +0.000 C 
BRANCH  14  15
ATOM     15  C   UNL     1       2.304   7.266  18.979  0.00  0.00    +0.000 A 
ATOM     16  C   UNL     1       2.067   8.583  18.534  0.00  0.00    +0.000 A 
ATOM     17  C   UNL     1       1.323   9.469  19.305  0.00  0.00    +0.000 A 
ATOM     18 CL   UNL     1       1.070  11.080  18.760  0.00  0.00    +0.000 Cl
ATOM     19  C   UNL     1       0.771   9.058  20.515  0.00  0.00    +0.000 A 
ATOM     20  C   UNL     1       1.016   7.762  20.980  0.00  0.00    +0.000 A 
ATOM     21  C   UNL     1       1.800   6.871  20.235  0.00  0.00    +0.000 A 
BRANCH  21  22
ATOM     22  C   UNL     1       2.077   5.578  20.812  0.00  0.00    +0.000 C 
ATOM     23  N   UNL     1       2.319   4.550  21.282  0.00  0.00    +0.000 NA
ENDBRANCH  21  22
ENDBRANCH  14  15
ENDBRANCH   1  14
TORSDOF 7
ENDMDL
MODEL 5
REMARK VINA RESULT:      -7.3      1.405      1.798
REMARK  Name = 
REMARK  10 active torsions:
REMARK  status: ('A' for Active; 'I' for Inactive)
REMARK    1  A    between atoms: C_1  and  C_2
REMARK    2  A    between atoms: C_2  and  C_3
REMARK    3  A    between atoms: C_2  and  C_4
REMARK    4  A    between atoms: C_4  and  C_5
REMARK    5  A    between atoms: C_5  and  N_6
REMARK    6  A    between atoms: C_9  and  N_10
REMARK    7  A    between atoms: N_10  and  C_11
REMARK    8  A    between atoms: N_10  and  C_12
REMARK    9  A    between atoms: C_12  and  C_13
REMARK   10  A    between atoms: C_19  and  C_20
REMARK                            x       y       z     vdW  Elec       q    Type
REMARK                         _______ _______ _______ _____ _____    ______ ____
ROOT
ATOM      1  N   UNL     1       4.971   4.399  17.835  0.00  0.00    +0.000 NA
ATOM      2  C   UNL     1       5.129   3.968  19.226  0.00  0.00    +0.000 C 
ENDROOT
BRANCH   1   6
ATOM      3  N   UNL     1       6.780   5.304  14.627  0.00  0.00    +0.000 NA
ATOM      4  C   UNL     1       5.392   5.744  14.836  0.00  0.00    +0.000 C 
ATOM      5  C   UNL     1       5.113   6.372  16.200  0.00  0.00    +0.000 C 
ATOM      6  C   UNL     1       5.723   5.607  17.390  0.00  0.00    +0.000 C 
ATOM      7  C   UNL     1       7.217   5.455  17.082  0.00  0.00    +0.000 C 
ATOM      8  C   UNL     1       7.460   4.709  15.781  0.00  0.00    +0.000 C 
BRANCH   3   9
ATOM      9  C   UNL     1       6.895   4.394  13.474  0.00  0.00    +0.000 C 
BRANCH   9  10
ATOM     10  C   UNL     1       5.614   3.602  13.196  0.00  0.00    +0.000 C 
BRANCH  10  12
ATOM     11  C   UNL     1       5.964   1.742  11.498  0.00  0.00    +0.000 C 
ATOM     12  C   UNL     1       5.465   3.169  11.725  0.00  0.00    +0.000 C 
ATOM     13  C   UNL     1       4.004   3.298  11.294  0.00  0.00    +0.000 C 
ENDBRANCH  10  12
ENDBRANCH   9  10
ENDBRANCH   3   9
ENDBRANCH   1   6
BRANCH   1  14
ATOM     14  C   UNL     1       3.514   4.507  17.601  0.00  0.00    +0.000 C 
BRANCH  14  15
ATOM     15  C   UNL     1       2.698   4.949  18.793  0.00  0.00    +0.000 A 
ATOM     16  C   UNL     1       2.685   6.319  19.130  0.00  0.00    +0.000 A 
ATOM     17  C   UNL     1       1.862   6.792  20.146  0.00  0.00    +0.000 A 
ATOM     18 CL   UNL     1       1.883   8.460  20.564  0.00  0.00    +0.000 Cl
ATOM     19  C   UNL     1       1.010   5.924  20.825  0.00  0.00    +0.000 A 
ATOM     20  C   UNL     1       1.027   4.560  20.517  0.00  0.00    +0.000 A 
ATOM     21  C   UNL     1       1.883   4.061  19.525  0.00  0.00    +0.000 A 
BRANCH  21  22
ATOM     22  C   UNL     1       1.905   2.634  19.315  0.00  0.00    +0.000 C 
ATOM     23  N   UNL     1       1.916   1.488  19.169  0.00  0.00    +0.000 NA
ENDBRANCH  21  22
ENDBRANCH  14  15
ENDBRANCH   1  14
TORSDOF 7
ENDMDL
MODEL 6
REMARK VINA RESULT:      -7.3      2.617      3.484
REMARK  Name = 
REMARK  10 active torsions:
REMARK  status: ('A' for Active; 'I' for Inactive)
REMARK    1  A    between atoms: C_1  and  C_2
REMARK    2  A    between atoms: C_2  and  C_3
REMARK    3  A    between atoms: C_2  and  C_4
REMARK    4  A    between atoms: C_4  and  C_5
REMARK    5  A    between atoms: C_5  and  N_6
REMARK    6  A    between atoms: C_9  and  N_10
REMARK    7  A    between atoms: N_10  and  C_11
REMARK    8  A    between atoms: N_10  and  C_12
REMARK    9  A    between atoms: C_12  and  C_13
REMARK   10  A    between atoms: C_19  and  C_20
REMARK                            x       y       z     vdW  Elec       q    Type
REMARK                         _______ _______ _______ _____ _____    ______ ____
ROOT
ATOM      1  N   UNL     1       6.376   5.661  18.544  0.00  0.00    +0.000 NA
ATOM      2  C   UNL     1       7.412   5.709  19.579  0.00  0.00    +0.000 C 
ENDROOT
BRANCH   1   6
ATOM      3  N   UNL     1       6.255   5.059  14.801  0.00  0.00    +0.000 NA
ATOM      4  C   UNL     1       5.054   5.531  15.508  0.00  0.00    +0.000 C 
ATOM      5  C   UNL     1       5.285   6.697  16.465  0.00  0.00    +0.000 C 
ATOM      6  C   UNL     1       6.533   6.552  17.359  0.00  0.00    +0.000 C 
ATOM      7  C   UNL     1       7.710   6.295  16.412  0.00  0.00    +0.000 C 
ATOM      8  C   UNL     1       7.505   5.049  15.568  0.00  0.00    +0.000 C 
BRANCH   3   9
ATOM      9  C   UNL     1       6.046   3.731  14.197  0.00  0.00    +0.000 C 
BRANCH   9  10
ATOM     10  C   UNL     1       6.146   3.738  12.669  0.00  0.00    +0.000 C 
BRANCH  10  12
ATOM     11  C   UNL     1       4.188   3.188  11.143  0.00  0.00    +0.000 C 
ATOM     12  C   UNL     1       5.326   2.623  11.993  0.00  0.00    +0.000 C 
ATOM     13  C   UNL     1       6.244   1.748  11.141  0.00  0.00    +0.000 C 
ENDBRANCH  10  12
ENDBRANCH   9  10
ENDBRANCH   3   9
ENDBRANCH   1   6
BRANCH   1  14
ATOM     14  C   UNL     1       5.087   5.851  19.244  0.00  0.00    +0.000 C 
BRANCH  14  15
ATOM     15  C   UNL     1       3.985   4.899  18.840  0.00  0.00    +0.000 A 
ATOM     16  C   UNL     1       4.254   3.514  18.846  0.00  0.00    +0.000 A 
ATOM     17  C   UNL     1       3.244   2.594  18.593  0.00  0.00    +0.000 A 
ATOM     18 CL   UNL     1       3.599   0.911  18.574  0.00  0.00    +0.000 Cl
ATOM     19  C   UNL     1       1.940   3.024  18.364  0.00  0.00    +0.000 A 
ATOM     20  C   UNL     1       1.661   4.394  18.334  0.00  0.00    +0.000 A 
ATOM     21  C   UNL     1       2.677   5.336  18.543  0.00  0.00    +0.000 A 
BRANCH  21  22
ATOM     22  C   UNL     1       2.334   6.731  18.420  0.00  0.00    +0.000 C 
ATOM     23  N   UNL     1       2.081   7.855  18.326  0.00  0.00    +0.000 NA
ENDBRANCH  21  22
ENDBRANCH  14  15
ENDBRANCH   1  14
TORSDOF 7
ENDMDL
MODEL 7
REMARK VINA RESULT:      -7.3      1.346      1.969
REMARK  Name = 
REMARK  10 active torsions:
REMARK  status: ('A' for Active; 'I' for Inactive)
REMARK    1  A    between atoms: C_1  and  C_2
REMARK    2  A    between atoms: C_2  and  C_3
REMARK    3  A    between atoms: C_2  and  C_4
REMARK    4  A    between atoms: C_4  and  C_5
REMARK    5  A    between atoms: C_5  and  N_6
REMARK    6  A    between atoms: C_9  and  N_10
REMARK    7  A    between atoms: N_10  and  C_11
REMARK    8  A    between atoms: N_10  and  C_12
REMARK    9  A    between atoms: C_12  and  C_13
REMARK   10  A    between atoms: C_19  and  C_20
REMARK                            x       y       z     vdW  Elec       q    Type
REMARK                         _______ _______ _______ _____ _____    ______ ____
ROOT
ATOM      1  N   UNL     1       5.206   5.931  17.893  0.00  0.00    +0.000 NA
ATOM      2  C   UNL     1       5.778   7.047  17.135  0.00  0.00    +0.000 C 
ENDROOT
BRANCH   1   6
ATOM      3  N   UNL     1       6.316   4.017  14.811  0.00  0.00    +0.000 NA
ATOM      4  C   UNL     1       7.302   4.771  15.603  0.00  0.00    +0.000 C 
ATOM      5  C   UNL     1       7.223   4.549  17.111  0.00  0.00    +0.000 C 
ATOM      6  C   UNL     1       5.793   4.576  17.686  0.00  0.00    +0.000 C 
ATOM      7  C   UNL     1       4.986   3.555  16.875  0.00  0.00    +0.000 C 
ATOM      8  C   UNL     1       4.976   3.881  15.392  0.00  0.00    +0.000 C 
BRANCH   3   9
ATOM      9  C   UNL     1       6.199   4.544  13.440  0.00  0.00    +0.000 C 
BRANCH   9  10
ATOM     10  C   UNL     1       6.629   3.541  12.366  0.00  0.00    +0.000 C 
BRANCH  10  12
ATOM     11  C   UNL     1       4.341   3.207  11.310  0.00  0.00    +0.000 C 
ATOM     12  C   UNL     1       5.529   2.529  11.993  0.00  0.00    +0.000 C 
ATOM     13  C   UNL     1       6.111   1.440  11.093  0.00  0.00    +0.000 C 
ENDBRANCH  10  12
ENDBRANCH   9  10
ENDBRANCH   3   9
ENDBRANCH   1   6
BRANCH   1  14
ATOM     14  C   UNL     1       3.748   5.973  17.652  0.00  0.00    +0.000 C 
BRANCH  14  15
ATOM     15  C   UNL     1       2.917   6.501  18.799  0.00  0.00    +0.000 A 
ATOM     16  C   UNL     1       2.469   7.838  18.747  0.00  0.00    +0.000 A 
ATOM     17  C   UNL     1       1.610   8.336  19.719  0.00  0.00    +0.000 A 
ATOM     18 CL   UNL     1       1.099   9.977  19.657  0.00  0.00    +0.000 Cl
ATOM     19  C   UNL     1       1.150   7.512  20.742  0.00  0.00    +0.000 A 
ATOM     20  C   UNL     1       1.602   6.190  20.819  0.00  0.00    +0.000 A 
ATOM     21  C   UNL     1       2.503   5.686  19.872  0.00  0.00    +0.000 A 
BRANCH  21  22
ATOM     22  C   UNL     1       2.987   4.340  20.057  0.00  0.00    +0.000 C 
ATOM     23  N   UNL     1       3.386   3.263  20.184  0.00  0.00    +0.000 NA
ENDBRANCH  21  22
ENDBRANCH  14  15
ENDBRANCH   1  14
TORSDOF 7
ENDMDL
MODEL 8
REMARK VINA RESULT:      -7.1      2.629      6.278
REMARK  Name = 
REMARK  10 active torsions:
REMARK  status: ('A' for Active; 'I' for Inactive)
REMARK    1  A    between atoms: C_1  and  C_2
REMARK    2  A    between atoms: C_2  and  C_3
REMARK    3  A    between atoms: C_2  and  C_4
REMARK    4  A    between atoms: C_4  and  C_5
REMARK    5  A    between atoms: C_5  and  N_6
REMARK    6  A    between atoms: C_9  and  N_10
REMARK    7  A    between atoms: N_10  and  C_11
REMARK    8  A    between atoms: N_10  and  C_12
REMARK    9  A    between atoms: C_12  and  C_13
REMARK   10  A    between atoms: C_19  and  C_20
REMARK                            x       y       z     vdW  Elec       q    Type
REMARK                         _______ _______ _______ _____ _____    ______ ____
ROOT
ATOM      1  N   UNL     1       3.790   2.477  18.647  0.00  0.00    +0.000 NA
ATOM      2  C   UNL     1       4.244   1.326  17.863  0.00  0.00    +0.000 C 
ENDROOT
BRANCH   1   6
ATOM      3  N   UNL     1       1.479   4.895  20.436  0.00  0.00    +0.000 NA
ATOM      4  C   UNL     1       1.097   4.349  19.124  0.00  0.00    +0.000 C 
ATOM      5  C   UNL     1       1.271   2.839  18.978  0.00  0.00    +0.000 C 
ATOM      6  C   UNL     1       2.603   2.294  19.530  0.00  0.00    +0.000 C 
ATOM      7  C   UNL     1       2.698   2.783  20.979  0.00  0.00    +0.000 C 
ATOM      8  C   UNL     1       2.655   4.298  21.077  0.00  0.00    +0.000 C 
BRANCH   3   9
ATOM      9  C   UNL     1       1.640   6.359  20.392  0.00  0.00    +0.000 C 
BRANCH   9  10
ATOM     10  C   UNL     1       2.863   6.810  19.587  0.00  0.00    +0.000 C 
BRANCH  10  12
ATOM     11  C   UNL     1       1.846   8.749  18.296  0.00  0.00    +0.000 C 
ATOM     12  C   UNL     1       2.511   7.376  18.198  0.00  0.00    +0.000 C 
ATOM     13  C   UNL     1       3.771   7.455  17.337  0.00  0.00    +0.000 C 
ENDBRANCH  10  12
ENDBRANCH   9  10
ENDBRANCH   3   9
ENDBRANCH   1   6
BRANCH   1  14
ATOM     14  C   UNL     1       3.631   3.591  17.687  0.00  0.00    +0.000 C 
BRANCH  14  15
ATOM     15  C   UNL     1       4.859   3.924  16.871  0.00  0.00    +0.000 A 
ATOM     16  C   UNL     1       4.857   3.618  15.494  0.00  0.00    +0.000 A 
ATOM     17  C   UNL     1       5.915   4.006  14.680  0.00  0.00    +0.000 A 
ATOM     18 CL   UNL     1       5.909   3.596  13.009  0.00  0.00    +0.000 Cl
ATOM     19  C   UNL     1       6.978   4.734  15.205  0.00  0.00    +0.000 A 
ATOM     20  C   UNL     1       7.005   5.026  16.573  0.00  0.00    +0.000 A 
ATOM     21  C   UNL     1       5.967   4.604  17.415  0.00  0.00    +0.000 A 
BRANCH  21  22
ATOM     22  C   UNL     1       6.099   4.872  18.826  0.00  0.00    +0.000 C 
ATOM     23  N   UNL     1       6.228   5.088  19.954  0.00  0.00    +0.000 NA
ENDBRANCH  21  22
ENDBRANCH  14  15
ENDBRANCH   1  14
TORSDOF 7
ENDMDL
MODEL 9
REMARK VINA RESULT:      -7.1      2.244      3.148
REMARK  Name = 
REMARK  10 active torsions:
REMARK  status: ('A' for Active; 'I' for Inactive)
REMARK    1  A    between atoms: C_1  and  C_2
REMARK    2  A    between atoms: C_2  and  C_3
REMARK    3  A    between atoms: C_2  and  C_4
REMARK    4  A    between atoms: C_4  and  C_5
REMARK    5  A    between atoms: C_5  and  N_6
REMARK    6  A    between atoms: C_9  and  N_10
REMARK    7  A    between atoms: N_10  and  C_11
REMARK    8  A    between atoms: N_10  and  C_12
REMARK    9  A    between atoms: C_12  and  C_13
REMARK   10  A    between atoms: C_19  and  C_20
REMARK                            x       y       z     vdW  Elec       q    Type
REMARK                         _______ _______ _______ _____ _____    ______ ____
ROOT
ATOM      1  N   UNL     1       5.347   6.204  17.812  0.00  0.00    +0.000 NA
ATOM      2  C   UNL     1       5.984   7.208  16.956  0.00  0.00    +0.000 C 
ENDROOT
BRANCH   1   6
ATOM      3  N   UNL     1       6.549   3.882  15.065  0.00  0.00    +0.000 NA
ATOM      4  C   UNL     1       7.515   4.722  15.791  0.00  0.00    +0.000 C 
ATOM      5  C   UNL     1       7.369   4.705  17.311  0.00  0.00    +0.000 C 
ATOM      6  C   UNL     1       5.917   4.826  17.813  0.00  0.00    +0.000 C 
ATOM      7  C   UNL     1       5.127   3.716  17.112  0.00  0.00    +0.000 C 
ATOM      8  C   UNL     1       5.185   3.841  15.599  0.00  0.00    +0.000 C 
BRANCH   3   9
ATOM      9  C   UNL     1       6.500   4.222  13.632  0.00  0.00    +0.000 C 
BRANCH   9  10
ATOM     10  C   UNL     1       5.087   4.162  13.043  0.00  0.00    +0.000 C 
BRANCH  10  12
ATOM     11  C   UNL     1       3.976   3.345  10.907  0.00  0.00    +0.000 C 
ATOM     12  C   UNL     1       4.868   2.970  12.092  0.00  0.00    +0.000 C 
ATOM     13  C   UNL     1       6.216   2.446  11.599  0.00  0.00    +0.000 C 
ENDBRANCH  10  12
ENDBRANCH   9  10
ENDBRANCH   3   9
ENDBRANCH   1   6
BRANCH   1  14
ATOM     14  C   UNL     1       3.906   6.234  17.479  0.00  0.00    +0.000 C 
BRANCH  14  15
ATOM     15  C   UNL     1       2.968   6.269  18.663  0.00  0.00    +0.000 A 
ATOM     16  C   UNL     1       2.877   5.126  19.485  0.00  0.00    +0.000 A 
ATOM     17  C   UNL     1       2.117   5.148  20.648  0.00  0.00    +0.000 A 
ATOM     18 CL   UNL     1       1.992   3.735  21.621  0.00  0.00    +0.000 Cl
ATOM     19  C   UNL     1       1.460   6.311  21.040  0.00  0.00    +0.000 A 
ATOM     20  C   UNL     1       1.524   7.446  20.225  0.00  0.00    +0.000 A 
ATOM     21  C   UNL     1       2.250   7.427  19.026  0.00  0.00    +0.000 A 
BRANCH  21  22
ATOM     22  C   UNL     1       2.208   8.607  18.198  0.00  0.00    +0.000 C 
ATOM     23  N   UNL     1       2.152   9.546  17.527  0.00  0.00    +0.000 NA
ENDBRANCH  21  22
ENDBRANCH  14  15
ENDBRANCH   1  14
TORSDOF 7
ENDMDL
