MODEL 1
REMARK VINA RESULT:      -6.6      0.000      0.000
REMARK  Name = 
REMARK  9 active torsions:
REMARK  status: ('A' for Active; 'I' for Inactive)
REMARK    1  A    between atoms: C_1  and  C_2
REMARK    2  A    between atoms: C_2  and  C_3
REMARK    3  A    between atoms: C_3  and  C_4
REMARK    4  A    between atoms: C_3  and  N_5
REMARK    5  A    between atoms: N_5  and  C_6
REMARK    6  A    between atoms: C_6  and  C_7
REMARK    7  A    between atoms: C_8  and  C_9
REMARK    8  A    between atoms: C_18  and  N_19
REMARK    9  A    between atoms: C_25  and  C_27
REMARK                            x       y       z     vdW  Elec       q    Type
REMARK                         _______ _______ _______ _____ _____    ______ ____
ROOT
ATOM      1  C   UNL     1      -1.105  11.396  21.286  0.00  0.00    +0.000 A 
ATOM      2  C   UNL     1       0.054  10.510  21.285  0.00  0.00    +0.000 A 
ATOM      3  N   UNL     1       0.555  10.430  22.529  0.00  0.00    +0.000 NA
ATOM      4  O   UNL     1      -0.231  11.199  23.340  0.00  0.00    +0.000 OA
ATOM      5  C   UNL     1      -1.196  11.816  22.612  0.00  0.00    +0.000 A 
ENDROOT
BRANCH   2   6
ATOM      6  C   UNL     1       0.773   9.781  20.218  0.00  0.00    +0.000 A 
ATOM      7  C   UNL     1       1.219  10.416  19.058  0.00  0.00    +0.000 A 
ATOM      8  C   UNL     1       1.912   9.764  18.036  0.00  0.00    +0.000 A 
ATOM      9  C   UNL     1       2.298   8.449  18.215  0.00  0.00    +0.000 A 
ATOM     10  C   UNL     1       1.928   7.792  19.386  0.00  0.00    +0.000 A 
ATOM     11  C   UNL     1       1.148   8.439  20.353  0.00  0.00    +0.000 A 
ATOM     12  F   UNL     1       0.776   7.723  21.426  0.00  0.00    +0.000 F 
ENDBRANCH   2   6
BRANCH   5  13
ATOM     13  N   UNL     1      -2.041  12.642  23.280  0.00  0.00    +0.000 N 
ATOM     14  C   UNL     1      -3.329  12.164  23.809  0.00  0.00    +0.000 C 
ATOM     15  C   UNL     1      -4.388  13.246  23.512  0.00  0.00    +0.000 C 
ATOM     16  O   UNL     1      -4.016  14.528  24.058  0.00  0.00    +0.000 OA
ATOM     17  C   UNL     1      -2.742  14.953  23.539  0.00  0.00    +0.000 C 
ATOM     18  C   UNL     1      -1.649  13.926  23.871  0.00  0.00    +0.000 C 
ENDBRANCH   5  13
BRANCH   1  19
ATOM     19  C   UNL     1      -2.084  11.857  20.240  0.00  0.00    +0.000 C 
BRANCH  19  20
ATOM     20  N   UNL     1      -1.556  12.156  18.919  0.00  0.00    +0.000 N 
ATOM     21  C   UNL     1      -0.647  13.230  18.671  0.00  0.00    +0.000 C 
ATOM     22  O   UNL     1      -0.331  13.528  17.521  0.00  0.00    +0.000 OA
BRANCH  21  23
ATOM     23  C   UNL     1       0.042  13.966  19.772  0.00  0.00    +0.000 A 
ATOM     24  C   UNL     1       1.367  13.724  20.184  0.00  0.00    +0.000 A 
ATOM     25  C   UNL     1       1.982  14.473  21.181  0.00  0.00    +0.000 A 
ATOM     26  C   UNL     1       1.304  15.535  21.759  0.00  0.00    +0.000 A 
ATOM     27  C   UNL     1       0.011  15.843  21.324  0.00  0.00    +0.000 A 
ATOM     28  C   UNL     1      -0.608  15.061  20.347  0.00  0.00    +0.000 A 
ATOM     29  F   UNL     1      -1.852  15.403  19.977  0.00  0.00    +0.000 F 
ENDBRANCH  21  23
BRANCH  20  30
ATOM     30  C   UNL     1      -2.186  11.536  17.725  0.00  0.00    +0.000 C 
ATOM     31  C   UNL     1      -1.650  10.154  17.325  0.00  0.00    +0.000 C 
BRANCH  30  33
ATOM     32  C   UNL     1      -4.454  11.395  16.462  0.00  0.00    +0.000 C 
ATOM     33  C   UNL     1      -3.733  11.532  17.793  0.00  0.00    +0.000 C 
ENDBRANCH  30  33
ENDBRANCH  20  30
ENDBRANCH  19  20
ENDBRANCH   1  19
TORSDOF 7
ENDMDL
MODEL 2
REMARK VINA RESULT:      -6.5      2.622      5.357
REMARK  Name = 
REMARK  9 active torsions:
REMARK  status: ('A' for Active; 'I' for Inactive)
REMARK    1  A    between atoms: C_1  and  C_2
REMARK    2  A    between atoms: C_2  and  C_3
REMARK    3  A    between atoms: C_3  and  C_4
REMARK    4  A    between atoms: C_3  and  N_5
REMARK    5  A    between atoms: N_5  and  C_6
REMARK    6  A    between atoms: C_6  and  C_7
REMARK    7  A    between atoms: C_8  and  C_9
REMARK    8  A    between atoms: C_18  and  N_19
REMARK    9  A    between atoms: C_25  and  C_27
REMARK                            x       y       z     vdW  Elec       q    Type
REMARK                         _______ _______ _______ _____ _____    ______ ____
ROOT
ATOM      1  C   UNL     1       0.122  13.705  20.217  0.00  0.00    +0.000 A 
ATOM      2  C   UNL     1       0.818  12.652  20.948  0.00  0.00    +0.000 A 
ATOM      3  N   UNL     1       1.996  13.121  21.394  0.00  0.00    +0.000 NA
ATOM      4  O   UNL     1       2.088  14.429  21.011  0.00  0.00    +0.000 OA
ATOM      5  C   UNL     1       1.006  14.782  20.274  0.00  0.00    +0.000 A 
ENDROOT
BRANCH   2   6
ATOM      6  C   UNL     1       0.514  11.229  21.214  0.00  0.00    +0.000 A 
ATOM      7  C   UNL     1      -0.244  10.827  22.315  0.00  0.00    +0.000 A 
ATOM      8  C   UNL     1      -0.562   9.495  22.591  0.00  0.00    +0.000 A 
ATOM      9  C   UNL     1      -0.228   8.518  21.673  0.00  0.00    +0.000 A 
ATOM     10  C   UNL     1       0.476   8.881  20.527  0.00  0.00    +0.000 A 
ATOM     11  C   UNL     1       0.869  10.211  20.322  0.00  0.00    +0.000 A 
ATOM     12  F   UNL     1       1.599  10.476  19.228  0.00  0.00    +0.000 F 
ENDBRANCH   2   6
BRANCH   5  13
ATOM     13  N   UNL     1       0.970  16.052  19.796  0.00  0.00    +0.000 N 
ATOM     14  C   UNL     1       0.731  16.334  18.372  0.00  0.00    +0.000 C 
ATOM     15  C   UNL     1       1.703  17.453  17.945  0.00  0.00    +0.000 C 
ATOM     16  O   UNL     1       1.562  18.631  18.766  0.00  0.00    +0.000 OA
ATOM     17  C   UNL     1       1.779  18.314  20.154  0.00  0.00    +0.000 C 
ATOM     18  C   UNL     1       0.784  17.245  20.630  0.00  0.00    +0.000 C 
ENDBRANCH   5  13
BRANCH   1  19
ATOM     19  C   UNL     1      -1.208  13.808  19.522  0.00  0.00    +0.000 C 
BRANCH  19  20
ATOM     20  N   UNL     1      -2.382  13.372  20.262  0.00  0.00    +0.000 N 
ATOM     21  C   UNL     1      -3.306  12.409  19.753  0.00  0.00    +0.000 C 
ATOM     22  O   UNL     1      -4.352  12.169  20.354  0.00  0.00    +0.000 OA
BRANCH  21  23
ATOM     23  C   UNL     1      -3.013  11.575  18.549  0.00  0.00    +0.000 A 
ATOM     24  C   UNL     1      -1.953  10.652  18.459  0.00  0.00    +0.000 A 
ATOM     25  C   UNL     1      -1.754   9.861  17.333  0.00  0.00    +0.000 A 
ATOM     26  C   UNL     1      -2.651   9.927  16.280  0.00  0.00    +0.000 A 
ATOM     27  C   UNL     1      -3.752  10.785  16.368  0.00  0.00    +0.000 A 
ATOM     28  C   UNL     1      -3.922  11.600  17.488  0.00  0.00    +0.000 A 
ATOM     29  F   UNL     1      -4.994  12.407  17.511  0.00  0.00    +0.000 F 
ENDBRANCH  21  23
BRANCH  20  30
ATOM     30  C   UNL     1      -2.822  14.145  21.451  0.00  0.00    +0.000 C 
ATOM     31  C   UNL     1      -2.357  13.607  22.812  0.00  0.00    +0.000 C 
BRANCH  30  33
ATOM     32  C   UNL     1      -3.680  16.516  20.816  0.00  0.00    +0.000 C 
ATOM     33  C   UNL     1      -2.532  15.661  21.326  0.00  0.00    +0.000 C 
ENDBRANCH  30  33
ENDBRANCH  20  30
ENDBRANCH  19  20
ENDBRANCH   1  19
TORSDOF 7
ENDMDL
MODEL 3
REMARK VINA RESULT:      -6.5      2.358      4.424
REMARK  Name = 
REMARK  9 active torsions:
REMARK  status: ('A' for Active; 'I' for Inactive)
REMARK    1  A    between atoms: C_1  and  C_2
REMARK    2  A    between atoms: C_2  and  C_3
REMARK    3  A    between atoms: C_3  and  C_4
REMARK    4  A    between atoms: C_3  and  N_5
REMARK    5  A    between atoms: N_5  and  C_6
REMARK    6  A    between atoms: C_6  and  C_7
REMARK    7  A    between atoms: C_8  and  C_9
REMARK    8  A    between atoms: C_18  and  N_19
REMARK    9  A    between atoms: C_25  and  C_27
REMARK                            x       y       z     vdW  Elec       q    Type
REMARK                         _______ _______ _______ _____ _____    ______ ____
ROOT
ATOM      1  C   UNL     1      -3.239  12.781  20.141  0.00  0.00    +0.000 A 
ATOM      2  C   UNL     1      -3.936  11.938  19.176  0.00  0.00    +0.000 A 
ATOM      3  N   UNL     1      -5.177  11.680  19.622  0.00  0.00    +0.000 NA
ATOM      4  O   UNL     1      -5.329  12.332  20.813  0.00  0.00    +0.000 OA
ATOM      5  C   UNL     1      -4.175  12.955  21.160  0.00  0.00    +0.000 A 
ENDROOT
BRANCH   2   6
ATOM      6  C   UNL     1      -3.528  11.299  17.906  0.00  0.00    +0.000 A 
ATOM      7  C   UNL     1      -2.511  10.343  17.852  0.00  0.00    +0.000 A 
ATOM      8  C   UNL     1      -2.107   9.710  16.674  0.00  0.00    +0.000 A 
ATOM      9  C   UNL     1      -2.820   9.930  15.511  0.00  0.00    +0.000 A 
ATOM     10  C   UNL     1      -3.882  10.831  15.532  0.00  0.00    +0.000 A 
ATOM     11  C   UNL     1      -4.205  11.528  16.704  0.00  0.00    +0.000 A 
ATOM     12  F   UNL     1      -5.201  12.425  16.633  0.00  0.00    +0.000 F 
ENDBRANCH   2   6
BRANCH   5  13
ATOM     13  N   UNL     1      -4.164  13.624  22.342  0.00  0.00    +0.000 N 
ATOM     14  C   UNL     1      -5.001  14.813  22.563  0.00  0.00    +0.000 C 
ATOM     15  C   UNL     1      -4.146  15.857  23.310  0.00  0.00    +0.000 C 
ATOM     16  O   UNL     1      -3.609  15.332  24.541  0.00  0.00    +0.000 OA
ATOM     17  C   UNL     1      -2.816  14.157  24.291  0.00  0.00    +0.000 C 
ATOM     18  C   UNL     1      -3.655  13.070  23.601  0.00  0.00    +0.000 C 
ENDBRANCH   5  13
BRANCH   1  19
ATOM     19  C   UNL     1      -1.875  13.413  20.203  0.00  0.00    +0.000 C 
BRANCH  19  20
ATOM     20  N   UNL     1      -0.813  12.645  20.832  0.00  0.00    +0.000 N 
ATOM     21  C   UNL     1       0.557  13.049  20.805  0.00  0.00    +0.000 C 
ATOM     22  O   UNL     1       1.436  12.304  21.234  0.00  0.00    +0.000 OA
BRANCH  21  23
ATOM     23  C   UNL     1       0.983  14.411  20.366  0.00  0.00    +0.000 A 
ATOM     24  C   UNL     1       1.074  15.529  21.218  0.00  0.00    +0.000 A 
ATOM     25  C   UNL     1       1.525  16.766  20.770  0.00  0.00    +0.000 A 
ATOM     26  C   UNL     1       1.960  16.907  19.462  0.00  0.00    +0.000 A 
ATOM     27  C   UNL     1       1.946  15.797  18.611  0.00  0.00    +0.000 A 
ATOM     28  C   UNL     1       1.457  14.570  19.061  0.00  0.00    +0.000 A 
ATOM     29  F   UNL     1       1.462  13.545  18.195  0.00  0.00    +0.000 F 
ENDBRANCH  21  23
BRANCH  20  30
ATOM     30  C   UNL     1      -1.081  11.251  21.267  0.00  0.00    +0.000 C 
ATOM     31  C   UNL     1      -0.362  10.150  20.473  0.00  0.00    +0.000 C 
BRANCH  30  33
ATOM     32  C   UNL     1      -0.292   9.716  23.212  0.00  0.00    +0.000 C 
ATOM     33  C   UNL     1      -0.893  11.047  22.790  0.00  0.00    +0.000 C 
ENDBRANCH  30  33
ENDBRANCH  20  30
ENDBRANCH  19  20
ENDBRANCH   1  19
TORSDOF 7
ENDMDL
MODEL 4
REMARK VINA RESULT:      -6.4      2.492      6.053
REMARK  Name = 
REMARK  9 active torsions:
REMARK  status: ('A' for Active; 'I' for Inactive)
REMARK    1  A    between atoms: C_1  and  C_2
REMARK    2  A    between atoms: C_2  and  C_3
REMARK    3  A    between atoms: C_3  and  C_4
REMARK    4  A    between atoms: C_3  and  N_5
REMARK    5  A    between atoms: N_5  and  C_6
REMARK    6  A    between atoms: C_6  and  C_7
REMARK    7  A    between atoms: C_8  and  C_9
REMARK    8  A    between atoms: C_18  and  N_19
REMARK    9  A    between atoms: C_25  and  C_27
REMARK                            x       y       z     vdW  Elec       q    Type
REMARK                         _______ _______ _______ _____ _____    ______ ____
ROOT
ATOM      1  C   UNL     1      -2.688  12.395  19.653  0.00  0.00    +0.000 A 
ATOM      2  C   UNL     1      -3.431  13.008  20.748  0.00  0.00    +0.000 A 
ATOM      3  N   UNL     1      -4.739  12.731  20.610  0.00  0.00    +0.000 NA
ATOM      4  O   UNL     1      -4.878  11.951  19.497  0.00  0.00    +0.000 OA
ATOM      5  C   UNL     1      -3.678  11.777  18.890  0.00  0.00    +0.000 A 
ENDROOT
BRANCH   2   6
ATOM      6  C   UNL     1      -3.041  13.882  21.876  0.00  0.00    +0.000 A 
ATOM      7  C   UNL     1      -2.725  15.230  21.694  0.00  0.00    +0.000 A 
ATOM      8  C   UNL     1      -2.364  16.087  22.735  0.00  0.00    +0.000 A 
ATOM      9  C   UNL     1      -2.439  15.634  24.039  0.00  0.00    +0.000 A 
ATOM     10  C   UNL     1      -2.810  14.312  24.273  0.00  0.00    +0.000 A 
ATOM     11  C   UNL     1      -3.071  13.443  23.204  0.00  0.00    +0.000 A 
ATOM     12  F   UNL     1      -3.360  12.168  23.504  0.00  0.00    +0.000 F 
ENDBRANCH   2   6
BRANCH   5  13
ATOM     13  N   UNL     1      -3.662  11.043  17.748  0.00  0.00    +0.000 N 
ATOM     14  C   UNL     1      -3.162   9.660  17.726  0.00  0.00    +0.000 C 
ATOM     15  C   UNL     1      -2.306   9.491  16.454  0.00  0.00    +0.000 C 
ATOM     16  O   UNL     1      -3.044   9.823  15.260  0.00  0.00    +0.000 OA
ATOM     17  C   UNL     1      -3.538  11.173  15.325  0.00  0.00    +0.000 C 
ATOM     18  C   UNL     1      -4.447  11.361  16.550  0.00  0.00    +0.000 C 
ENDBRANCH   5  13
BRANCH   1  19
ATOM     19  C   UNL     1      -1.233  12.322  19.273  0.00  0.00    +0.000 C 
BRANCH  19  20
ATOM     20  N   UNL     1      -0.290  11.955  20.317  0.00  0.00    +0.000 N 
ATOM     21  C   UNL     1       0.933  12.660  20.540  0.00  0.00    +0.000 C 
ATOM     22  O   UNL     1       1.760  12.235  21.344  0.00  0.00    +0.000 OA
BRANCH  21  23
ATOM     23  C   UNL     1       1.223  13.981  19.907  0.00  0.00    +0.000 A 
ATOM     24  C   UNL     1       0.748  15.216  20.390  0.00  0.00    +0.000 A 
ATOM     25  C   UNL     1       1.090  16.424  19.793  0.00  0.00    +0.000 A 
ATOM     26  C   UNL     1       1.973  16.438  18.726  0.00  0.00    +0.000 A 
ATOM     27  C   UNL     1       2.515  15.234  18.267  0.00  0.00    +0.000 A 
ATOM     28  C   UNL     1       2.136  14.023  18.850  0.00  0.00    +0.000 A 
ATOM     29  F   UNL     1       2.685  12.901  18.361  0.00  0.00    +0.000 F 
ENDBRANCH  21  23
BRANCH  20  30
ATOM     30  C   UNL     1      -0.426  10.640  20.993  0.00  0.00    +0.000 C 
ATOM     31  C   UNL     1       0.594   9.567  20.585  0.00  0.00    +0.000 C 
BRANCH  30  33
ATOM     32  C   UNL     1      -0.129   9.518  23.320  0.00  0.00    +0.000 C 
ATOM     33  C   UNL     1      -0.517  10.760  22.534  0.00  0.00    +0.000 C 
ENDBRANCH  30  33
ENDBRANCH  20  30
ENDBRANCH  19  20
ENDBRANCH   1  19
TORSDOF 7
ENDMDL
MODEL 5
REMARK VINA RESULT:      -6.4      2.429      5.925
REMARK  Name = 
REMARK  9 active torsions:
REMARK  status: ('A' for Active; 'I' for Inactive)
REMARK    1  A    between atoms: C_1  and  C_2
REMARK    2  A    between atoms: C_2  and  C_3
REMARK    3  A    between atoms: C_3  and  C_4
REMARK    4  A    between atoms: C_3  and  N_5
REMARK    5  A    between atoms: N_5  and  C_6
REMARK    6  A    between atoms: C_6  and  C_7
REMARK    7  A    between atoms: C_8  and  C_9
REMARK    8  A    between atoms: C_18  and  N_19
REMARK    9  A    between atoms: C_25  and  C_27
REMARK                            x       y       z     vdW  Elec       q    Type
REMARK                         _______ _______ _______ _____ _____    ______ ____
ROOT
ATOM      1  C   UNL     1      -2.343  12.482  19.509  0.00  0.00    +0.000 A 
ATOM      2  C   UNL     1      -2.973  13.116  20.662  0.00  0.00    +0.000 A 
ATOM      3  N   UNL     1      -4.285  12.826  20.669  0.00  0.00    +0.000 NA
ATOM      4  O   UNL     1      -4.533  12.019  19.595  0.00  0.00    +0.000 OA
ATOM      5  C   UNL     1      -3.401  11.839  18.870  0.00  0.00    +0.000 A 
ENDROOT
BRANCH   2   6
ATOM      6  C   UNL     1      -2.476  14.019  21.722  0.00  0.00    +0.000 A 
ATOM      7  C   UNL     1      -1.716  13.553  22.797  0.00  0.00    +0.000 A 
ATOM      8  C   UNL     1      -1.219  14.377  23.809  0.00  0.00    +0.000 A 
ATOM      9  C   UNL     1      -1.366  15.747  23.696  0.00  0.00    +0.000 A 
ATOM     10  C   UNL     1      -2.065  16.263  22.607  0.00  0.00    +0.000 A 
ATOM     11  C   UNL     1      -2.639  15.408  21.657  0.00  0.00    +0.000 A 
ATOM     12  F   UNL     1      -3.351  15.973  20.669  0.00  0.00    +0.000 F 
ENDBRANCH   2   6
BRANCH   5  13
ATOM     13  N   UNL     1      -3.499  11.078  17.749  0.00  0.00    +0.000 N 
ATOM     14  C   UNL     1      -3.032   9.682  17.722  0.00  0.00    +0.000 C 
ATOM     15  C   UNL     1      -2.291   9.462  16.387  0.00  0.00    +0.000 C 
ATOM     16  O   UNL     1      -3.120   9.783  15.251  0.00  0.00    +0.000 OA
ATOM     17  C   UNL     1      -3.577  11.147  15.323  0.00  0.00    +0.000 C 
ATOM     18  C   UNL     1      -4.375  11.386  16.614  0.00  0.00    +0.000 C 
ENDBRANCH   5  13
BRANCH   1  19
ATOM     19  C   UNL     1      -0.936  12.410  18.981  0.00  0.00    +0.000 C 
BRANCH  19  20
ATOM     20  N   UNL     1       0.123  12.142  19.940  0.00  0.00    +0.000 N 
ATOM     21  C   UNL     1       1.047  13.141  20.376  0.00  0.00    +0.000 C 
ATOM     22  O   UNL     1       2.005  12.838  21.085  0.00  0.00    +0.000 OA
BRANCH  21  23
ATOM     23  C   UNL     1       0.846  14.594  20.097  0.00  0.00    +0.000 A 
ATOM     24  C   UNL     1       0.216  15.103  18.945  0.00  0.00    +0.000 A 
ATOM     25  C   UNL     1       0.007  16.465  18.756  0.00  0.00    +0.000 A 
ATOM     26  C   UNL     1       0.371  17.360  19.749  0.00  0.00    +0.000 A 
ATOM     27  C   UNL     1       0.937  16.879  20.933  0.00  0.00    +0.000 A 
ATOM     28  C   UNL     1       1.175  15.513  21.097  0.00  0.00    +0.000 A 
ATOM     29  F   UNL     1       1.727  15.114  22.253  0.00  0.00    +0.000 F 
ENDBRANCH  21  23
BRANCH  20  30
ATOM     30  C   UNL     1       0.469  10.736  20.269  0.00  0.00    +0.000 C 
ATOM     31  C   UNL     1      -0.299  10.113  21.444  0.00  0.00    +0.000 C 
BRANCH  30  33
ATOM     32  C   UNL     1       1.664   9.858  18.133  0.00  0.00    +0.000 C 
ATOM     33  C   UNL     1       0.441   9.802  19.034  0.00  0.00    +0.000 C 
ENDBRANCH  30  33
ENDBRANCH  20  30
ENDBRANCH  19  20
ENDBRANCH   1  19
TORSDOF 7
ENDMDL
MODEL 6
REMARK VINA RESULT:      -6.4      2.351      6.197
REMARK  Name = 
REMARK  9 active torsions:
REMARK  status: ('A' for Active; 'I' for Inactive)
REMARK    1  A    between atoms: C_1  and  C_2
REMARK    2  A    between atoms: C_2  and  C_3
REMARK    3  A    between atoms: C_3  and  C_4
REMARK    4  A    between atoms: C_3  and  N_5
REMARK    5  A    between atoms: N_5  and  C_6
REMARK    6  A    between atoms: C_6  and  C_7
REMARK    7  A    between atoms: C_8  and  C_9
REMARK    8  A    between atoms: C_18  and  N_19
REMARK    9  A    between atoms: C_25  and  C_27
REMARK                            x       y       z     vdW  Elec       q    Type
REMARK                         _______ _______ _______ _____ _____    ______ ____
ROOT
ATOM      1  C   UNL     1      -2.753  12.468  19.643  0.00  0.00    +0.000 A 
ATOM      2  C   UNL     1      -3.528  13.075  20.720  0.00  0.00    +0.000 A 
ATOM      3  N   UNL     1      -4.825  12.755  20.573  0.00  0.00    +0.000 NA
ATOM      4  O   UNL     1      -4.927  11.954  19.471  0.00  0.00    +0.000 OA
ATOM      5  C   UNL     1      -3.715  11.808  18.880  0.00  0.00    +0.000 A 
ENDROOT
BRANCH   2   6
ATOM      6  C   UNL     1      -3.178  13.978  21.838  0.00  0.00    +0.000 A 
ATOM      7  C   UNL     1      -3.366  13.613  23.173  0.00  0.00    +0.000 A 
ATOM      8  C   UNL     1      -3.036  14.434  24.253  0.00  0.00    +0.000 A 
ATOM      9  C   UNL     1      -2.371  15.622  24.019  0.00  0.00    +0.000 A 
ATOM     10  C   UNL     1      -2.107  15.999  22.705  0.00  0.00    +0.000 A 
ATOM     11  C   UNL     1      -2.536  15.205  21.633  0.00  0.00    +0.000 A 
ATOM     12  F   UNL     1      -2.302  15.662  20.394  0.00  0.00    +0.000 F 
ENDBRANCH   2   6
BRANCH   5  13
ATOM     13  N   UNL     1      -3.664  11.057  17.750  0.00  0.00    +0.000 N 
ATOM     14  C   UNL     1      -3.110   9.694  17.754  0.00  0.00    +0.000 C 
ATOM     15  C   UNL     1      -2.240   9.537  16.489  0.00  0.00    +0.000 C 
ATOM     16  O   UNL     1      -2.983   9.821  15.286  0.00  0.00    +0.000 OA
ATOM     17  C   UNL     1      -3.530  11.152  15.327  0.00  0.00    +0.000 C 
ATOM     18  C   UNL     1      -4.453  11.325  16.543  0.00  0.00    +0.000 C 
ENDBRANCH   5  13
BRANCH   1  19
ATOM     19  C   UNL     1      -1.293  12.435  19.280  0.00  0.00    +0.000 C 
BRANCH  19  20
ATOM     20  N   UNL     1      -0.364  11.979  20.301  0.00  0.00    +0.000 N 
ATOM     21  C   UNL     1       0.927  12.562  20.491  0.00  0.00    +0.000 C 
ATOM     22  O   UNL     1       1.729  12.061  21.276  0.00  0.00    +0.000 OA
BRANCH  21  23
ATOM     23  C   UNL     1       1.327  13.849  19.847  0.00  0.00    +0.000 A 
ATOM     24  C   UNL     1       1.002  15.124  20.347  0.00  0.00    +0.000 A 
ATOM     25  C   UNL     1       1.444  16.293  19.737  0.00  0.00    +0.000 A 
ATOM     26  C   UNL     1       2.280  16.220  18.635  0.00  0.00    +0.000 A 
ATOM     27  C   UNL     1       2.676  14.967  18.156  0.00  0.00    +0.000 A 
ATOM     28  C   UNL     1       2.197  13.800  18.754  0.00  0.00    +0.000 A 
ATOM     29  F   UNL     1       2.607  12.629  18.244  0.00  0.00    +0.000 F 
ENDBRANCH  21  23
BRANCH  20  30
ATOM     30  C   UNL     1      -0.609  10.684  20.985  0.00  0.00    +0.000 C 
ATOM     31  C   UNL     1       0.302   9.521  20.566  0.00  0.00    +0.000 C 
BRANCH  30  33
ATOM     32  C   UNL     1      -0.156   9.619  23.314  0.00  0.00    +0.000 C 
ATOM     33  C   UNL     1      -0.664  10.816  22.527  0.00  0.00    +0.000 C 
ENDBRANCH  30  33
ENDBRANCH  20  30
ENDBRANCH  19  20
ENDBRANCH   1  19
TORSDOF 7
ENDMDL
MODEL 7
REMARK VINA RESULT:      -6.4      2.399      6.010
REMARK  Name = 
REMARK  9 active torsions:
REMARK  status: ('A' for Active; 'I' for Inactive)
REMARK    1  A    between atoms: C_1  and  C_2
REMARK    2  A    between atoms: C_2  and  C_3
REMARK    3  A    between atoms: C_3  and  C_4
REMARK    4  A    between atoms: C_3  and  N_5
REMARK    5  A    between atoms: N_5  and  C_6
REMARK    6  A    between atoms: C_6  and  C_7
REMARK    7  A    between atoms: C_8  and  C_9
REMARK    8  A    between atoms: C_18  and  N_19
REMARK    9  A    between atoms: C_25  and  C_27
REMARK                            x       y       z     vdW  Elec       q    Type
REMARK                         _______ _______ _______ _____ _____    ______ ____
ROOT
ATOM      1  C   UNL     1      -2.796  12.604  19.843  0.00  0.00    +0.000 A 
ATOM      2  C   UNL     1      -3.615  13.104  20.943  0.00  0.00    +0.000 A 
ATOM      3  N   UNL     1      -4.873  12.655  20.802  0.00  0.00    +0.000 NA
ATOM      4  O   UNL     1      -4.907  11.871  19.683  0.00  0.00    +0.000 OA
ATOM      5  C   UNL     1      -3.694  11.864  19.076  0.00  0.00    +0.000 A 
ENDROOT
BRANCH   2   6
ATOM      6  C   UNL     1      -3.345  14.014  22.077  0.00  0.00    +0.000 A 
ATOM      7  C   UNL     1      -3.155  15.386  21.896  0.00  0.00    +0.000 A 
ATOM      8  C   UNL     1      -2.910  16.277  22.944  0.00  0.00    +0.000 A 
ATOM      9  C   UNL     1      -2.980  15.822  24.247  0.00  0.00    +0.000 A 
ATOM     10  C   UNL     1      -3.228  14.471  24.477  0.00  0.00    +0.000 A 
ATOM     11  C   UNL     1      -3.372  13.579  23.406  0.00  0.00    +0.000 A 
ATOM     12  F   UNL     1      -3.546  12.282  23.704  0.00  0.00    +0.000 F 
ENDBRANCH   2   6
BRANCH   5  13
ATOM     13  N   UNL     1      -3.581  11.147  17.929  0.00  0.00    +0.000 N 
ATOM     14  C   UNL     1      -2.996   9.797  17.917  0.00  0.00    +0.000 C 
ATOM     15  C   UNL     1      -2.074   9.696  16.685  0.00  0.00    +0.000 C 
ATOM     16  O   UNL     1      -2.775   9.998  15.461  0.00  0.00    +0.000 OA
ATOM     17  C   UNL     1      -3.353  11.315  15.516  0.00  0.00    +0.000 C 
ATOM     18  C   UNL     1      -4.328  11.432  16.698  0.00  0.00    +0.000 C 
ENDBRANCH   5  13
BRANCH   1  19
ATOM     19  C   UNL     1      -1.345  12.730  19.464  0.00  0.00    +0.000 C 
BRANCH  19  20
ATOM     20  N   UNL     1      -0.364  12.583  20.526  0.00  0.00    +0.000 N 
ATOM     21  C   UNL     1       0.628  13.572  20.809  0.00  0.00    +0.000 C 
ATOM     22  O   UNL     1       1.518  13.348  21.626  0.00  0.00    +0.000 OA
BRANCH  21  23
ATOM     23  C   UNL     1       0.578  14.945  20.225  0.00  0.00    +0.000 A 
ATOM     24  C   UNL     1       0.058  16.074  20.888  0.00  0.00    +0.000 A 
ATOM     25  C   UNL     1       0.083  17.343  20.320  0.00  0.00    +0.000 A 
ATOM     26  C   UNL     1       0.687  17.532  19.088  0.00  0.00    +0.000 A 
ATOM     27  C   UNL     1       1.273  16.443  18.435  0.00  0.00    +0.000 A 
ATOM     28  C   UNL     1       1.210  15.167  18.998  0.00  0.00    +0.000 A 
ATOM     29  F   UNL     1       1.785  14.162  18.321  0.00  0.00    +0.000 F 
ENDBRANCH  21  23
BRANCH  20  30
ATOM     30  C   UNL     1      -0.168  11.254  21.159  0.00  0.00    +0.000 C 
ATOM     31  C   UNL     1      -0.962  11.000  22.449  0.00  0.00    +0.000 C 
BRANCH  30  33
ATOM     32  C   UNL     1       0.846   9.799  19.256  0.00  0.00    +0.000 C 
ATOM     33  C   UNL     1      -0.341  10.080  20.163  0.00  0.00    +0.000 C 
ENDBRANCH  30  33
ENDBRANCH  20  30
ENDBRANCH  19  20
ENDBRANCH   1  19
TORSDOF 7
ENDMDL
MODEL 8
REMARK VINA RESULT:      -6.3      8.003     10.754
REMARK  Name = 
REMARK  9 active torsions:
REMARK  status: ('A' for Active; 'I' for Inactive)
REMARK    1  A    between atoms: C_1  and  C_2
REMARK    2  A    between atoms: C_2  and  C_3
REMARK    3  A    between atoms: C_3  and  C_4
REMARK    4  A    between atoms: C_3  and  N_5
REMARK    5  A    between atoms: N_5  and  C_6
REMARK    6  A    between atoms: C_6  and  C_7
REMARK    7  A    between atoms: C_8  and  C_9
REMARK    8  A    between atoms: C_18  and  N_19
REMARK    9  A    between atoms: C_25  and  C_27
REMARK                            x       y       z     vdW  Elec       q    Type
REMARK                         _______ _______ _______ _____ _____    ______ ____
ROOT
ATOM      1  C   UNL     1       7.167  15.795  19.256  0.00  0.00    +0.000 A 
ATOM      2  C   UNL     1       8.109  16.791  18.757  0.00  0.00    +0.000 A 
ATOM      3  N   UNL     1       7.446  17.921  18.457  0.00  0.00    +0.000 NA
ATOM      4  O   UNL     1       6.129  17.717  18.759  0.00  0.00    +0.000 OA
ATOM      5  C   UNL     1       5.937  16.447  19.193  0.00  0.00    +0.000 A 
ENDROOT
BRANCH   2   6
ATOM      6  C   UNL     1       9.560  16.764  18.474  0.00  0.00    +0.000 A 
ATOM      7  C   UNL     1      10.072  16.267  17.273  0.00  0.00    +0.000 A 
ATOM      8  C   UNL     1      11.434  16.236  16.966  0.00  0.00    +0.000 A 
ATOM      9  C   UNL     1      12.333  16.839  17.826  0.00  0.00    +0.000 A 
ATOM     10  C   UNL     1      11.860  17.403  19.008  0.00  0.00    +0.000 A 
ATOM     11  C   UNL     1      10.501  17.333  19.340  0.00  0.00    +0.000 A 
ATOM     12  F   UNL     1      10.128  17.843  20.524  0.00  0.00    +0.000 F 
ENDBRANCH   2   6
BRANCH   5  13
ATOM     13  N   UNL     1       4.666  16.085  19.504  0.00  0.00    +0.000 N 
ATOM     14  C   UNL     1       3.767  16.985  20.245  0.00  0.00    +0.000 C 
ATOM     15  C   UNL     1       3.013  16.138  21.291  0.00  0.00    +0.000 C 
ATOM     16  O   UNL     1       2.305  15.038  20.684  0.00  0.00    +0.000 OA
ATOM     17  C   UNL     1       3.209  14.193  19.949  0.00  0.00    +0.000 C 
ATOM     18  C   UNL     1       3.934  14.993  18.855  0.00  0.00    +0.000 C 
ENDBRANCH   5  13
BRANCH   1  19
ATOM     19  C   UNL     1       7.292  14.384  19.765  0.00  0.00    +0.000 C 
BRANCH  19  20
ATOM     20  N   UNL     1       8.006  14.189  21.017  0.00  0.00    +0.000 N 
ATOM     21  C   UNL     1       9.152  13.344  21.132  0.00  0.00    +0.000 C 
ATOM     22  O   UNL     1       9.642  13.104  22.234  0.00  0.00    +0.000 OA
BRANCH  21  23
ATOM     23  C   UNL     1       9.872  12.803  19.941  0.00  0.00    +0.000 A 
ATOM     24  C   UNL     1       9.361  11.806  19.087  0.00  0.00    +0.000 A 
ATOM     25  C   UNL     1      10.051  11.374  17.960  0.00  0.00    +0.000 A 
ATOM     26  C   UNL     1      11.252  11.972  17.617  0.00  0.00    +0.000 A 
ATOM     27  C   UNL     1      11.752  13.012  18.408  0.00  0.00    +0.000 A 
ATOM     28  C   UNL     1      11.069  13.413  19.557  0.00  0.00    +0.000 A 
ATOM     29  F   UNL     1      11.603  14.411  20.278  0.00  0.00    +0.000 F 
ENDBRANCH  21  23
BRANCH  20  30
ATOM     30  C   UNL     1       7.379  14.628  22.289  0.00  0.00    +0.000 C 
ATOM     31  C   UNL     1       7.527  16.118  22.632  0.00  0.00    +0.000 C 
BRANCH  30  33
ATOM     32  C   UNL     1       5.234  14.482  23.753  0.00  0.00    +0.000 C 
ATOM     33  C   UNL     1       5.905  14.173  22.424  0.00  0.00    +0.000 C 
ENDBRANCH  30  33
ENDBRANCH  20  30
ENDBRANCH  19  20
ENDBRANCH   1  19
TORSDOF 7
ENDMDL
MODEL 9
REMARK VINA RESULT:      -6.3      1.996      4.156
REMARK  Name = 
REMARK  9 active torsions:
REMARK  status: ('A' for Active; 'I' for Inactive)
REMARK    1  A    between atoms: C_1  and  C_2
REMARK    2  A    between atoms: C_2  and  C_3
REMARK    3  A    between atoms: C_3  and  C_4
REMARK    4  A    between atoms: C_3  and  N_5
REMARK    5  A    between atoms: N_5  and  C_6
REMARK    6  A    between atoms: C_6  and  C_7
REMARK    7  A    between atoms: C_8  and  C_9
REMARK    8  A    between atoms: C_18  and  N_19
REMARK    9  A    between atoms: C_25  and  C_27
REMARK                            x       y       z     vdW  Elec       q    Type
REMARK                         _______ _______ _______ _____ _____    ______ ____
ROOT
ATOM      1  C   UNL     1       0.084   9.726  20.891  0.00  0.00    +0.000 A 
ATOM      2  C   UNL     1       0.982   8.642  21.275  0.00  0.00    +0.000 A 
ATOM      3  N   UNL     1       1.281   8.752  22.580  0.00  0.00    +0.000 NA
ATOM      4  O   UNL     1       0.605   9.836  23.067  0.00  0.00    +0.000 OA
ATOM      5  C   UNL     1      -0.076  10.453  22.070  0.00  0.00    +0.000 A 
ENDROOT
BRANCH   2   6
ATOM      6  C   UNL     1       1.636   7.551  20.521  0.00  0.00    +0.000 A 
ATOM      7  C   UNL     1       1.611   6.227  20.963  0.00  0.00    +0.000 A 
ATOM      8  C   UNL     1       2.207   5.169  20.272  0.00  0.00    +0.000 A 
ATOM      9  C   UNL     1       2.747   5.400  19.021  0.00  0.00    +0.000 A 
ATOM     10  C   UNL     1       2.740   6.696  18.513  0.00  0.00    +0.000 A 
ATOM     11  C   UNL     1       2.224   7.758  19.268  0.00  0.00    +0.000 A 
ATOM     12  F   UNL     1       2.308   8.989  18.740  0.00  0.00    +0.000 F 
ENDBRANCH   2   6
BRANCH   5  13
ATOM     13  N   UNL     1      -0.776  11.569  22.397  0.00  0.00    +0.000 N 
ATOM     14  C   UNL     1      -1.942  11.514  23.293  0.00  0.00    +0.000 C 
ATOM     15  C   UNL     1      -3.033  12.429  22.699  0.00  0.00    +0.000 C 
ATOM     16  O   UNL     1      -2.558  13.777  22.504  0.00  0.00    +0.000 OA
ATOM     17  C   UNL     1      -1.404  13.791  21.644  0.00  0.00    +0.000 C 
ATOM     18  C   UNL     1      -0.272  12.938  22.236  0.00  0.00    +0.000 C 
ENDBRANCH   5  13
BRANCH   1  19
ATOM     19  C   UNL     1      -0.607  10.124  19.615  0.00  0.00    +0.000 C 
BRANCH  19  20
ATOM     20  N   UNL     1      -0.255  11.413  19.041  0.00  0.00    +0.000 N 
ATOM     21  C   UNL     1      -1.154  12.173  18.230  0.00  0.00    +0.000 C 
ATOM     22  O   UNL     1      -0.770  13.191  17.658  0.00  0.00    +0.000 OA
BRANCH  21  23
ATOM     23  C   UNL     1      -2.607  11.844  18.121  0.00  0.00    +0.000 A 
ATOM     24  C   UNL     1      -3.572  12.171  19.093  0.00  0.00    +0.000 A 
ATOM     25  C   UNL     1      -4.922  11.888  18.920  0.00  0.00    +0.000 A 
ATOM     26  C   UNL     1      -5.359  11.321  17.734  0.00  0.00    +0.000 A 
ATOM     27  C   UNL     1      -4.433  11.048  16.722  0.00  0.00    +0.000 A 
ATOM     28  C   UNL     1      -3.076  11.302  16.921  0.00  0.00    +0.000 A 
ATOM     29  F   UNL     1      -2.237  11.012  15.915  0.00  0.00    +0.000 F 
ENDBRANCH  21  23
BRANCH  20  30
ATOM     30  C   UNL     1       1.166  11.843  19.030  0.00  0.00    +0.000 C 
ATOM     31  C   UNL     1       1.961  11.501  17.761  0.00  0.00    +0.000 C 
BRANCH  30  33
ATOM     32  C   UNL     1       2.671  13.963  19.007  0.00  0.00    +0.000 C 
ATOM     33  C   UNL     1       1.349  13.332  19.413  0.00  0.00    +0.000 C 
ENDBRANCH  30  33
ENDBRANCH  20  30
ENDBRANCH  19  20
ENDBRANCH   1  19
TORSDOF 7
ENDMDL
