MODEL 1
REMARK VINA RESULT:      -8.2      0.000      0.000
REMARK  Name = 
REMARK  3 active torsions:
REMARK  status: ('A' for Active; 'I' for Inactive)
REMARK    1  A    between atoms: C_1  and  C_2
REMARK    2  A    between atoms: C_5  and  N_6
REMARK    3  A    between atoms: C_8  and  C_9
REMARK                            x       y       z     vdW  Elec       q    Type
REMARK                         _______ _______ _______ _____ _____    ______ ____
ROOT
ATOM      1  N   UNL     1       3.097   5.727  18.448  0.00  0.00    +0.000 N 
ATOM      2  C   UNL     1       4.482   5.441  18.758  0.00  0.00    +0.000 C 
ATOM      3  C   UNL     1       4.844   4.296  17.839  0.00  0.00    +0.000 C 
ATOM      4  C   UNL     1       3.538   3.560  17.616  0.00  0.00    +0.000 C 
ATOM      5  C   UNL     1       2.490   4.624  17.821  0.00  0.00    +0.000 C 
ATOM      6  O   UNL     1       1.332   4.468  17.479  0.00  0.00    +0.000 OA
ENDROOT
BRANCH   3   7
ATOM      7  C   UNL     1       5.454   4.746  16.521  0.00  0.00    +0.000 C 
ATOM      8  O   UNL     1       5.539   5.950  16.278  0.00  0.00    +0.000 OA
ATOM      9  N   UNL     1       5.890   3.743  15.682  0.00  0.00    +0.000 N 
ATOM     10  C   UNL     1       6.437   4.014  14.425  0.00  0.00    +0.000 A 
ATOM     11  C   UNL     1       7.390   5.009  14.242  0.00  0.00    +0.000 A 
ATOM     12  C   UNL     1       7.839   5.274  12.954  0.00  0.00    +0.000 A 
ATOM     13  C   UNL     1       7.304   4.556  11.893  0.00  0.00    +0.000 A 
ATOM     14  C   UNL     1       6.383   3.561  12.175  0.00  0.00    +0.000 A 
ATOM     15  N   UNL     1       5.967   3.247  13.422  0.00  0.00    +0.000 NA
ATOM     16  H   UNL     1       5.421   2.844  15.709  0.00  0.00    +0.000 HD
ENDBRANCH   3   7
BRANCH   1  21
ATOM     17  C   UNL     1       0.432  10.537  20.177  0.00  0.00    +0.000 C 
ATOM     18  C   UNL     1       1.133   9.293  19.725  0.00  0.00    +0.000 A 
ATOM     19  C   UNL     1       1.580   9.158  18.408  0.00  0.00    +0.000 A 
ATOM     20  C   UNL     1       2.228   7.991  17.993  0.00  0.00    +0.000 A 
ATOM     21  C   UNL     1       2.447   6.920  18.871  0.00  0.00    +0.000 A 
ATOM     22  C   UNL     1       1.998   7.074  20.189  0.00  0.00    +0.000 A 
ATOM     23  C   UNL     1       1.360   8.242  20.614  0.00  0.00    +0.000 A 
ENDBRANCH   1  21
TORSDOF 2
ENDMDL
MODEL 2
REMARK VINA RESULT:      -8.2      0.205      1.041
REMARK  Name = 
REMARK  3 active torsions:
REMARK  status: ('A' for Active; 'I' for Inactive)
REMARK    1  A    between atoms: C_1  and  C_2
REMARK    2  A    between atoms: C_5  and  N_6
REMARK    3  A    between atoms: C_8  and  C_9
REMARK                            x       y       z     vdW  Elec       q    Type
REMARK                         _______ _______ _______ _____ _____    ______ ____
ROOT
ATOM      1  N   UNL     1       2.994   5.554  18.449  0.00  0.00    +0.000 N 
ATOM      2  C   UNL     1       4.366   5.195  18.739  0.00  0.00    +0.000 C 
ATOM      3  C   UNL     1       4.682   4.093  17.752  0.00  0.00    +0.000 C 
ATOM      4  C   UNL     1       3.348   3.425  17.486  0.00  0.00    +0.000 C 
ATOM      5  C   UNL     1       2.343   4.516  17.757  0.00  0.00    +0.000 C 
ATOM      6  O   UNL     1       1.180   4.428  17.407  0.00  0.00    +0.000 OA
ENDROOT
BRANCH   3   7
ATOM      7  C   UNL     1       5.312   4.598  16.463  0.00  0.00    +0.000 C 
ATOM      8  O   UNL     1       5.328   5.808  16.235  0.00  0.00    +0.000 OA
ATOM      9  N   UNL     1       5.844   3.636  15.632  0.00  0.00    +0.000 N 
ATOM     10  C   UNL     1       6.420   3.956  14.400  0.00  0.00    +0.000 A 
ATOM     11  C   UNL     1       7.312   5.012  14.264  0.00  0.00    +0.000 A 
ATOM     12  C   UNL     1       7.792   5.322  12.997  0.00  0.00    +0.000 A 
ATOM     13  C   UNL     1       7.345   4.584  11.908  0.00  0.00    +0.000 A 
ATOM     14  C   UNL     1       6.480   3.528  12.146  0.00  0.00    +0.000 A 
ATOM     15  N   UNL     1       6.039   3.172  13.373  0.00  0.00    +0.000 NA
ATOM     16  H   UNL     1       5.434   2.707  15.632  0.00  0.00    +0.000 HD
ENDBRANCH   3   7
BRANCH   1  21
ATOM     17  C   UNL     1       0.584  10.399  20.437  0.00  0.00    +0.000 C 
ATOM     18  C   UNL     1       1.202   9.135  19.924  0.00  0.00    +0.000 A 
ATOM     19  C   UNL     1       1.414   8.042  20.769  0.00  0.00    +0.000 A 
ATOM     20  C   UNL     1       1.996   6.868  20.283  0.00  0.00    +0.000 A 
ATOM     21  C   UNL     1       2.391   6.745  18.944  0.00  0.00    +0.000 A 
ATOM     22  C   UNL     1       2.166   7.845  18.107  0.00  0.00    +0.000 A 
ATOM     23  C   UNL     1       1.575   9.018  18.584  0.00  0.00    +0.000 A 
ENDBRANCH   1  21
TORSDOF 2
ENDMDL
MODEL 3
REMARK VINA RESULT:      -7.7      3.412      6.606
REMARK  Name = 
REMARK  3 active torsions:
REMARK  status: ('A' for Active; 'I' for Inactive)
REMARK    1  A    between atoms: C_1  and  C_2
REMARK    2  A    between atoms: C_5  and  N_6
REMARK    3  A    between atoms: C_8  and  C_9
REMARK                            x       y       z     vdW  Elec       q    Type
REMARK                         _______ _______ _______ _____ _____    ______ ____
ROOT
ATOM      1  N   UNL     1       6.455   5.761  16.822  0.00  0.00    +0.000 N 
ATOM      2  C   UNL     1       5.069   5.867  16.417  0.00  0.00    +0.000 C 
ATOM      3  C   UNL     1       4.650   4.441  16.138  0.00  0.00    +0.000 C 
ATOM      4  C   UNL     1       5.926   3.746  15.707  0.00  0.00    +0.000 C 
ATOM      5  C   UNL     1       7.012   4.549  16.377  0.00  0.00    +0.000 C 
ATOM      6  O   UNL     1       8.157   4.142  16.468  0.00  0.00    +0.000 OA
ENDROOT
BRANCH   3   7
ATOM      7  C   UNL     1       4.024   3.747  17.338  0.00  0.00    +0.000 C 
ATOM      8  O   UNL     1       4.081   2.520  17.420  0.00  0.00    +0.000 OA
ATOM      9  N   UNL     1       3.437   4.570  18.274  0.00  0.00    +0.000 N 
ATOM     10  C   UNL     1       2.793   4.064  19.406  0.00  0.00    +0.000 A 
ATOM     11  C   UNL     1       3.363   3.065  20.185  0.00  0.00    +0.000 A 
ATOM     12  C   UNL     1       2.637   2.557  21.255  0.00  0.00    +0.000 A 
ATOM     13  C   UNL     1       1.359   3.044  21.494  0.00  0.00    +0.000 A 
ATOM     14  C   UNL     1       0.886   4.064  20.685  0.00  0.00    +0.000 A 
ATOM     15  N   UNL     1       1.591   4.613  19.670  0.00  0.00    +0.000 NA
ATOM     16  H   UNL     1       3.037   5.452  17.968  0.00  0.00    +0.000 HD
ENDBRANCH   3   7
BRANCH   1  21
ATOM     17  C   UNL     1       9.297  10.094  19.348  0.00  0.00    +0.000 C 
ATOM     18  C   UNL     1       8.554   8.966  18.701  0.00  0.00    +0.000 A 
ATOM     19  C   UNL     1       8.643   7.665  19.202  0.00  0.00    +0.000 A 
ATOM     20  C   UNL     1       7.951   6.617  18.588  0.00  0.00    +0.000 A 
ATOM     21  C   UNL     1       7.153   6.828  17.455  0.00  0.00    +0.000 A 
ATOM     22  C   UNL     1       7.068   8.139  16.969  0.00  0.00    +0.000 A 
ATOM     23  C   UNL     1       7.749   9.193  17.584  0.00  0.00    +0.000 A 
ENDBRANCH   1  21
TORSDOF 2
ENDMDL
MODEL 4
REMARK VINA RESULT:      -7.7      1.437      1.751
REMARK  Name = 
REMARK  3 active torsions:
REMARK  status: ('A' for Active; 'I' for Inactive)
REMARK    1  A    between atoms: C_1  and  C_2
REMARK    2  A    between atoms: C_5  and  N_6
REMARK    3  A    between atoms: C_8  and  C_9
REMARK                            x       y       z     vdW  Elec       q    Type
REMARK                         _______ _______ _______ _____ _____    ______ ____
ROOT
ATOM      1  N   UNL     1       3.045   5.883  19.341  0.00  0.00    +0.000 N 
ATOM      2  C   UNL     1       4.487   5.769  19.408  0.00  0.00    +0.000 C 
ATOM      3  C   UNL     1       4.759   4.304  19.144  0.00  0.00    +0.000 C 
ATOM      4  C   UNL     1       3.523   3.590  19.649  0.00  0.00    +0.000 C 
ATOM      5  C   UNL     1       2.437   4.629  19.531  0.00  0.00    +0.000 C 
ATOM      6  O   UNL     1       1.256   4.345  19.607  0.00  0.00    +0.000 OA
ENDROOT
BRANCH   3   7
ATOM      7  C   UNL     1       5.016   3.991  17.678  0.00  0.00    +0.000 C 
ATOM      8  O   UNL     1       4.653   2.906  17.222  0.00  0.00    +0.000 OA
ATOM      9  N   UNL     1       5.642   4.978  16.948  0.00  0.00    +0.000 N 
ATOM     10  C   UNL     1       5.972   4.808  15.601  0.00  0.00    +0.000 A 
ATOM     11  C   UNL     1       5.068   4.274  14.690  0.00  0.00    +0.000 A 
ATOM     12  C   UNL     1       5.486   4.065  13.381  0.00  0.00    +0.000 A 
ATOM     13  C   UNL     1       6.795   4.373  13.034  0.00  0.00    +0.000 A 
ATOM     14  C   UNL     1       7.613   4.932  14.001  0.00  0.00    +0.000 A 
ATOM     15  N   UNL     1       7.219   5.195  15.267  0.00  0.00    +0.000 NA
ATOM     16  H   UNL     1       6.284   5.605  17.423  0.00  0.00    +0.000 HD
ENDBRANCH   3   7
BRANCH   1  21
ATOM     17  C   UNL     1       0.314  10.945  18.952  0.00  0.00    +0.000 C 
ATOM     18  C   UNL     1       1.033   9.635  19.049  0.00  0.00    +0.000 A 
ATOM     19  C   UNL     1       1.652   9.069  17.932  0.00  0.00    +0.000 A 
ATOM     20  C   UNL     1       2.315   7.842  18.031  0.00  0.00    +0.000 A 
ATOM     21  C   UNL     1       2.379   7.137  19.240  0.00  0.00    +0.000 A 
ATOM     22  C   UNL     1       1.759   7.720  20.353  0.00  0.00    +0.000 A 
ATOM     23  C   UNL     1       1.104   8.951  20.264  0.00  0.00    +0.000 A 
ENDBRANCH   1  21
TORSDOF 2
ENDMDL
MODEL 5
REMARK VINA RESULT:      -7.7      1.437      2.005
REMARK  Name = 
REMARK  3 active torsions:
REMARK  status: ('A' for Active; 'I' for Inactive)
REMARK    1  A    between atoms: C_1  and  C_2
REMARK    2  A    between atoms: C_5  and  N_6
REMARK    3  A    between atoms: C_8  and  C_9
REMARK                            x       y       z     vdW  Elec       q    Type
REMARK                         _______ _______ _______ _____ _____    ______ ____
ROOT
ATOM      1  N   UNL     1       3.110   5.921  19.333  0.00  0.00    +0.000 N 
ATOM      2  C   UNL     1       4.554   5.825  19.373  0.00  0.00    +0.000 C 
ATOM      3  C   UNL     1       4.840   4.360  19.127  0.00  0.00    +0.000 C 
ATOM      4  C   UNL     1       3.623   3.639  19.669  0.00  0.00    +0.000 C 
ATOM      5  C   UNL     1       2.522   4.663  19.555  0.00  0.00    +0.000 C 
ATOM      6  O   UNL     1       1.346   4.365  19.660  0.00  0.00    +0.000 OA
ENDROOT
BRANCH   3   7
ATOM      7  C   UNL     1       5.072   4.026  17.662  0.00  0.00    +0.000 C 
ATOM      8  O   UNL     1       4.698   2.935  17.227  0.00  0.00    +0.000 OA
ATOM      9  N   UNL     1       5.688   5.001  16.908  0.00  0.00    +0.000 N 
ATOM     10  C   UNL     1       5.995   4.811  15.559  0.00  0.00    +0.000 A 
ATOM     11  C   UNL     1       5.076   4.267  14.670  0.00  0.00    +0.000 A 
ATOM     12  C   UNL     1       5.471   4.039  13.358  0.00  0.00    +0.000 A 
ATOM     13  C   UNL     1       6.774   4.338  12.984  0.00  0.00    +0.000 A 
ATOM     14  C   UNL     1       7.610   4.908  13.930  0.00  0.00    +0.000 A 
ATOM     15  N   UNL     1       7.237   5.189  15.198  0.00  0.00    +0.000 NA
ATOM     16  H   UNL     1       6.340   5.633  17.363  0.00  0.00    +0.000 HD
ENDBRANCH   3   7
BRANCH   1  21
ATOM     17  C   UNL     1       0.374  10.974  18.877  0.00  0.00    +0.000 C 
ATOM     18  C   UNL     1       1.076   9.657  18.999  0.00  0.00    +0.000 A 
ATOM     19  C   UNL     1       1.116   8.973  20.217  0.00  0.00    +0.000 A 
ATOM     20  C   UNL     1       1.778   7.746  20.323  0.00  0.00    +0.000 A 
ATOM     21  C   UNL     1       2.426   7.165  19.225  0.00  0.00    +0.000 A 
ATOM     22  C   UNL     1       2.372   7.859  18.009  0.00  0.00    +0.000 A 
ATOM     23  C   UNL     1       1.702   9.080  17.894  0.00  0.00    +0.000 A 
ENDBRANCH   1  21
TORSDOF 2
ENDMDL
MODEL 6
REMARK VINA RESULT:      -7.7      3.427      6.544
REMARK  Name = 
REMARK  3 active torsions:
REMARK  status: ('A' for Active; 'I' for Inactive)
REMARK    1  A    between atoms: C_1  and  C_2
REMARK    2  A    between atoms: C_5  and  N_6
REMARK    3  A    between atoms: C_8  and  C_9
REMARK                            x       y       z     vdW  Elec       q    Type
REMARK                         _______ _______ _______ _____ _____    ______ ____
ROOT
ATOM      1  N   UNL     1       6.439   5.758  16.822  0.00  0.00    +0.000 N 
ATOM      2  C   UNL     1       5.047   5.859  16.437  0.00  0.00    +0.000 C 
ATOM      3  C   UNL     1       4.629   4.431  16.161  0.00  0.00    +0.000 C 
ATOM      4  C   UNL     1       5.902   3.743  15.710  0.00  0.00    +0.000 C 
ATOM      5  C   UNL     1       6.994   4.548  16.367  0.00  0.00    +0.000 C 
ATOM      6  O   UNL     1       8.141   4.146  16.440  0.00  0.00    +0.000 OA
ENDROOT
BRANCH   3   7
ATOM      7  C   UNL     1       4.023   3.733  17.368  0.00  0.00    +0.000 C 
ATOM      8  O   UNL     1       4.107   2.507  17.459  0.00  0.00    +0.000 OA
ATOM      9  N   UNL     1       3.422   4.549  18.301  0.00  0.00    +0.000 N 
ATOM     10  C   UNL     1       2.794   4.037  19.439  0.00  0.00    +0.000 A 
ATOM     11  C   UNL     1       3.389   3.056  20.222  0.00  0.00    +0.000 A 
ATOM     12  C   UNL     1       2.678   2.539  21.299  0.00  0.00    +0.000 A 
ATOM     13  C   UNL     1       1.390   3.000  21.540  0.00  0.00    +0.000 A 
ATOM     14  C   UNL     1       0.893   4.004  20.726  0.00  0.00    +0.000 A 
ATOM     15  N   UNL     1       1.581   4.562  19.705  0.00  0.00    +0.000 NA
ATOM     16  H   UNL     1       3.001   5.420  17.991  0.00  0.00    +0.000 HD
ENDBRANCH   3   7
BRANCH   1  21
ATOM     17  C   UNL     1       9.269  10.072  19.392  0.00  0.00    +0.000 C 
ATOM     18  C   UNL     1       8.539   8.953  18.715  0.00  0.00    +0.000 A 
ATOM     19  C   UNL     1       7.759   9.186  17.579  0.00  0.00    +0.000 A 
ATOM     20  C   UNL     1       7.076   8.137  16.957  0.00  0.00    +0.000 A 
ATOM     21  C   UNL     1       7.142   6.826  17.447  0.00  0.00    +0.000 A 
ATOM     22  C   UNL     1       7.933   6.606  18.583  0.00  0.00    +0.000 A 
ATOM     23  C   UNL     1       8.627   7.649  19.203  0.00  0.00    +0.000 A 
ENDBRANCH   1  21
TORSDOF 2
ENDMDL
MODEL 7
REMARK VINA RESULT:      -7.5      3.702      6.523
REMARK  Name = 
REMARK  3 active torsions:
REMARK  status: ('A' for Active; 'I' for Inactive)
REMARK    1  A    between atoms: C_1  and  C_2
REMARK    2  A    between atoms: C_5  and  N_6
REMARK    3  A    between atoms: C_8  and  C_9
REMARK                            x       y       z     vdW  Elec       q    Type
REMARK                         _______ _______ _______ _____ _____    ______ ____
ROOT
ATOM      1  N   UNL     1       6.599   6.178  17.164  0.00  0.00    +0.000 N 
ATOM      2  C   UNL     1       5.404   6.333  16.361  0.00  0.00    +0.000 C 
ATOM      3  C   UNL     1       4.778   4.956  16.351  0.00  0.00    +0.000 C 
ATOM      4  C   UNL     1       5.948   4.005  16.503  0.00  0.00    +0.000 C 
ATOM      5  C   UNL     1       6.983   4.827  17.229  0.00  0.00    +0.000 C 
ATOM      6  O   UNL     1       7.963   4.324  17.749  0.00  0.00    +0.000 OA
ENDROOT
BRANCH   3   7
ATOM      7  C   UNL     1       3.753   4.748  17.455  0.00  0.00    +0.000 C 
ATOM      8  O   UNL     1       2.915   5.626  17.671  0.00  0.00    +0.000 OA
ATOM      9  N   UNL     1       3.832   3.555  18.139  0.00  0.00    +0.000 N 
ATOM     10  C   UNL     1       2.976   3.250  19.200  0.00  0.00    +0.000 A 
ATOM     11  C   UNL     1       1.607   3.471  19.120  0.00  0.00    +0.000 A 
ATOM     12  C   UNL     1       0.823   3.213  20.238  0.00  0.00    +0.000 A 
ATOM     13  C   UNL     1       1.435   2.768  21.402  0.00  0.00    +0.000 A 
ATOM     14  C   UNL     1       2.802   2.544  21.377  0.00  0.00    +0.000 A 
ATOM     15  N   UNL     1       3.580   2.736  20.289  0.00  0.00    +0.000 NA
ATOM     16  H   UNL     1       4.738   3.106  18.236  0.00  0.00    +0.000 HD
ENDBRANCH   3   7
BRANCH   1  21
ATOM     17  C   UNL     1       9.547  10.663  19.268  0.00  0.00    +0.000 C 
ATOM     18  C   UNL     1       8.785   9.500  18.711  0.00  0.00    +0.000 A 
ATOM     19  C   UNL     1       7.905   9.663  17.638  0.00  0.00    +0.000 A 
ATOM     20  C   UNL     1       7.194   8.573  17.129  0.00  0.00    +0.000 A 
ATOM     21  C   UNL     1       7.330   7.288  17.673  0.00  0.00    +0.000 A 
ATOM     22  C   UNL     1       8.221   7.139  18.745  0.00  0.00    +0.000 A 
ATOM     23  C   UNL     1       8.943   8.223  19.252  0.00  0.00    +0.000 A 
ENDBRANCH   1  21
TORSDOF 2
ENDMDL
MODEL 8
REMARK VINA RESULT:      -7.5      3.714      6.578
REMARK  Name = 
REMARK  3 active torsions:
REMARK  status: ('A' for Active; 'I' for Inactive)
REMARK    1  A    between atoms: C_1  and  C_2
REMARK    2  A    between atoms: C_5  and  N_6
REMARK    3  A    between atoms: C_8  and  C_9
REMARK                            x       y       z     vdW  Elec       q    Type
REMARK                         _______ _______ _______ _____ _____    ______ ____
ROOT
ATOM      1  N   UNL     1       6.602   6.154  17.151  0.00  0.00    +0.000 N 
ATOM      2  C   UNL     1       5.411   6.304  16.343  0.00  0.00    +0.000 C 
ATOM      3  C   UNL     1       4.790   4.924  16.329  0.00  0.00    +0.000 C 
ATOM      4  C   UNL     1       5.962   3.978  16.487  0.00  0.00    +0.000 C 
ATOM      5  C   UNL     1       6.991   4.803  17.219  0.00  0.00    +0.000 C 
ATOM      6  O   UNL     1       7.969   4.304  17.744  0.00  0.00    +0.000 OA
ENDROOT
BRANCH   3   7
ATOM      7  C   UNL     1       3.759   4.713  17.428  0.00  0.00    +0.000 C 
ATOM      8  O   UNL     1       2.916   5.586  17.637  0.00  0.00    +0.000 OA
ATOM      9  N   UNL     1       3.842   3.521  18.114  0.00  0.00    +0.000 N 
ATOM     10  C   UNL     1       2.982   3.213  19.171  0.00  0.00    +0.000 A 
ATOM     11  C   UNL     1       1.611   3.427  19.083  0.00  0.00    +0.000 A 
ATOM     12  C   UNL     1       0.823   3.166  20.197  0.00  0.00    +0.000 A 
ATOM     13  C   UNL     1       1.431   2.726  21.366  0.00  0.00    +0.000 A 
ATOM     14  C   UNL     1       2.799   2.510  21.348  0.00  0.00    +0.000 A 
ATOM     15  N   UNL     1       3.583   2.705  20.264  0.00  0.00    +0.000 NA
ATOM     16  H   UNL     1       4.749   3.077  18.217  0.00  0.00    +0.000 HD
ENDBRANCH   3   7
BRANCH   1  21
ATOM     17  C   UNL     1       9.546  10.670  19.192  0.00  0.00    +0.000 C 
ATOM     18  C   UNL     1       8.777   9.495  18.672  0.00  0.00    +0.000 A 
ATOM     19  C   UNL     1       8.926   8.228  19.242  0.00  0.00    +0.000 A 
ATOM     20  C   UNL     1       8.208   7.135  18.746  0.00  0.00    +0.000 A 
ATOM     21  C   UNL     1       7.326   7.266  17.665  0.00  0.00    +0.000 A 
ATOM     22  C   UNL     1       7.183   8.544  17.108  0.00  0.00    +0.000 A 
ATOM     23  C   UNL     1       7.889   9.642  17.606  0.00  0.00    +0.000 A 
ENDBRANCH   1  21
TORSDOF 2
ENDMDL
MODEL 9
REMARK VINA RESULT:      -7.4      2.977      7.413
REMARK  Name = 
REMARK  3 active torsions:
REMARK  status: ('A' for Active; 'I' for Inactive)
REMARK    1  A    between atoms: C_1  and  C_2
REMARK    2  A    between atoms: C_5  and  N_6
REMARK    3  A    between atoms: C_8  and  C_9
REMARK                            x       y       z     vdW  Elec       q    Type
REMARK                         _______ _______ _______ _____ _____    ______ ____
ROOT
ATOM      1  N   UNL     1       6.321   5.442  15.801  0.00  0.00    +0.000 N 
ATOM      2  C   UNL     1       7.079   5.095  16.985  0.00  0.00    +0.000 C 
ATOM      3  C   UNL     1       6.349   5.788  18.115  0.00  0.00    +0.000 C 
ATOM      4  C   UNL     1       5.714   7.002  17.469  0.00  0.00    +0.000 C 
ATOM      5  C   UNL     1       5.543   6.591  16.028  0.00  0.00    +0.000 C 
ATOM      6  O   UNL     1       4.836   7.213  15.256  0.00  0.00    +0.000 OA
ENDROOT
BRANCH   3   7
ATOM      7  C   UNL     1       5.304   4.912  18.788  0.00  0.00    +0.000 C 
ATOM      8  O   UNL     1       5.672   3.996  19.525  0.00  0.00    +0.000 OA
ATOM      9  N   UNL     1       3.989   5.228  18.525  0.00  0.00    +0.000 N 
ATOM     10  C   UNL     1       2.929   4.483  19.048  0.00  0.00    +0.000 A 
ATOM     11  C   UNL     1       2.895   4.100  20.383  0.00  0.00    +0.000 A 
ATOM     12  C   UNL     1       1.847   3.299  20.821  0.00  0.00    +0.000 A 
ATOM     13  C   UNL     1       0.885   2.889  19.908  0.00  0.00    +0.000 A 
ATOM     14  C   UNL     1       0.983   3.349  18.605  0.00  0.00    +0.000 A 
ATOM     15  N   UNL     1       1.962   4.171  18.164  0.00  0.00    +0.000 NA
ATOM     16  H   UNL     1       3.756   5.649  17.631  0.00  0.00    +0.000 HD
ENDBRANCH   3   7
BRANCH   1  21
ATOM     17  C   UNL     1       6.987   2.669  10.792  0.00  0.00    +0.000 C 
ATOM     18  C   UNL     1       6.813   3.399  12.088  0.00  0.00    +0.000 A 
ATOM     19  C   UNL     1       7.684   4.428  12.457  0.00  0.00    +0.000 A 
ATOM     20  C   UNL     1       7.518   5.099  13.671  0.00  0.00    +0.000 A 
ATOM     21  C   UNL     1       6.486   4.766  14.560  0.00  0.00    +0.000 A 
ATOM     22  C   UNL     1       5.617   3.738  14.173  0.00  0.00    +0.000 A 
ATOM     23  C   UNL     1       5.771   3.069  12.955  0.00  0.00    +0.000 A 
ENDBRANCH   1  21
TORSDOF 2
ENDMDL
