MODEL 1
REMARK VINA RESULT:      -8.2      0.000      0.000
REMARK  Name = 
REMARK  7 active torsions:
REMARK  status: ('A' for Active; 'I' for Inactive)
REMARK    1  A    between atoms: C_2  and  O_3
REMARK    2  A    between atoms: C_2  and  C_4
REMARK    3  A    between atoms: C_4  and  C_5
REMARK    4  A    between atoms: C_5  and  C_6
REMARK    5  A    between atoms: C_13  and  S_14
REMARK    6  A    between atoms: S_14  and  N_17
REMARK    7  A    between atoms: N_17  and  C_18
REMARK                            x       y       z     vdW  Elec       q    Type
REMARK                         _______ _______ _______ _____ _____    ______ ____
ROOT
ATOM      1  C   UNL     1       6.804   4.837  14.769  0.00  0.00    +0.000 C 
ATOM      2  O   UNL     1       7.863   5.208  14.243  0.00  0.00    +0.000 OA
ATOM      3  N   UNL     1       6.529   5.117  16.091  0.00  0.00    +0.000 N 
ATOM      4  C   UNL     1       7.452   5.983  16.843  0.00  0.00    +0.000 C 
ATOM      5  C   UNL     1       6.949   6.066  18.284  0.00  0.00    +0.000 C 
ATOM      6  C   UNL     1       5.617   5.396  18.180  0.00  0.00    +0.000 A 
ATOM      7  C   UNL     1       4.676   5.280  19.197  0.00  0.00    +0.000 A 
ATOM      8  C   UNL     1       3.509   4.560  18.938  0.00  0.00    +0.000 A 
ATOM      9  C   UNL     1       3.314   3.944  17.693  0.00  0.00    +0.000 A 
ATOM     10  C   UNL     1       4.279   4.067  16.682  0.00  0.00    +0.000 A 
ATOM     11  C   UNL     1       5.427   4.812  16.920  0.00  0.00    +0.000 A 
ENDROOT
BRANCH   8  12
ATOM     12  S   UNL     1       2.297   4.348  20.221  0.00  0.00    +0.000 S 
ATOM     13  O   UNL     1       1.015   4.189  19.573  0.00  0.00    +0.000 OA
ATOM     14  O   UNL     1       2.789   3.376  21.176  0.00  0.00    +0.000 OA
BRANCH  12  15
ATOM     15  N   UNL     1       2.247   5.855  20.988  0.00  0.00    +0.000 NA
ATOM     16  H   UNL     1       3.192   6.122  21.272  0.00  0.00    +0.000 HD
BRANCH  15  17
ATOM     17  C   UNL     1       1.425   6.916  20.391  0.00  0.00    +0.000 C 
ATOM     18  C   UNL     1       1.110   8.038  21.367  0.00  0.00    +0.000 C 
ATOM     19  C   UNL     1       0.663   9.177  20.468  0.00  0.00    +0.000 C 
ATOM     20  C   UNL     1       1.443   8.997  19.167  0.00  0.00    +0.000 C 
ATOM     21  C   UNL     1       2.185   7.664  19.298  0.00  0.00    +0.000 C 
ENDBRANCH  15  17
ENDBRANCH  12  15
ENDBRANCH   8  12
BRANCH   1  22
ATOM     22  C   UNL     1       5.788   4.076  13.951  0.00  0.00    +0.000 C 
BRANCH  22  23
ATOM     23  C   UNL     1       6.350   3.582  12.621  0.00  0.00    +0.000 C 
BRANCH  23  25
ATOM     24  O   UNL     1       4.199   3.148  11.591  0.00  0.00    +0.000 OA
ATOM     25  C   UNL     1       5.320   2.762  11.888  0.00  0.00    +0.000 C 
BRANCH  25  26
ATOM     26  O   UNL     1       5.761   1.523  11.578  0.00  0.00    +0.000 OA
ATOM     27  H   UNL     1       5.210   1.061  10.916  0.00  0.00    +0.000 HD
ENDBRANCH  25  26
ENDBRANCH  23  25
ENDBRANCH  22  23
ENDBRANCH   1  22
TORSDOF 7
ENDMDL
MODEL 2
REMARK VINA RESULT:      -8.0      3.679      5.295
REMARK  Name = 
REMARK  7 active torsions:
REMARK  status: ('A' for Active; 'I' for Inactive)
REMARK    1  A    between atoms: C_2  and  O_3
REMARK    2  A    between atoms: C_2  and  C_4
REMARK    3  A    between atoms: C_4  and  C_5
REMARK    4  A    between atoms: C_5  and  C_6
REMARK    5  A    between atoms: C_13  and  S_14
REMARK    6  A    between atoms: S_14  and  N_17
REMARK    7  A    between atoms: N_17  and  C_18
REMARK                            x       y       z     vdW  Elec       q    Type
REMARK                         _______ _______ _______ _____ _____    ______ ____
ROOT
ATOM      1  C   UNL     1       4.309   4.480  18.052  0.00  0.00    +0.000 C 
ATOM      2  O   UNL     1       4.656   3.323  18.329  0.00  0.00    +0.000 OA
ATOM      3  N   UNL     1       3.438   5.177  18.862  0.00  0.00    +0.000 N 
ATOM      4  C   UNL     1       3.023   4.579  20.142  0.00  0.00    +0.000 C 
ATOM      5  C   UNL     1       2.013   5.523  20.795  0.00  0.00    +0.000 C 
ATOM      6  C   UNL     1       2.103   6.724  19.911  0.00  0.00    +0.000 A 
ATOM      7  C   UNL     1       1.453   7.938  20.107  0.00  0.00    +0.000 A 
ATOM      8  C   UNL     1       1.601   8.931  19.138  0.00  0.00    +0.000 A 
ATOM      9  C   UNL     1       2.359   8.690  17.983  0.00  0.00    +0.000 A 
ATOM     10  C   UNL     1       3.002   7.457  17.799  0.00  0.00    +0.000 A 
ATOM     11  C   UNL     1       2.889   6.476  18.777  0.00  0.00    +0.000 A 
ENDROOT
BRANCH   8  12
ATOM     12  S   UNL     1       0.755  10.483  19.325  0.00  0.00    +0.000 S 
ATOM     13  O   UNL     1      -0.190  10.325  20.407  0.00  0.00    +0.000 OA
ATOM     14  O   UNL     1       1.731  11.553  19.321  0.00  0.00    +0.000 OA
BRANCH  12  15
ATOM     15  N   UNL     1      -0.170  10.615  17.915  0.00  0.00    +0.000 NA
ATOM     16  H   UNL     1       0.292  10.109  17.157  0.00  0.00    +0.000 HD
BRANCH  15  17
ATOM     17  C   UNL     1      -1.626  10.443  18.015  0.00  0.00    +0.000 C 
ATOM     18  C   UNL     1      -2.366  11.761  18.178  0.00  0.00    +0.000 C 
ATOM     19  C   UNL     1      -3.800  11.410  17.826  0.00  0.00    +0.000 C 
ATOM     20  C   UNL     1      -3.701  10.290  16.792  0.00  0.00    +0.000 C 
ATOM     21  C   UNL     1      -2.218   9.917  16.710  0.00  0.00    +0.000 C 
ENDBRANCH  15  17
ENDBRANCH  12  15
ENDBRANCH   8  12
BRANCH   1  22
ATOM     22  C   UNL     1       4.856   5.149  16.813  0.00  0.00    +0.000 C 
BRANCH  22  23
ATOM     23  C   UNL     1       5.688   4.204  15.950  0.00  0.00    +0.000 C 
BRANCH  23  25
ATOM     24  O   UNL     1       7.588   5.421  15.061  0.00  0.00    +0.000 OA
ATOM     25  C   UNL     1       7.123   4.665  15.901  0.00  0.00    +0.000 C 
BRANCH  25  26
ATOM     26  O   UNL     1       7.871   4.151  16.902  0.00  0.00    +0.000 OA
ATOM     27  H   UNL     1       7.360   3.625  17.547  0.00  0.00    +0.000 HD
ENDBRANCH  25  26
ENDBRANCH  23  25
ENDBRANCH  22  23
ENDBRANCH   1  22
TORSDOF 7
ENDMDL
MODEL 3
REMARK VINA RESULT:      -8.0      0.959      1.308
REMARK  Name = 
REMARK  7 active torsions:
REMARK  status: ('A' for Active; 'I' for Inactive)
REMARK    1  A    between atoms: C_2  and  O_3
REMARK    2  A    between atoms: C_2  and  C_4
REMARK    3  A    between atoms: C_4  and  C_5
REMARK    4  A    between atoms: C_5  and  C_6
REMARK    5  A    between atoms: C_13  and  S_14
REMARK    6  A    between atoms: S_14  and  N_17
REMARK    7  A    between atoms: N_17  and  C_18
REMARK                            x       y       z     vdW  Elec       q    Type
REMARK                         _______ _______ _______ _____ _____    ______ ____
ROOT
ATOM      1  C   UNL     1       6.813   4.736  14.908  0.00  0.00    +0.000 C 
ATOM      2  O   UNL     1       7.842   5.247  14.444  0.00  0.00    +0.000 OA
ATOM      3  N   UNL     1       6.562   4.743  16.264  0.00  0.00    +0.000 N 
ATOM      4  C   UNL     1       7.471   5.487  17.152  0.00  0.00    +0.000 C 
ATOM      5  C   UNL     1       7.004   5.269  18.591  0.00  0.00    +0.000 C 
ATOM      6  C   UNL     1       5.696   4.574  18.384  0.00  0.00    +0.000 A 
ATOM      7  C   UNL     1       4.788   4.223  19.377  0.00  0.00    +0.000 A 
ATOM      8  C   UNL     1       3.644   3.516  19.006  0.00  0.00    +0.000 A 
ATOM      9  C   UNL     1       3.440   3.144  17.669  0.00  0.00    +0.000 A 
ATOM     10  C   UNL     1       4.372   3.501  16.682  0.00  0.00    +0.000 A 
ATOM     11  C   UNL     1       5.495   4.237  17.039  0.00  0.00    +0.000 A 
ENDROOT
BRANCH   8  12
ATOM     12  S   UNL     1       2.476   3.008  20.246  0.00  0.00    +0.000 S 
ATOM     13  O   UNL     1       1.634   1.997  19.648  0.00  0.00    +0.000 OA
ATOM     14  O   UNL     1       3.183   2.768  21.487  0.00  0.00    +0.000 OA
BRANCH  12  15
ATOM     15  N   UNL     1       1.492   4.367  20.460  0.00  0.00    +0.000 NA
ATOM     16  H   UNL     1       0.923   4.244  21.300  0.00  0.00    +0.000 HD
BRANCH  15  17
ATOM     17  C   UNL     1       2.085   5.697  20.268  0.00  0.00    +0.000 C 
ATOM     18  C   UNL     1       1.974   6.192  18.835  0.00  0.00    +0.000 C 
ATOM     19  C   UNL     1       2.229   7.684  18.954  0.00  0.00    +0.000 C 
ATOM     20  C   UNL     1       1.696   8.079  20.330  0.00  0.00    +0.000 C 
ATOM     21  C   UNL     1       1.309   6.771  21.026  0.00  0.00    +0.000 C 
ENDBRANCH  15  17
ENDBRANCH  12  15
ENDBRANCH   8  12
BRANCH   1  22
ATOM     22  C   UNL     1       5.806   4.103  13.977  0.00  0.00    +0.000 C 
BRANCH  22  23
ATOM     23  C   UNL     1       6.411   3.704  12.634  0.00  0.00    +0.000 C 
BRANCH  23  25
ATOM     24  O   UNL     1       4.343   3.182  11.480  0.00  0.00    +0.000 OA
ATOM     25  C   UNL     1       5.451   2.835  11.864  0.00  0.00    +0.000 C 
BRANCH  25  26
ATOM     26  O   UNL     1       5.940   1.597  11.627  0.00  0.00    +0.000 OA
ATOM     27  H   UNL     1       6.801   1.595  11.163  0.00  0.00    +0.000 HD
ENDBRANCH  25  26
ENDBRANCH  23  25
ENDBRANCH  22  23
ENDBRANCH   1  22
TORSDOF 7
ENDMDL
MODEL 4
REMARK VINA RESULT:      -8.0      2.623      7.523
REMARK  Name = 
REMARK  7 active torsions:
REMARK  status: ('A' for Active; 'I' for Inactive)
REMARK    1  A    between atoms: C_2  and  O_3
REMARK    2  A    between atoms: C_2  and  C_4
REMARK    3  A    between atoms: C_4  and  C_5
REMARK    4  A    between atoms: C_5  and  C_6
REMARK    5  A    between atoms: C_13  and  S_14
REMARK    6  A    between atoms: S_14  and  N_17
REMARK    7  A    between atoms: N_17  and  C_18
REMARK                            x       y       z     vdW  Elec       q    Type
REMARK                         _______ _______ _______ _____ _____    ______ ____
ROOT
ATOM      1  C   UNL     1       1.743   5.503  20.674  0.00  0.00    +0.000 C 
ATOM      2  O   UNL     1       0.694   5.967  21.143  0.00  0.00    +0.000 OA
ATOM      3  N   UNL     1       2.401   6.132  19.638  0.00  0.00    +0.000 N 
ATOM      4  C   UNL     1       1.914   7.443  19.177  0.00  0.00    +0.000 C 
ATOM      5  C   UNL     1       2.773   7.871  17.987  0.00  0.00    +0.000 C 
ATOM      6  C   UNL     1       3.854   6.839  18.006  0.00  0.00    +0.000 A 
ATOM      7  C   UNL     1       4.973   6.809  17.182  0.00  0.00    +0.000 A 
ATOM      8  C   UNL     1       5.847   5.727  17.294  0.00  0.00    +0.000 A 
ATOM      9  C   UNL     1       5.578   4.685  18.193  0.00  0.00    +0.000 A 
ATOM     10  C   UNL     1       4.439   4.729  19.012  0.00  0.00    +0.000 A 
ATOM     11  C   UNL     1       3.583   5.821  18.931  0.00  0.00    +0.000 A 
ENDROOT
BRANCH   8  12
ATOM     12  S   UNL     1       7.269   5.624  16.232  0.00  0.00    +0.000 S 
ATOM     13  O   UNL     1       8.000   6.861  16.378  0.00  0.00    +0.000 OA
ATOM     14  O   UNL     1       7.909   4.339  16.428  0.00  0.00    +0.000 OA
BRANCH  12  15
ATOM     15  N   UNL     1       6.616   5.649  14.672  0.00  0.00    +0.000 NA
ATOM     16  H   UNL     1       6.870   6.526  14.213  0.00  0.00    +0.000 HD
BRANCH  15  17
ATOM     17  C   UNL     1       6.716   4.435  13.852  0.00  0.00    +0.000 C 
ATOM     18  C   UNL     1       5.366   3.949  13.349  0.00  0.00    +0.000 C 
ATOM     19  C   UNL     1       5.728   3.003  12.218  0.00  0.00    +0.000 C 
ATOM     20  C   UNL     1       7.023   3.556  11.625  0.00  0.00    +0.000 C 
ATOM     21  C   UNL     1       7.455   4.702  12.543  0.00  0.00    +0.000 C 
ENDBRANCH  15  17
ENDBRANCH  12  15
ENDBRANCH   8  12
BRANCH   1  22
ATOM     22  C   UNL     1       2.324   4.234  21.252  0.00  0.00    +0.000 C 
BRANCH  22  23
ATOM     23  C   UNL     1       1.352   3.059  21.194  0.00  0.00    +0.000 C 
BRANCH  23  25
ATOM     24  O   UNL     1       2.231   2.013  19.191  0.00  0.00    +0.000 OA
ATOM     25  C   UNL     1       1.287   2.500  19.796  0.00  0.00    +0.000 C 
BRANCH  25  26
ATOM     26  O   UNL     1       0.052   2.587  19.254  0.00  0.00    +0.000 OA
ATOM     27  H   UNL     1      -0.653   2.209  19.816  0.00  0.00    +0.000 HD
ENDBRANCH  25  26
ENDBRANCH  23  25
ENDBRANCH  22  23
ENDBRANCH   1  22
TORSDOF 7
ENDMDL
MODEL 5
REMARK VINA RESULT:      -7.9      3.825      5.642
REMARK  Name = 
REMARK  7 active torsions:
REMARK  status: ('A' for Active; 'I' for Inactive)
REMARK    1  A    between atoms: C_2  and  O_3
REMARK    2  A    between atoms: C_2  and  C_4
REMARK    3  A    between atoms: C_4  and  C_5
REMARK    4  A    between atoms: C_5  and  C_6
REMARK    5  A    between atoms: C_13  and  S_14
REMARK    6  A    between atoms: S_14  and  N_17
REMARK    7  A    between atoms: N_17  and  C_18
REMARK                            x       y       z     vdW  Elec       q    Type
REMARK                         _______ _______ _______ _____ _____    ______ ____
ROOT
ATOM      1  C   UNL     1       4.122   5.094  17.802  0.00  0.00    +0.000 C 
ATOM      2  O   UNL     1       4.500   3.929  17.986  0.00  0.00    +0.000 OA
ATOM      3  N   UNL     1       3.268   5.716  18.688  0.00  0.00    +0.000 N 
ATOM      4  C   UNL     1       2.908   5.022  19.936  0.00  0.00    +0.000 C 
ATOM      5  C   UNL     1       1.905   5.896  20.687  0.00  0.00    +0.000 C 
ATOM      6  C   UNL     1       1.941   7.158  19.886  0.00  0.00    +0.000 A 
ATOM      7  C   UNL     1       1.277   8.341  20.189  0.00  0.00    +0.000 A 
ATOM      8  C   UNL     1       1.372   9.402  19.287  0.00  0.00    +0.000 A 
ATOM      9  C   UNL     1       2.094   9.258  18.093  0.00  0.00    +0.000 A 
ATOM     10  C   UNL     1       2.753   8.054  17.802  0.00  0.00    +0.000 A 
ATOM     11  C   UNL     1       2.692   7.005  18.712  0.00  0.00    +0.000 A 
ENDROOT
BRANCH   8  12
ATOM     12  S   UNL     1       0.505  10.919  19.610  0.00  0.00    +0.000 S 
ATOM     13  O   UNL     1       0.598  11.169  21.030  0.00  0.00    +0.000 OA
ATOM     14  O   UNL     1       0.917  11.912  18.638  0.00  0.00    +0.000 OA
BRANCH  12  15
ATOM     15  N   UNL     1      -1.115  10.535  19.309  0.00  0.00    +0.000 NA
ATOM     16  H   UNL     1      -1.665  10.701  20.154  0.00  0.00    +0.000 HD
BRANCH  15  17
ATOM     17  C   UNL     1      -1.716  10.983  18.046  0.00  0.00    +0.000 C 
ATOM     18  C   UNL     1      -1.772   9.885  16.997  0.00  0.00    +0.000 C 
ATOM     19  C   UNL     1      -2.782  10.406  15.990  0.00  0.00    +0.000 C 
ATOM     20  C   UNL     1      -3.767  11.246  16.801  0.00  0.00    +0.000 C 
ATOM     21  C   UNL     1      -3.195  11.320  18.219  0.00  0.00    +0.000 C 
ENDBRANCH  15  17
ENDBRANCH  12  15
ENDBRANCH   8  12
BRANCH   1  22
ATOM     22  C   UNL     1       4.614   5.859  16.596  0.00  0.00    +0.000 C 
BRANCH  22  23
ATOM     23  C   UNL     1       5.625   5.070  15.768  0.00  0.00    +0.000 C 
BRANCH  23  25
ATOM     24  O   UNL     1       7.796   4.429  16.638  0.00  0.00    +0.000 OA
ATOM     25  C   UNL     1       7.022   5.306  16.283  0.00  0.00    +0.000 C 
BRANCH  25  26
ATOM     26  O   UNL     1       7.353   6.616  16.316  0.00  0.00    +0.000 OA
ATOM     27  H   UNL     1       7.538   6.954  17.214  0.00  0.00    +0.000 HD
ENDBRANCH  25  26
ENDBRANCH  23  25
ENDBRANCH  22  23
ENDBRANCH   1  22
TORSDOF 7
ENDMDL
MODEL 6
REMARK VINA RESULT:      -7.9      3.031      4.859
REMARK  Name = 
REMARK  7 active torsions:
REMARK  status: ('A' for Active; 'I' for Inactive)
REMARK    1  A    between atoms: C_2  and  O_3
REMARK    2  A    between atoms: C_2  and  C_4
REMARK    3  A    between atoms: C_4  and  C_5
REMARK    4  A    between atoms: C_5  and  C_6
REMARK    5  A    between atoms: C_13  and  S_14
REMARK    6  A    between atoms: S_14  and  N_17
REMARK    7  A    between atoms: N_17  and  C_18
REMARK                            x       y       z     vdW  Elec       q    Type
REMARK                         _______ _______ _______ _____ _____    ______ ____
ROOT
ATOM      1  C   UNL     1       3.941   3.707  17.710  0.00  0.00    +0.000 C 
ATOM      2  O   UNL     1       4.215   2.518  17.497  0.00  0.00    +0.000 OA
ATOM      3  N   UNL     1       3.126   4.075  18.759  0.00  0.00    +0.000 N 
ATOM      4  C   UNL     1       2.686   3.044  19.714  0.00  0.00    +0.000 C 
ATOM      5  C   UNL     1       1.747   3.707  20.721  0.00  0.00    +0.000 C 
ATOM      6  C   UNL     1       1.905   5.154  20.378  0.00  0.00    +0.000 A 
ATOM      7  C   UNL     1       1.337   6.225  21.059  0.00  0.00    +0.000 A 
ATOM      8  C   UNL     1       1.539   7.510  20.554  0.00  0.00    +0.000 A 
ATOM      9  C   UNL     1       2.267   7.704  19.371  0.00  0.00    +0.000 A 
ATOM     10  C   UNL     1       2.827   6.609  18.695  0.00  0.00    +0.000 A 
ATOM     11  C   UNL     1       2.661   5.330  19.211  0.00  0.00    +0.000 A 
ENDROOT
BRANCH   8  12
ATOM     12  S   UNL     1       0.797   8.907  21.366  0.00  0.00    +0.000 S 
ATOM     13  O   UNL     1      -0.539   8.514  21.752  0.00  0.00    +0.000 OA
ATOM     14  O   UNL     1       1.737   9.444  22.328  0.00  0.00    +0.000 OA
BRANCH  12  15
ATOM     15  N   UNL     1       0.608  10.045  20.129  0.00  0.00    +0.000 NA
ATOM     16  H   UNL     1       1.409   9.993  19.495  0.00  0.00    +0.000 HD
BRANCH  15  17
ATOM     17  C   UNL     1      -0.711  10.177  19.496  0.00  0.00    +0.000 C 
ATOM     18  C   UNL     1      -1.273  11.586  19.593  0.00  0.00    +0.000 C 
ATOM     19  C   UNL     1      -2.369  11.605  18.542  0.00  0.00    +0.000 C 
ATOM     20  C   UNL     1      -1.898  10.650  17.448  0.00  0.00    +0.000 C 
ATOM     21  C   UNL     1      -0.628   9.983  17.984  0.00  0.00    +0.000 C 
ENDBRANCH  15  17
ENDBRANCH  12  15
ENDBRANCH   8  12
BRANCH   1  22
ATOM     22  C   UNL     1       4.517   4.779  16.816  0.00  0.00    +0.000 C 
BRANCH  22  23
ATOM     23  C   UNL     1       5.798   4.337  16.112  0.00  0.00    +0.000 C 
BRANCH  23  25
ATOM     24  O   UNL     1       7.492   4.400  17.845  0.00  0.00    +0.000 OA
ATOM     25  C   UNL     1       7.006   4.880  16.832  0.00  0.00    +0.000 C 
BRANCH  25  26
ATOM     26  O   UNL     1       7.520   5.978  16.236  0.00  0.00    +0.000 OA
ATOM     27  H   UNL     1       7.039   6.802  16.445  0.00  0.00    +0.000 HD
ENDBRANCH  25  26
ENDBRANCH  23  25
ENDBRANCH  22  23
ENDBRANCH   1  22
TORSDOF 7
ENDMDL
MODEL 7
REMARK VINA RESULT:      -7.9      2.939      4.466
REMARK  Name = 
REMARK  7 active torsions:
REMARK  status: ('A' for Active; 'I' for Inactive)
REMARK    1  A    between atoms: C_2  and  O_3
REMARK    2  A    between atoms: C_2  and  C_4
REMARK    3  A    between atoms: C_4  and  C_5
REMARK    4  A    between atoms: C_5  and  C_6
REMARK    5  A    between atoms: C_13  and  S_14
REMARK    6  A    between atoms: S_14  and  N_17
REMARK    7  A    between atoms: N_17  and  C_18
REMARK                            x       y       z     vdW  Elec       q    Type
REMARK                         _______ _______ _______ _____ _____    ______ ____
ROOT
ATOM      1  C   UNL     1       4.150   3.992  17.430  0.00  0.00    +0.000 C 
ATOM      2  O   UNL     1       4.483   2.826  17.176  0.00  0.00    +0.000 OA
ATOM      3  N   UNL     1       3.333   4.283  18.503  0.00  0.00    +0.000 N 
ATOM      4  C   UNL     1       2.964   3.201  19.430  0.00  0.00    +0.000 C 
ATOM      5  C   UNL     1       2.007   3.782  20.471  0.00  0.00    +0.000 C 
ATOM      6  C   UNL     1       2.083   5.244  20.172  0.00  0.00    +0.000 A 
ATOM      7  C   UNL     1       1.470   6.262  20.894  0.00  0.00    +0.000 A 
ATOM      8  C   UNL     1       1.595   7.571  20.428  0.00  0.00    +0.000 A 
ATOM      9  C   UNL     1       2.294   7.840  19.241  0.00  0.00    +0.000 A 
ATOM     10  C   UNL     1       2.900   6.798  18.522  0.00  0.00    +0.000 A 
ATOM     11  C   UNL     1       2.810   5.497  19.000  0.00  0.00    +0.000 A 
ENDROOT
BRANCH   8  12
ATOM     12  S   UNL     1       0.794   8.901  21.294  0.00  0.00    +0.000 S 
ATOM     13  O   UNL     1      -0.530   8.441  21.647  0.00  0.00    +0.000 OA
ATOM     14  O   UNL     1       1.704   9.428  22.290  0.00  0.00    +0.000 OA
BRANCH  12  15
ATOM     15  N   UNL     1       0.575  10.087  20.108  0.00  0.00    +0.000 NA
ATOM     16  H   UNL     1       1.386  10.099  19.487  0.00  0.00    +0.000 HD
BRANCH  15  17
ATOM     17  C   UNL     1      -0.740  10.192  19.460  0.00  0.00    +0.000 C 
ATOM     18  C   UNL     1      -1.295  11.607  19.479  0.00  0.00    +0.000 C 
ATOM     19  C   UNL     1      -2.384  11.576  18.421  0.00  0.00    +0.000 C 
ATOM     20  C   UNL     1      -1.910  10.563  17.382  0.00  0.00    +0.000 C 
ATOM     21  C   UNL     1      -0.648   9.918  17.961  0.00  0.00    +0.000 C 
ENDBRANCH  15  17
ENDBRANCH  12  15
ENDBRANCH   8  12
BRANCH   1  22
ATOM     22  C   UNL     1       4.655   5.120  16.563  0.00  0.00    +0.000 C 
BRANCH  22  23
ATOM     23  C   UNL     1       6.177   5.230  16.562  0.00  0.00    +0.000 C 
BRANCH  23  25
ATOM     24  O   UNL     1       7.543   5.375  14.563  0.00  0.00    +0.000 OA
ATOM     25  C   UNL     1       6.736   4.758  15.244  0.00  0.00    +0.000 C 
BRANCH  25  26
ATOM     26  O   UNL     1       6.251   3.553  14.872  0.00  0.00    +0.000 OA
ATOM     27  H   UNL     1       6.439   2.837  15.510  0.00  0.00    +0.000 HD
ENDBRANCH  25  26
ENDBRANCH  23  25
ENDBRANCH  22  23
ENDBRANCH   1  22
TORSDOF 7
ENDMDL
MODEL 8
REMARK VINA RESULT:      -7.6      3.765      5.333
REMARK  Name = 
REMARK  7 active torsions:
REMARK  status: ('A' for Active; 'I' for Inactive)
REMARK    1  A    between atoms: C_2  and  O_3
REMARK    2  A    between atoms: C_2  and  C_4
REMARK    3  A    between atoms: C_4  and  C_5
REMARK    4  A    between atoms: C_5  and  C_6
REMARK    5  A    between atoms: C_13  and  S_14
REMARK    6  A    between atoms: S_14  and  N_17
REMARK    7  A    between atoms: N_17  and  C_18
REMARK                            x       y       z     vdW  Elec       q    Type
REMARK                         _______ _______ _______ _____ _____    ______ ____
ROOT
ATOM      1  C   UNL     1       4.424   4.723  17.693  0.00  0.00    +0.000 C 
ATOM      2  O   UNL     1       4.826   3.564  17.863  0.00  0.00    +0.000 OA
ATOM      3  N   UNL     1       3.550   5.312  18.582  0.00  0.00    +0.000 N 
ATOM      4  C   UNL     1       3.198   4.593  19.818  0.00  0.00    +0.000 C 
ATOM      5  C   UNL     1       2.170   5.434  20.574  0.00  0.00    +0.000 C 
ATOM      6  C   UNL     1       2.184   6.708  19.792  0.00  0.00    +0.000 A 
ATOM      7  C   UNL     1       1.491   7.871  20.107  0.00  0.00    +0.000 A 
ATOM      8  C   UNL     1       1.569   8.947  19.221  0.00  0.00    +0.000 A 
ATOM      9  C   UNL     1       2.302   8.836  18.030  0.00  0.00    +0.000 A 
ATOM     10  C   UNL     1       2.989   7.651  17.726  0.00  0.00    +0.000 A 
ATOM     11  C   UNL     1       2.946   6.588  18.621  0.00  0.00    +0.000 A 
ENDROOT
BRANCH   8  12
ATOM     12  S   UNL     1       0.666  10.440  19.560  0.00  0.00    +0.000 S 
ATOM     13  O   UNL     1      -0.703  10.210  19.157  0.00  0.00    +0.000 OA
ATOM     14  O   UNL     1       0.996  10.896  20.894  0.00  0.00    +0.000 OA
BRANCH  12  15
ATOM     15  N   UNL     1       1.295  11.556  18.456  0.00  0.00    +0.000 NA
ATOM     16  H   UNL     1       0.756  11.516  17.588  0.00  0.00    +0.000 HD
BRANCH  15  17
ATOM     17  C   UNL     1       1.642  12.899  18.941  0.00  0.00    +0.000 C 
ATOM     18  C   UNL     1       2.729  13.563  18.111  0.00  0.00    +0.000 C 
ATOM     19  C   UNL     1       2.617  15.030  18.488  0.00  0.00    +0.000 C 
ATOM     20  C   UNL     1       1.140  15.256  18.805  0.00  0.00    +0.000 C 
ATOM     21  C   UNL     1       0.481  13.875  18.766  0.00  0.00    +0.000 C 
ENDBRANCH  15  17
ENDBRANCH  12  15
ENDBRANCH   8  12
BRANCH   1  22
ATOM     22  C   UNL     1       4.906   5.516  16.501  0.00  0.00    +0.000 C 
BRANCH  22  23
ATOM     23  C   UNL     1       5.606   4.648  15.459  0.00  0.00    +0.000 C 
BRANCH  23  25
ATOM     24  O   UNL     1       7.794   4.474  16.490  0.00  0.00    +0.000 OA
ATOM     25  C   UNL     1       7.100   4.825  15.547  0.00  0.00    +0.000 C 
BRANCH  25  26
ATOM     26  O   UNL     1       7.621   5.425  14.454  0.00  0.00    +0.000 OA
ATOM     27  H   UNL     1       8.563   5.669  14.548  0.00  0.00    +0.000 HD
ENDBRANCH  25  26
ENDBRANCH  23  25
ENDBRANCH  22  23
ENDBRANCH   1  22
TORSDOF 7
ENDMDL
MODEL 9
REMARK VINA RESULT:      -7.6      3.826      5.574
REMARK  Name = 
REMARK  7 active torsions:
REMARK  status: ('A' for Active; 'I' for Inactive)
REMARK    1  A    between atoms: C_2  and  O_3
REMARK    2  A    between atoms: C_2  and  C_4
REMARK    3  A    between atoms: C_4  and  C_5
REMARK    4  A    between atoms: C_5  and  C_6
REMARK    5  A    between atoms: C_13  and  S_14
REMARK    6  A    between atoms: S_14  and  N_17
REMARK    7  A    between atoms: N_17  and  C_18
REMARK                            x       y       z     vdW  Elec       q    Type
REMARK                         _______ _______ _______ _____ _____    ______ ____
ROOT
ATOM      1  C   UNL     1       4.582   4.838  17.693  0.00  0.00    +0.000 C 
ATOM      2  O   UNL     1       5.030   3.697  17.871  0.00  0.00    +0.000 OA
ATOM      3  N   UNL     1       3.682   5.397  18.576  0.00  0.00    +0.000 N 
ATOM      4  C   UNL     1       3.355   4.671  19.814  0.00  0.00    +0.000 C 
ATOM      5  C   UNL     1       2.292   5.475  20.563  0.00  0.00    +0.000 C 
ATOM      6  C   UNL     1       2.257   6.743  19.773  0.00  0.00    +0.000 A 
ATOM      7  C   UNL     1       1.517   7.880  20.078  0.00  0.00    +0.000 A 
ATOM      8  C   UNL     1       1.554   8.952  19.187  0.00  0.00    +0.000 A 
ATOM      9  C   UNL     1       2.295   8.864  17.999  0.00  0.00    +0.000 A 
ATOM     10  C   UNL     1       3.030   7.706  17.704  0.00  0.00    +0.000 A 
ATOM     11  C   UNL     1       3.027   6.648  18.605  0.00  0.00    +0.000 A 
ENDROOT
BRANCH   8  12
ATOM     12  S   UNL     1       0.591  10.410  19.513  0.00  0.00    +0.000 S 
ATOM     13  O   UNL     1      -0.412  10.047  20.489  0.00  0.00    +0.000 OA
ATOM     14  O   UNL     1       1.487  11.527  19.729  0.00  0.00    +0.000 OA
BRANCH  12  15
ATOM     15  N   UNL     1      -0.243  10.681  18.067  0.00  0.00    +0.000 NA
ATOM     16  H   UNL     1       0.289  10.283  17.290  0.00  0.00    +0.000 HD
BRANCH  15  17
ATOM     17  C   UNL     1      -1.694  10.452  18.043  0.00  0.00    +0.000 C 
ATOM     18  C   UNL     1      -2.496  11.729  18.235  0.00  0.00    +0.000 C 
ATOM     19  C   UNL     1      -3.885  11.353  17.750  0.00  0.00    +0.000 C 
ATOM     20  C   UNL     1      -3.664  10.311  16.655  0.00  0.00    +0.000 C 
ATOM     21  C   UNL     1      -2.166   9.997  16.664  0.00  0.00    +0.000 C 
ENDBRANCH  15  17
ENDBRANCH  12  15
ENDBRANCH   8  12
BRANCH   1  22
ATOM     22  C   UNL     1       5.036   5.643  16.498  0.00  0.00    +0.000 C 
BRANCH  22  23
ATOM     23  C   UNL     1       6.553   5.638  16.324  0.00  0.00    +0.000 C 
BRANCH  23  25
ATOM     24  O   UNL     1       7.574   6.142  18.464  0.00  0.00    +0.000 OA
ATOM     25  C   UNL     1       7.203   6.517  17.361  0.00  0.00    +0.000 C 
BRANCH  25  26
ATOM     26  O   UNL     1       7.343   7.796  16.949  0.00  0.00    +0.000 OA
ATOM     27  H   UNL     1       6.547   8.345  17.087  0.00  0.00    +0.000 HD
ENDBRANCH  25  26
ENDBRANCH  23  25
ENDBRANCH  22  23
ENDBRANCH   1  22
TORSDOF 7
ENDMDL
