MODEL 1
REMARK VINA RESULT:      -7.4      0.000      0.000
REMARK  Name = 
REMARK  8 active torsions:
REMARK  status: ('A' for Active; 'I' for Inactive)
REMARK    1  A    between atoms: C_1  and  S_2
REMARK    2  A    between atoms: S_2  and  C_3
REMARK    3  A    between atoms: C_5  and  C_6
REMARK    4  A    between atoms: C_8  and  S_9
REMARK    5  A    between atoms: S_9  and  C_10
REMARK    6  A    between atoms: C_10  and  C_11
REMARK    7  A    between atoms: N_13  and  N_14
REMARK    8  A    between atoms: C_15  and  C_16
REMARK                            x       y       z     vdW  Elec       q    Type
REMARK                         _______ _______ _______ _____ _____    ______ ____
ROOT
ATOM      1  C   UNL     1       7.400   6.624  17.732  0.00  0.00    +0.000 C 
ATOM      2  O   UNL     1       7.839   6.041  18.723  0.00  0.00    +0.000 OA
ATOM      3  N   UNL     1       7.668   7.944  17.395  0.00  0.00    +0.000 N 
ATOM      4  H   UNL     1       7.359   8.331  16.508  0.00  0.00    +0.000 HD
ENDROOT
BRANCH   3   5
ATOM      5  N   UNL     1       8.495   8.664  18.199  0.00  0.00    +0.000 NA
ATOM      6  C   UNL     1       8.621   9.927  17.947  0.00  0.00    +0.000 C 
BRANCH   6   7
ATOM      7  C   UNL     1       9.514  10.769  18.773  0.00  0.00    +0.000 A 
ATOM      8  C   UNL     1      10.591  11.441  18.181  0.00  0.00    +0.000 A 
ATOM      9  C   UNL     1      11.430  12.237  18.959  0.00  0.00    +0.000 A 
ATOM     10  C   UNL     1      11.196  12.364  20.327  0.00  0.00    +0.000 A 
ATOM     11  C   UNL     1      10.123  11.695  20.919  0.00  0.00    +0.000 A 
ATOM     12  C   UNL     1       9.277  10.897  20.144  0.00  0.00    +0.000 A 
ENDBRANCH   6   7
ENDBRANCH   3   5
BRANCH   1  13
ATOM     13  C   UNL     1       6.440   5.924  16.796  0.00  0.00    +0.000 C 
BRANCH  13  14
ATOM     14  S   UNL     1       4.807   6.712  16.743  0.00  0.00    +0.000 S 
BRANCH  14  20
ATOM     15  C   UNL     1       3.731   4.115  19.420  0.00  0.00    +0.000 A 
ATOM     16  N   UNL     1       2.772   4.658  20.182  0.00  0.00    +0.000 NA
ATOM     17  C   UNL     1       2.414   5.925  19.905  0.00  0.00    +0.000 A 
ATOM     18  C   UNL     1       1.354   6.538  20.771  0.00  0.00    +0.000 C 
ATOM     19  C   UNL     1       2.988   6.647  18.877  0.00  0.00    +0.000 A 
ATOM     20  C   UNL     1       3.966   6.004  18.148  0.00  0.00    +0.000 A 
ATOM     21  N   UNL     1       4.342   4.740  18.405  0.00  0.00    +0.000 NA
BRANCH  15  23
ATOM     22  C   UNL     1       3.457   1.567  18.425  0.00  0.00    +0.000 C 
ATOM     23  S   UNL     1       4.208   2.449  19.814  0.00  0.00    +0.000 S 
ENDBRANCH  15  23
ENDBRANCH  14  20
ENDBRANCH  13  14
ENDBRANCH   1  13
TORSDOF 6
ENDMDL
MODEL 2
REMARK VINA RESULT:      -7.4      1.267      1.339
REMARK  Name = 
REMARK  8 active torsions:
REMARK  status: ('A' for Active; 'I' for Inactive)
REMARK    1  A    between atoms: C_1  and  S_2
REMARK    2  A    between atoms: S_2  and  C_3
REMARK    3  A    between atoms: C_5  and  C_6
REMARK    4  A    between atoms: C_8  and  S_9
REMARK    5  A    between atoms: S_9  and  C_10
REMARK    6  A    between atoms: C_10  and  C_11
REMARK    7  A    between atoms: N_13  and  N_14
REMARK    8  A    between atoms: C_15  and  C_16
REMARK                            x       y       z     vdW  Elec       q    Type
REMARK                         _______ _______ _______ _____ _____    ______ ____
ROOT
ATOM      1  C   UNL     1       7.282   6.767  17.652  0.00  0.00    +0.000 C 
ATOM      2  O   UNL     1       7.827   6.112  18.540  0.00  0.00    +0.000 OA
ATOM      3  N   UNL     1       7.532   8.104  17.375  0.00  0.00    +0.000 N 
ATOM      4  H   UNL     1       7.125   8.555  16.560  0.00  0.00    +0.000 HD
ENDROOT
BRANCH   3   5
ATOM      5  N   UNL     1       8.466   8.757  18.116  0.00  0.00    +0.000 NA
ATOM      6  C   UNL     1       8.538  10.043  17.987  0.00  0.00    +0.000 C 
BRANCH   6   7
ATOM      7  C   UNL     1       9.539  10.817  18.754  0.00  0.00    +0.000 A 
ATOM      8  C   UNL     1      10.651  11.366  18.102  0.00  0.00    +0.000 A 
ATOM      9  C   UNL     1      11.592  12.098  18.824  0.00  0.00    +0.000 A 
ATOM     10  C   UNL     1      11.425  12.284  20.196  0.00  0.00    +0.000 A 
ATOM     11  C   UNL     1      10.317  11.738  20.846  0.00  0.00    +0.000 A 
ATOM     12  C   UNL     1       9.369  11.004  20.128  0.00  0.00    +0.000 A 
ENDBRANCH   6   7
ENDBRANCH   3   5
BRANCH   1  13
ATOM     13  C   UNL     1       6.201   6.144  16.798  0.00  0.00    +0.000 C 
BRANCH  13  14
ATOM     14  S   UNL     1       5.655   4.530  17.420  0.00  0.00    +0.000 S 
BRANCH  14  20
ATOM     15  C   UNL     1       2.338   4.045  19.375  0.00  0.00    +0.000 A 
ATOM     16  N   UNL     1       1.852   5.250  19.700  0.00  0.00    +0.000 NA
ATOM     17  C   UNL     1       2.578   6.322  19.333  0.00  0.00    +0.000 A 
ATOM     18  C   UNL     1       2.043   7.670  19.715  0.00  0.00    +0.000 C 
ATOM     19  C   UNL     1       3.767   6.207  18.640  0.00  0.00    +0.000 A 
ATOM     20  C   UNL     1       4.186   4.925  18.350  0.00  0.00    +0.000 A 
ATOM     21  N   UNL     1       3.479   3.838  18.706  0.00  0.00    +0.000 NA
BRANCH  15  23
ATOM     22  C   UNL     1       1.755   2.624  21.656  0.00  0.00    +0.000 C 
ATOM     23  S   UNL     1       1.378   2.639  19.887  0.00  0.00    +0.000 S 
ENDBRANCH  15  23
ENDBRANCH  14  20
ENDBRANCH  13  14
ENDBRANCH   1  13
TORSDOF 6
ENDMDL
MODEL 3
REMARK VINA RESULT:      -7.3      1.469      2.451
REMARK  Name = 
REMARK  8 active torsions:
REMARK  status: ('A' for Active; 'I' for Inactive)
REMARK    1  A    between atoms: C_1  and  S_2
REMARK    2  A    between atoms: S_2  and  C_3
REMARK    3  A    between atoms: C_5  and  C_6
REMARK    4  A    between atoms: C_8  and  S_9
REMARK    5  A    between atoms: S_9  and  C_10
REMARK    6  A    between atoms: C_10  and  C_11
REMARK    7  A    between atoms: N_13  and  N_14
REMARK    8  A    between atoms: C_15  and  C_16
REMARK                            x       y       z     vdW  Elec       q    Type
REMARK                         _______ _______ _______ _____ _____    ______ ____
ROOT
ATOM      1  C   UNL     1       7.160   6.790  17.707  0.00  0.00    +0.000 C 
ATOM      2  O   UNL     1       7.619   6.211  18.692  0.00  0.00    +0.000 OA
ATOM      3  N   UNL     1       7.548   8.049  17.267  0.00  0.00    +0.000 N 
ATOM      4  H   UNL     1       7.206   8.423  16.386  0.00  0.00    +0.000 HD
ENDROOT
BRANCH   3   5
ATOM      5  N   UNL     1       8.524   8.703  17.949  0.00  0.00    +0.000 NA
ATOM      6  C   UNL     1       8.427   9.990  18.042  0.00  0.00    +0.000 C 
BRANCH   6   7
ATOM      7  C   UNL     1       9.460  10.769  18.760  0.00  0.00    +0.000 A 
ATOM      8  C   UNL     1      10.536  11.323  18.056  0.00  0.00    +0.000 A 
ATOM      9  C   UNL     1      11.508  12.060  18.732  0.00  0.00    +0.000 A 
ATOM     10  C   UNL     1      11.407  12.244  20.110  0.00  0.00    +0.000 A 
ATOM     11  C   UNL     1      10.334  11.692  20.813  0.00  0.00    +0.000 A 
ATOM     12  C   UNL     1       9.356  10.954  20.141  0.00  0.00    +0.000 A 
ENDBRANCH   6   7
ENDBRANCH   3   5
BRANCH   1  13
ATOM     13  C   UNL     1       6.043   6.164  16.903  0.00  0.00    +0.000 C 
BRANCH  13  14
ATOM     14  S   UNL     1       5.757   4.424  17.332  0.00  0.00    +0.000 S 
BRANCH  14  20
ATOM     15  C   UNL     1       2.578   5.712  19.148  0.00  0.00    +0.000 A 
ATOM     16  N   UNL     1       1.696   4.707  19.232  0.00  0.00    +0.000 NA
ATOM     17  C   UNL     1       2.052   3.533  18.681  0.00  0.00    +0.000 A 
ATOM     18  C   UNL     1       1.056   2.414  18.759  0.00  0.00    +0.000 C 
ATOM     19  C   UNL     1       3.273   3.347  18.062  0.00  0.00    +0.000 A 
ATOM     20  C   UNL     1       4.114   4.439  18.026  0.00  0.00    +0.000 A 
ATOM     21  N   UNL     1       3.782   5.623  18.568  0.00  0.00    +0.000 NA
BRANCH  15  23
ATOM     22  C   UNL     1       2.153   8.323  18.398  0.00  0.00    +0.000 C 
ATOM     23  S   UNL     1       2.083   7.262  19.862  0.00  0.00    +0.000 S 
ENDBRANCH  15  23
ENDBRANCH  14  20
ENDBRANCH  13  14
ENDBRANCH   1  13
TORSDOF 6
ENDMDL
MODEL 4
REMARK VINA RESULT:      -7.3      1.296      1.816
REMARK  Name = 
REMARK  8 active torsions:
REMARK  status: ('A' for Active; 'I' for Inactive)
REMARK    1  A    between atoms: C_1  and  S_2
REMARK    2  A    between atoms: S_2  and  C_3
REMARK    3  A    between atoms: C_5  and  C_6
REMARK    4  A    between atoms: C_8  and  S_9
REMARK    5  A    between atoms: S_9  and  C_10
REMARK    6  A    between atoms: C_10  and  C_11
REMARK    7  A    between atoms: N_13  and  N_14
REMARK    8  A    between atoms: C_15  and  C_16
REMARK                            x       y       z     vdW  Elec       q    Type
REMARK                         _______ _______ _______ _____ _____    ______ ____
ROOT
ATOM      1  C   UNL     1       7.589   6.918  17.834  0.00  0.00    +0.000 C 
ATOM      2  O   UNL     1       7.987   6.394  18.874  0.00  0.00    +0.000 OA
ATOM      3  N   UNL     1       7.771   8.251  17.488  0.00  0.00    +0.000 N 
ATOM      4  H   UNL     1       7.510   8.593  16.567  0.00  0.00    +0.000 HD
ENDROOT
BRANCH   3   5
ATOM      5  N   UNL     1       8.459   9.054  18.342  0.00  0.00    +0.000 NA
ATOM      6  C   UNL     1       8.857  10.200  17.891  0.00  0.00    +0.000 C 
BRANCH   6   7
ATOM      7  C   UNL     1       9.622  11.122  18.761  0.00  0.00    +0.000 A 
ATOM      8  C   UNL     1       9.306  11.226  20.121  0.00  0.00    +0.000 A 
ATOM      9  C   UNL     1      10.028  12.092  20.941  0.00  0.00    +0.000 A 
ATOM     10  C   UNL     1      11.067  12.853  20.405  0.00  0.00    +0.000 A 
ATOM     11  C   UNL     1      11.383  12.749  19.049  0.00  0.00    +0.000 A 
ATOM     12  C   UNL     1      10.663  11.882  18.222  0.00  0.00    +0.000 A 
ENDBRANCH   6   7
ENDBRANCH   3   5
BRANCH   1  13
ATOM     13  C   UNL     1       6.780   6.120  16.836  0.00  0.00    +0.000 C 
BRANCH  13  14
ATOM     14  S   UNL     1       5.921   4.713  17.594  0.00  0.00    +0.000 S 
BRANCH  14  20
ATOM     15  C   UNL     1       2.764   5.184  19.802  0.00  0.00    +0.000 A 
ATOM     16  N   UNL     1       2.137   6.305  19.419  0.00  0.00    +0.000 NA
ATOM     17  C   UNL     1       2.703   7.015  18.427  0.00  0.00    +0.000 A 
ATOM     18  C   UNL     1       2.011   8.279  18.012  0.00  0.00    +0.000 C 
ATOM     19  C   UNL     1       3.874   6.618  17.809  0.00  0.00    +0.000 A 
ATOM     20  C   UNL     1       4.445   5.451  18.271  0.00  0.00    +0.000 A 
ATOM     21  N   UNL     1       3.899   4.724  19.261  0.00  0.00    +0.000 NA
BRANCH  15  23
ATOM     22  C   UNL     1       2.729   2.636  20.833  0.00  0.00    +0.000 C 
ATOM     23  S   UNL     1       2.013   4.270  21.128  0.00  0.00    +0.000 S 
ENDBRANCH  15  23
ENDBRANCH  14  20
ENDBRANCH  13  14
ENDBRANCH   1  13
TORSDOF 6
ENDMDL
MODEL 5
REMARK VINA RESULT:      -7.2      1.780      2.825
REMARK  Name = 
REMARK  8 active torsions:
REMARK  status: ('A' for Active; 'I' for Inactive)
REMARK    1  A    between atoms: C_1  and  S_2
REMARK    2  A    between atoms: S_2  and  C_3
REMARK    3  A    between atoms: C_5  and  C_6
REMARK    4  A    between atoms: C_8  and  S_9
REMARK    5  A    between atoms: S_9  and  C_10
REMARK    6  A    between atoms: C_10  and  C_11
REMARK    7  A    between atoms: N_13  and  N_14
REMARK    8  A    between atoms: C_15  and  C_16
REMARK                            x       y       z     vdW  Elec       q    Type
REMARK                         _______ _______ _______ _____ _____    ______ ____
ROOT
ATOM      1  C   UNL     1       7.634   5.749  18.323  0.00  0.00    +0.000 C 
ATOM      2  O   UNL     1       7.972   5.539  19.488  0.00  0.00    +0.000 OA
ATOM      3  N   UNL     1       7.715   6.974  17.674  0.00  0.00    +0.000 N 
ATOM      4  H   UNL     1       7.519   7.053  16.680  0.00  0.00    +0.000 HD
ENDROOT
BRANCH   3   5
ATOM      5  N   UNL     1       8.226   8.035  18.352  0.00  0.00    +0.000 NA
ATOM      6  C   UNL     1       8.238   9.179  17.747  0.00  0.00    +0.000 C 
BRANCH   6   7
ATOM      7  C   UNL     1       8.790  10.376  18.420  0.00  0.00    +0.000 A 
ATOM      8  C   UNL     1       9.432  10.250  19.659  0.00  0.00    +0.000 A 
ATOM      9  C   UNL     1       9.954  11.377  20.292  0.00  0.00    +0.000 A 
ATOM     10  C   UNL     1       9.838  12.630  19.690  0.00  0.00    +0.000 A 
ATOM     11  C   UNL     1       9.199  12.756  18.455  0.00  0.00    +0.000 A 
ATOM     12  C   UNL     1       8.674  11.629  17.815  0.00  0.00    +0.000 A 
ENDBRANCH   6   7
ENDBRANCH   3   5
BRANCH   1  13
ATOM     13  C   UNL     1       7.018   4.643  17.495  0.00  0.00    +0.000 C 
BRANCH  13  14
ATOM     14  S   UNL     1       5.788   5.254  16.309  0.00  0.00    +0.000 S 
BRANCH  14  20
ATOM     15  C   UNL     1       2.725   6.211  18.492  0.00  0.00    +0.000 A 
ATOM     16  N   UNL     1       1.980   5.116  18.688  0.00  0.00    +0.000 NA
ATOM     17  C   UNL     1       2.398   3.978  18.105  0.00  0.00    +0.000 A 
ATOM     18  C   UNL     1       1.553   2.756  18.310  0.00  0.00    +0.000 C 
ATOM     19  C   UNL     1       3.549   3.918  17.343  0.00  0.00    +0.000 A 
ATOM     20  C   UNL     1       4.250   5.097  17.198  0.00  0.00    +0.000 A 
ATOM     21  N   UNL     1       3.852   6.247  17.770  0.00  0.00    +0.000 NA
BRANCH  15  23
ATOM     22  C   UNL     1       2.146   8.813  17.818  0.00  0.00    +0.000 C 
ATOM     23  S   UNL     1       2.146   7.710  19.251  0.00  0.00    +0.000 S 
ENDBRANCH  15  23
ENDBRANCH  14  20
ENDBRANCH  13  14
ENDBRANCH   1  13
TORSDOF 6
ENDMDL
MODEL 6
REMARK VINA RESULT:      -7.2      1.384      1.534
REMARK  Name = 
REMARK  8 active torsions:
REMARK  status: ('A' for Active; 'I' for Inactive)
REMARK    1  A    between atoms: C_1  and  S_2
REMARK    2  A    between atoms: S_2  and  C_3
REMARK    3  A    between atoms: C_5  and  C_6
REMARK    4  A    between atoms: C_8  and  S_9
REMARK    5  A    between atoms: S_9  and  C_10
REMARK    6  A    between atoms: C_10  and  C_11
REMARK    7  A    between atoms: N_13  and  N_14
REMARK    8  A    between atoms: C_15  and  C_16
REMARK                            x       y       z     vdW  Elec       q    Type
REMARK                         _______ _______ _______ _____ _____    ______ ____
ROOT
ATOM      1  C   UNL     1       7.590   7.041  17.804  0.00  0.00    +0.000 C 
ATOM      2  O   UNL     1       7.900   6.571  18.899  0.00  0.00    +0.000 OA
ATOM      3  N   UNL     1       7.811   8.352  17.404  0.00  0.00    +0.000 N 
ATOM      4  H   UNL     1       7.627   8.645  16.448  0.00  0.00    +0.000 HD
ENDROOT
BRANCH   3   5
ATOM      5  N   UNL     1       8.436   9.197  18.265  0.00  0.00    +0.000 NA
ATOM      6  C   UNL     1       8.886  10.312  17.786  0.00  0.00    +0.000 C 
BRANCH   6   7
ATOM      7  C   UNL     1       9.589  11.274  18.663  0.00  0.00    +0.000 A 
ATOM      8  C   UNL     1      10.117  12.456  18.128  0.00  0.00    +0.000 A 
ATOM      9  C   UNL     1      10.776  13.364  18.955  0.00  0.00    +0.000 A 
ATOM     10  C   UNL     1      10.908  13.095  20.317  0.00  0.00    +0.000 A 
ATOM     11  C   UNL     1      10.382  11.918  20.852  0.00  0.00    +0.000 A 
ATOM     12  C   UNL     1       9.719  11.004  20.028  0.00  0.00    +0.000 A 
ENDBRANCH   6   7
ENDBRANCH   3   5
BRANCH   1  13
ATOM     13  C   UNL     1       6.855   6.194  16.789  0.00  0.00    +0.000 C 
BRANCH  13  14
ATOM     14  S   UNL     1       6.058   4.742  17.530  0.00  0.00    +0.000 S 
BRANCH  14  20
ATOM     15  C   UNL     1       2.758   4.964  19.561  0.00  0.00    +0.000 A 
ATOM     16  N   UNL     1       2.156   6.125  19.274  0.00  0.00    +0.000 NA
ATOM     17  C   UNL     1       2.786   6.946  18.414  0.00  0.00    +0.000 A 
ATOM     18  C   UNL     1       2.120   8.254  18.108  0.00  0.00    +0.000 C 
ATOM     19  C   UNL     1       3.996   6.619  17.833  0.00  0.00    +0.000 A 
ATOM     20  C   UNL     1       4.538   5.402  18.190  0.00  0.00    +0.000 A 
ATOM     21  N   UNL     1       3.929   4.565  19.047  0.00  0.00    +0.000 NA
BRANCH  15  23
ATOM     22  C   UNL     1       0.945   2.897  19.574  0.00  0.00    +0.000 C 
ATOM     23  S   UNL     1       1.923   3.903  20.716  0.00  0.00    +0.000 S 
ENDBRANCH  15  23
ENDBRANCH  14  20
ENDBRANCH  13  14
ENDBRANCH   1  13
TORSDOF 6
ENDMDL
MODEL 7
REMARK VINA RESULT:      -7.1      1.776      2.923
REMARK  Name = 
REMARK  8 active torsions:
REMARK  status: ('A' for Active; 'I' for Inactive)
REMARK    1  A    between atoms: C_1  and  S_2
REMARK    2  A    between atoms: S_2  and  C_3
REMARK    3  A    between atoms: C_5  and  C_6
REMARK    4  A    between atoms: C_8  and  S_9
REMARK    5  A    between atoms: S_9  and  C_10
REMARK    6  A    between atoms: C_10  and  C_11
REMARK    7  A    between atoms: N_13  and  N_14
REMARK    8  A    between atoms: C_15  and  C_16
REMARK                            x       y       z     vdW  Elec       q    Type
REMARK                         _______ _______ _______ _____ _____    ______ ____
ROOT
ATOM      1  C   UNL     1       7.355   5.680  18.626  0.00  0.00    +0.000 C 
ATOM      2  O   UNL     1       7.498   5.591  19.845  0.00  0.00    +0.000 OA
ATOM      3  N   UNL     1       7.652   6.802  17.864  0.00  0.00    +0.000 N 
ATOM      4  H   UNL     1       7.610   6.771  16.849  0.00  0.00    +0.000 HD
ENDROOT
BRANCH   3   5
ATOM      5  N   UNL     1       8.164   7.894  18.490  0.00  0.00    +0.000 NA
ATOM      6  C   UNL     1       8.234   8.993  17.810  0.00  0.00    +0.000 C 
BRANCH   6   7
ATOM      7  C   UNL     1       8.791  10.219  18.424  0.00  0.00    +0.000 A 
ATOM      8  C   UNL     1       9.479  10.143  19.642  0.00  0.00    +0.000 A 
ATOM      9  C   UNL     1      10.006  11.297  20.219  0.00  0.00    +0.000 A 
ATOM     10  C   UNL     1       9.849  12.528  19.582  0.00  0.00    +0.000 A 
ATOM     11  C   UNL     1       9.164  12.604  18.368  0.00  0.00    +0.000 A 
ATOM     12  C   UNL     1       8.634  11.450  17.784  0.00  0.00    +0.000 A 
ENDBRANCH   6   7
ENDBRANCH   3   5
BRANCH   1  13
ATOM     13  C   UNL     1       6.756   4.533  17.841  0.00  0.00    +0.000 C 
BRANCH  13  14
ATOM     14  S   UNL     1       5.437   5.064  16.715  0.00  0.00    +0.000 S 
BRANCH  14  20
ATOM     15  C   UNL     1       2.736   7.346  18.317  0.00  0.00    +0.000 A 
ATOM     16  N   UNL     1       2.247   6.734  19.403  0.00  0.00    +0.000 NA
ATOM     17  C   UNL     1       2.737   5.514  19.691  0.00  0.00    +0.000 A 
ATOM     18  C   UNL     1       2.175   4.821  20.897  0.00  0.00    +0.000 C 
ATOM     19  C   UNL     1       3.710   4.908  18.920  0.00  0.00    +0.000 A 
ATOM     20  C   UNL     1       4.152   5.616  17.822  0.00  0.00    +0.000 A 
ATOM     21  N   UNL     1       3.678   6.836  17.513  0.00  0.00    +0.000 NA
BRANCH  15  23
ATOM     22  C   UNL     1       1.211   9.308  19.494  0.00  0.00    +0.000 C 
ATOM     23  S   UNL     1       2.062   8.946  17.939  0.00  0.00    +0.000 S 
ENDBRANCH  15  23
ENDBRANCH  14  20
ENDBRANCH  13  14
ENDBRANCH   1  13
TORSDOF 6
ENDMDL
MODEL 8
REMARK VINA RESULT:      -7.1      1.902      3.133
REMARK  Name = 
REMARK  8 active torsions:
REMARK  status: ('A' for Active; 'I' for Inactive)
REMARK    1  A    between atoms: C_1  and  S_2
REMARK    2  A    between atoms: S_2  and  C_3
REMARK    3  A    between atoms: C_5  and  C_6
REMARK    4  A    between atoms: C_8  and  S_9
REMARK    5  A    between atoms: S_9  and  C_10
REMARK    6  A    between atoms: C_10  and  C_11
REMARK    7  A    between atoms: N_13  and  N_14
REMARK    8  A    between atoms: C_15  and  C_16
REMARK                            x       y       z     vdW  Elec       q    Type
REMARK                         _______ _______ _______ _____ _____    ______ ____
ROOT
ATOM      1  C   UNL     1       7.342   6.306  17.960  0.00  0.00    +0.000 C 
ATOM      2  O   UNL     1       7.922   5.828  18.934  0.00  0.00    +0.000 OA
ATOM      3  N   UNL     1       7.557   7.577  17.444  0.00  0.00    +0.000 N 
ATOM      4  H   UNL     1       7.121   7.869  16.573  0.00  0.00    +0.000 HD
ENDROOT
BRANCH   3   5
ATOM      5  N   UNL     1       8.493   8.367  18.033  0.00  0.00    +0.000 NA
ATOM      6  C   UNL     1       8.263   9.640  18.068  0.00  0.00    +0.000 C 
BRANCH   6   7
ATOM      7  C   UNL     1       9.244  10.561  18.683  0.00  0.00    +0.000 A 
ATOM      8  C   UNL     1       9.269  10.733  20.073  0.00  0.00    +0.000 A 
ATOM      9  C   UNL     1      10.195  11.600  20.652  0.00  0.00    +0.000 A 
ATOM     10  C   UNL     1      11.097  12.294  19.847  0.00  0.00    +0.000 A 
ATOM     11  C   UNL     1      11.073  12.122  18.461  0.00  0.00    +0.000 A 
ATOM     12  C   UNL     1      10.148  11.255  17.875  0.00  0.00    +0.000 A 
ENDBRANCH   6   7
ENDBRANCH   3   5
BRANCH   1  13
ATOM     13  C   UNL     1       6.255   5.523  17.258  0.00  0.00    +0.000 C 
BRANCH  13  14
ATOM     14  S   UNL     1       5.043   6.588  16.429  0.00  0.00    +0.000 S 
BRANCH  14  20
ATOM     15  C   UNL     1       2.233   8.270  18.512  0.00  0.00    +0.000 A 
ATOM     16  N   UNL     1       1.869   7.435  19.494  0.00  0.00    +0.000 NA
ATOM     17  C   UNL     1       2.490   6.243  19.545  0.00  0.00    +0.000 A 
ATOM     18  C   UNL     1       2.069   5.301  20.634  0.00  0.00    +0.000 C 
ATOM     19  C   UNL     1       3.471   5.881  18.641  0.00  0.00    +0.000 A 
ATOM     20  C   UNL     1       3.778   6.807  17.667  0.00  0.00    +0.000 A 
ATOM     21  N   UNL     1       3.171   8.005  17.594  0.00  0.00    +0.000 NA
BRANCH  15  23
ATOM     22  C   UNL     1       0.751   9.921  20.136  0.00  0.00    +0.000 C 
ATOM     23  S   UNL     1       1.387   9.832  18.446  0.00  0.00    +0.000 S 
ENDBRANCH  15  23
ENDBRANCH  14  20
ENDBRANCH  13  14
ENDBRANCH   1  13
TORSDOF 6
ENDMDL
MODEL 9
REMARK VINA RESULT:      -7.1      1.391      2.484
REMARK  Name = 
REMARK  8 active torsions:
REMARK  status: ('A' for Active; 'I' for Inactive)
REMARK    1  A    between atoms: C_1  and  S_2
REMARK    2  A    between atoms: S_2  and  C_3
REMARK    3  A    between atoms: C_5  and  C_6
REMARK    4  A    between atoms: C_8  and  S_9
REMARK    5  A    between atoms: S_9  and  C_10
REMARK    6  A    between atoms: C_10  and  C_11
REMARK    7  A    between atoms: N_13  and  N_14
REMARK    8  A    between atoms: C_15  and  C_16
REMARK                            x       y       z     vdW  Elec       q    Type
REMARK                         _______ _______ _______ _____ _____    ______ ____
ROOT
ATOM      1  C   UNL     1       7.225   6.661  17.620  0.00  0.00    +0.000 C 
ATOM      2  O   UNL     1       7.683   6.043  18.582  0.00  0.00    +0.000 OA
ATOM      3  N   UNL     1       7.551   7.967  17.279  0.00  0.00    +0.000 N 
ATOM      4  H   UNL     1       7.218   8.379  16.412  0.00  0.00    +0.000 HD
ENDROOT
BRANCH   3   5
ATOM      5  N   UNL     1       8.461   8.629  18.040  0.00  0.00    +0.000 NA
ATOM      6  C   UNL     1       8.460   9.922  17.982  0.00  0.00    +0.000 C 
BRANCH   6   7
ATOM      7  C   UNL     1       9.431  10.708  18.776  0.00  0.00    +0.000 A 
ATOM      8  C   UNL     1       9.220  10.905  20.146  0.00  0.00    +0.000 A 
ATOM      9  C   UNL     1      10.137  11.643  20.894  0.00  0.00    +0.000 A 
ATOM     10  C   UNL     1      11.263  12.184  20.276  0.00  0.00    +0.000 A 
ATOM     11  C   UNL     1      11.474  11.988  18.909  0.00  0.00    +0.000 A 
ATOM     12  C   UNL     1      10.559  11.248  18.155  0.00  0.00    +0.000 A 
ENDBRANCH   6   7
ENDBRANCH   3   5
BRANCH   1  13
ATOM     13  C   UNL     1       6.177   6.026  16.733  0.00  0.00    +0.000 C 
BRANCH  13  14
ATOM     14  S   UNL     1       4.486   6.485  17.204  0.00  0.00    +0.000 S 
BRANCH  14  20
ATOM     15  C   UNL     1       2.348   4.085  19.378  0.00  0.00    +0.000 A 
ATOM     16  N   UNL     1       2.699   2.823  19.097  0.00  0.00    +0.000 NA
ATOM     17  C   UNL     1       3.645   2.647  18.156  0.00  0.00    +0.000 A 
ATOM     18  C   UNL     1       4.025   1.234  17.827  0.00  0.00    +0.000 C 
ATOM     19  C   UNL     1       4.247   3.707  17.506  0.00  0.00    +0.000 A 
ATOM     20  C   UNL     1       3.819   4.968  17.864  0.00  0.00    +0.000 A 
ATOM     21  N   UNL     1       2.876   5.171  18.800  0.00  0.00    +0.000 NA
BRANCH  15  23
ATOM     22  C   UNL     1       1.395   2.849  21.642  0.00  0.00    +0.000 C 
ATOM     23  S   UNL     1       1.081   4.298  20.607  0.00  0.00    +0.000 S 
ENDBRANCH  15  23
ENDBRANCH  14  20
ENDBRANCH  13  14
ENDBRANCH   1  13
TORSDOF 6
ENDMDL
