MODEL 1
REMARK VINA RESULT:      -8.2      0.000      0.000
REMARK  Name = 
REMARK  13 active torsions:
REMARK  status: ('A' for Active; 'I' for Inactive)
REMARK    1  A    between atoms: C_8  and  C_9
REMARK    2  A    between atoms: C_9  and  N_10
REMARK    3  A    between atoms: N_10  and  C_11
REMARK    4  A    between atoms: C_14  and  C_15
REMARK    5  A    between atoms: N_17  and  CA_18
REMARK    6  A    between atoms: CA_18  and  C_19
REMARK    7  A    between atoms: CA_18  and  C_26
REMARK    8  A    between atoms: C_19  and  C_20
REMARK    9  A    between atoms: C_20  and  C_21
REMARK   10  A    between atoms: C_21  and  P_22
REMARK   11  A    between atoms: P_22  and  O_24
REMARK   12  A    between atoms: P_22  and  O_25
REMARK   13  A    between atoms: C_26  and  OXT_28
REMARK                            x       y       z     vdW  Elec       q    Type
REMARK                         _______ _______ _______ _____ _____    ______ ____
ROOT
ATOM      1  C   UNL     1       1.257   9.834  20.290  0.00  0.00    +0.000 A 
ATOM      2  C   UNL     1       1.024   8.887  21.289  0.00  0.00    +0.000 A 
ATOM      3  C   UNL     1       1.351   7.544  21.098  0.00  0.00    +0.000 A 
ATOM      4  C   UNL     1       1.893   7.111  19.885  0.00  0.00    +0.000 A 
ATOM      5  C   UNL     1       2.040   8.029  18.841  0.00  0.00    +0.000 A 
ATOM      6  C   UNL     1       1.706   9.377  19.045  0.00  0.00    +0.000 A 
ENDROOT
BRANCH   4   7
ATOM      7  C   UNL     1       2.263   5.672  19.789  0.00  0.00    +0.000 C 
ATOM      8  O   UNL     1       1.847   4.871  20.620  0.00  0.00    +0.000 OA
ATOM      9  N   UNL     1       3.106   5.302  18.769  0.00  0.00    +0.000 N 
ATOM     10  H   UNL     1       3.500   5.996  18.143  0.00  0.00    +0.000 HD
BRANCH   9  11
ATOM     11  CA  UNL     1       3.517   3.909  18.578  0.00  0.00    +0.000 C 
BRANCH  11  12
ATOM     12  C   UNL     1       4.888   3.770  19.246  0.00  0.00    +0.000 C 
ATOM     13  O   UNL     1       5.669   4.703  19.386  0.00  0.00    +0.000 OA
BRANCH  12  14
ATOM     14  OXT UNL     1       5.152   2.538  19.736  0.00  0.00    +0.000 OA
ATOM     15  HXT UNL     1       5.147   2.471  20.710  0.00  0.00    +0.000 HD
ENDBRANCH  12  14
ENDBRANCH  11  12
BRANCH  11  16
ATOM     16  C   UNL     1       3.601   3.560  17.084  0.00  0.00    +0.000 C 
BRANCH  16  17
ATOM     17  C   UNL     1       5.024   3.575  16.525  0.00  0.00    +0.000 C 
BRANCH  17  18
ATOM     18  C   UNL     1       5.375   4.956  15.973  0.00  0.00    +0.000 C 
BRANCH  18  19
ATOM     19  P   UNL     1       7.129   5.233  15.792  0.00  0.00    +0.000 P 
ATOM     20  O   UNL     1       7.658   5.253  14.403  0.00  0.00    +0.000 OA
BRANCH  19  21
ATOM     21  O   UNL     1       7.434   6.550  16.643  0.00  0.00    +0.000 OA
ATOM     22  H   UNL     1       6.887   6.682  17.439  0.00  0.00    +0.000 HD
ENDBRANCH  19  21
BRANCH  19  23
ATOM     23  O   UNL     1       7.825   4.130  16.719  0.00  0.00    +0.000 OA
ATOM     24  H   UNL     1       7.380   4.080  17.589  0.00  0.00    +0.000 HD
ENDBRANCH  19  23
ENDBRANCH  18  19
ENDBRANCH  17  18
ENDBRANCH  16  17
ENDBRANCH  11  16
ENDBRANCH   9  11
ENDBRANCH   4   7
BRANCH   1  25
ATOM     25  N   UNL     1       0.943  11.197  20.432  0.00  0.00    +0.000 N 
ATOM     26  H   UNL     1       1.759  11.689  20.808  0.00  0.00    +0.000 HD
BRANCH  25  27
ATOM     27  C   UNL     1       0.500  11.906  19.216  0.00  0.00    +0.000 C 
BRANCH  27  35
ATOM     28  N   UNL     1      -7.025  11.698  17.674  0.00  0.00    +0.000 N 
ATOM     29  C   UNL     1      -5.648  11.697  17.724  0.00  0.00    +0.000 A 
ATOM     30  N   UNL     1      -4.995  11.381  16.609  0.00  0.00    +0.000 NA
ATOM     31  C   UNL     1      -3.657  11.369  16.682  0.00  0.00    +0.000 A 
ATOM     32  N   UNL     1      -2.987  11.090  15.479  0.00  0.00    +0.000 N 
ATOM     33  C   UNL     1      -2.936  11.680  17.828  0.00  0.00    +0.000 A 
ATOM     34  N   UNL     1      -1.568  11.633  17.892  0.00  0.00    +0.000 NA
ATOM     35  C   UNL     1      -1.007  11.954  19.082  0.00  0.00    +0.000 A 
ATOM     36  C   UNL     1      -1.804  12.324  20.149  0.00  0.00    +0.000 A 
ATOM     37  N   UNL     1      -3.159  12.355  20.079  0.00  0.00    +0.000 NA
ATOM     38  C   UNL     1      -3.742  12.026  18.918  0.00  0.00    +0.000 A 
ATOM     39  N   UNL     1      -5.071  12.038  18.870  0.00  0.00    +0.000 NA
ATOM     40  H   UNL     1      -7.349  11.831  16.726  0.00  0.00    +0.000 HD
ATOM     41  H   UNL     1      -7.410  12.300  18.388  0.00  0.00    +0.000 HD
ATOM     42  H   UNL     1      -3.655  10.754  14.793  0.00  0.00    +0.000 HD
ATOM     43  H   UNL     1      -2.194  10.474  15.633  0.00  0.00    +0.000 HD
ENDBRANCH  27  35
ENDBRANCH  25  27
ENDBRANCH   1  25
TORSDOF 13
ENDMDL
MODEL 2
REMARK VINA RESULT:      -8.2      0.878      1.562
REMARK  Name = 
REMARK  13 active torsions:
REMARK  status: ('A' for Active; 'I' for Inactive)
REMARK    1  A    between atoms: C_8  and  C_9
REMARK    2  A    between atoms: C_9  and  N_10
REMARK    3  A    between atoms: N_10  and  C_11
REMARK    4  A    between atoms: C_14  and  C_15
REMARK    5  A    between atoms: N_17  and  CA_18
REMARK    6  A    between atoms: CA_18  and  C_19
REMARK    7  A    between atoms: CA_18  and  C_26
REMARK    8  A    between atoms: C_19  and  C_20
REMARK    9  A    between atoms: C_20  and  C_21
REMARK   10  A    between atoms: C_21  and  P_22
REMARK   11  A    between atoms: P_22  and  O_24
REMARK   12  A    between atoms: P_22  and  O_25
REMARK   13  A    between atoms: C_26  and  OXT_28
REMARK                            x       y       z     vdW  Elec       q    Type
REMARK                         _______ _______ _______ _____ _____    ______ ____
ROOT
ATOM      1  C   UNL     1       1.599   9.647  18.720  0.00  0.00    +0.000 A 
ATOM      2  C   UNL     1       2.264   8.817  17.815  0.00  0.00    +0.000 A 
ATOM      3  C   UNL     1       2.538   7.486  18.129  0.00  0.00    +0.000 A 
ATOM      4  C   UNL     1       2.180   6.960  19.372  0.00  0.00    +0.000 A 
ATOM      5  C   UNL     1       1.603   7.805  20.326  0.00  0.00    +0.000 A 
ATOM      6  C   UNL     1       1.334   9.143  19.999  0.00  0.00    +0.000 A 
ENDROOT
BRANCH   4   7
ATOM      7  C   UNL     1       2.461   5.516  19.599  0.00  0.00    +0.000 C 
ATOM      8  O   UNL     1       2.047   4.957  20.609  0.00  0.00    +0.000 OA
ATOM      9  N   UNL     1       3.225   4.865  18.661  0.00  0.00    +0.000 N 
ATOM     10  H   UNL     1       3.624   5.368  17.875  0.00  0.00    +0.000 HD
BRANCH   9  11
ATOM     11  CA  UNL     1       3.546   3.441  18.783  0.00  0.00    +0.000 C 
BRANCH  11  12
ATOM     12  C   UNL     1       4.804   3.357  19.653  0.00  0.00    +0.000 C 
ATOM     13  O   UNL     1       5.067   2.398  20.368  0.00  0.00    +0.000 OA
BRANCH  12  14
ATOM     14  OXT UNL     1       5.647   4.405  19.524  0.00  0.00    +0.000 OA
ATOM     15  HXT UNL     1       5.469   4.987  18.760  0.00  0.00    +0.000 HD
ENDBRANCH  12  14
ENDBRANCH  11  12
BRANCH  11  16
ATOM     16  C   UNL     1       3.795   2.813  17.403  0.00  0.00    +0.000 C 
BRANCH  16  17
ATOM     17  C   UNL     1       4.251   3.815  16.341  0.00  0.00    +0.000 C 
BRANCH  17  18
ATOM     18  C   UNL     1       5.763   3.738  16.137  0.00  0.00    +0.000 C 
BRANCH  18  19
ATOM     19  P   UNL     1       6.372   4.822  14.856  0.00  0.00    +0.000 P 
ATOM     20  O   UNL     1       7.803   5.217  14.945  0.00  0.00    +0.000 OA
BRANCH  19  21
ATOM     21  O   UNL     1       5.954   4.122  13.483  0.00  0.00    +0.000 OA
ATOM     22  H   UNL     1       5.030   4.251  13.200  0.00  0.00    +0.000 HD
ENDBRANCH  19  21
BRANCH  19  23
ATOM     23  O   UNL     1       5.370   6.070  14.853  0.00  0.00    +0.000 OA
ATOM     24  H   UNL     1       5.246   6.415  15.760  0.00  0.00    +0.000 HD
ENDBRANCH  19  23
ENDBRANCH  18  19
ENDBRANCH  17  18
ENDBRANCH  16  17
ENDBRANCH  11  16
ENDBRANCH   9  11
ENDBRANCH   4   7
BRANCH   1  25
ATOM     25  N   UNL     1       1.302  10.995  18.455  0.00  0.00    +0.000 N 
ATOM     26  H   UNL     1       0.729  11.049  17.607  0.00  0.00    +0.000 HD
BRANCH  25  27
ATOM     27  C   UNL     1       0.615  11.746  19.522  0.00  0.00    +0.000 C 
BRANCH  27  35
ATOM     28  N   UNL     1      -6.809  11.806  17.536  0.00  0.00    +0.000 N 
ATOM     29  C   UNL     1      -5.437  11.758  17.667  0.00  0.00    +0.000 A 
ATOM     30  N   UNL     1      -4.730  11.433  16.588  0.00  0.00    +0.000 NA
ATOM     31  C   UNL     1      -3.400  11.375  16.740  0.00  0.00    +0.000 A 
ATOM     32  N   UNL     1      -2.669  11.087  15.575  0.00  0.00    +0.000 N 
ATOM     33  C   UNL     1      -2.739  11.650  17.930  0.00  0.00    +0.000 A 
ATOM     34  N   UNL     1      -1.379  11.557  18.075  0.00  0.00    +0.000 NA
ATOM     35  C   UNL     1      -0.880  11.847  19.299  0.00  0.00    +0.000 A 
ATOM     36  C   UNL     1      -1.726  12.231  20.322  0.00  0.00    +0.000 A 
ATOM     37  N   UNL     1      -3.072  12.308  20.173  0.00  0.00    +0.000 NA
ATOM     38  C   UNL     1      -3.596  12.011  18.976  0.00  0.00    +0.000 A 
ATOM     39  N   UNL     1      -4.919  12.068  18.849  0.00  0.00    +0.000 NA
ATOM     40  H   UNL     1      -7.071  11.960  16.572  0.00  0.00    +0.000 HD
ATOM     41  H   UNL     1      -7.215  12.413  18.233  0.00  0.00    +0.000 HD
ATOM     42  H   UNL     1      -3.306  10.781  14.848  0.00  0.00    +0.000 HD
ATOM     43  H   UNL     1      -1.908  10.443  15.768  0.00  0.00    +0.000 HD
ENDBRANCH  27  35
ENDBRANCH  25  27
ENDBRANCH   1  25
TORSDOF 13
ENDMDL
MODEL 3
REMARK VINA RESULT:      -8.1      1.124      2.110
REMARK  Name = 
REMARK  13 active torsions:
REMARK  status: ('A' for Active; 'I' for Inactive)
REMARK    1  A    between atoms: C_8  and  C_9
REMARK    2  A    between atoms: C_9  and  N_10
REMARK    3  A    between atoms: N_10  and  C_11
REMARK    4  A    between atoms: C_14  and  C_15
REMARK    5  A    between atoms: N_17  and  CA_18
REMARK    6  A    between atoms: CA_18  and  C_19
REMARK    7  A    between atoms: CA_18  and  C_26
REMARK    8  A    between atoms: C_19  and  C_20
REMARK    9  A    between atoms: C_20  and  C_21
REMARK   10  A    between atoms: C_21  and  P_22
REMARK   11  A    between atoms: P_22  and  O_24
REMARK   12  A    between atoms: P_22  and  O_25
REMARK   13  A    between atoms: C_26  and  OXT_28
REMARK                            x       y       z     vdW  Elec       q    Type
REMARK                         _______ _______ _______ _____ _____    ______ ____
ROOT
ATOM      1  C   UNL     1       1.356   9.114  20.006  0.00  0.00    +0.000 A 
ATOM      2  C   UNL     1       1.955   8.512  18.897  0.00  0.00    +0.000 A 
ATOM      3  C   UNL     1       2.117   7.129  18.829  0.00  0.00    +0.000 A 
ATOM      4  C   UNL     1       1.708   6.313  19.887  0.00  0.00    +0.000 A 
ATOM      5  C   UNL     1       1.197   6.908  21.045  0.00  0.00    +0.000 A 
ATOM      6  C   UNL     1       1.040   8.302  21.101  0.00  0.00    +0.000 A 
ENDROOT
BRANCH   4   7
ATOM      7  C   UNL     1       1.868   4.844  19.705  0.00  0.00    +0.000 C 
ATOM      8  O   UNL     1       0.988   4.076  20.078  0.00  0.00    +0.000 OA
ATOM      9  N   UNL     1       3.043   4.400  19.148  0.00  0.00    +0.000 N 
ATOM     10  H   UNL     1       3.789   5.049  18.922  0.00  0.00    +0.000 HD
BRANCH   9  11
ATOM     11  CA  UNL     1       3.293   2.976  18.912  0.00  0.00    +0.000 C 
BRANCH  11  12
ATOM     12  C   UNL     1       4.097   2.476  20.115  0.00  0.00    +0.000 C 
ATOM     13  O   UNL     1       3.673   2.488  21.264  0.00  0.00    +0.000 OA
BRANCH  12  14
ATOM     14  OXT UNL     1       5.304   1.952  19.804  0.00  0.00    +0.000 OA
ATOM     15  HXT UNL     1       5.620   1.255  20.411  0.00  0.00    +0.000 HD
ENDBRANCH  12  14
ENDBRANCH  11  12
BRANCH  11  16
ATOM     16  C   UNL     1       4.075   2.764  17.607  0.00  0.00    +0.000 C 
BRANCH  16  17
ATOM     17  C   UNL     1       4.403   4.060  16.865  0.00  0.00    +0.000 C 
BRANCH  17  18
ATOM     18  C   UNL     1       5.828   4.025  16.315  0.00  0.00    +0.000 C 
BRANCH  18  19
ATOM     19  P   UNL     1       6.977   5.037  17.232  0.00  0.00    +0.000 P 
ATOM     20  O   UNL     1       7.440   6.285  16.567  0.00  0.00    +0.000 OA
BRANCH  19  21
ATOM     21  O   UNL     1       6.296   5.254  18.660  0.00  0.00    +0.000 OA
ATOM     22  H   UNL     1       6.891   5.204  19.431  0.00  0.00    +0.000 HD
ENDBRANCH  19  21
BRANCH  19  23
ATOM     23  O   UNL     1       8.172   4.054  17.636  0.00  0.00    +0.000 OA
ATOM     24  H   UNL     1       7.876   3.122  17.608  0.00  0.00    +0.000 HD
ENDBRANCH  19  23
ENDBRANCH  18  19
ENDBRANCH  17  18
ENDBRANCH  16  17
ENDBRANCH  11  16
ENDBRANCH   9  11
ENDBRANCH   4   7
BRANCH   1  25
ATOM     25  N   UNL     1       1.172  10.502  20.124  0.00  0.00    +0.000 N 
ATOM     26  H   UNL     1       2.035  10.923  20.484  0.00  0.00    +0.000 HD
BRANCH  25  27
ATOM     27  C   UNL     1       0.785  11.227  18.899  0.00  0.00    +0.000 C 
BRANCH  27  35
ATOM     28  N   UNL     1      -6.825  11.387  17.846  0.00  0.00    +0.000 N 
ATOM     29  C   UNL     1      -5.502  11.498  18.215  0.00  0.00    +0.000 A 
ATOM     30  N   UNL     1      -5.209  12.346  19.197  0.00  0.00    +0.000 NA
ATOM     31  C   UNL     1      -3.916  12.452  19.530  0.00  0.00    +0.000 A 
ATOM     32  N   UNL     1      -3.636  13.309  20.608  0.00  0.00    +0.000 N 
ATOM     33  C   UNL     1      -2.895  11.726  18.930  0.00  0.00    +0.000 A 
ATOM     34  N   UNL     1      -1.573  11.870  19.264  0.00  0.00    +0.000 NA
ATOM     35  C   UNL     1      -0.691  11.100  18.584  0.00  0.00    +0.000 A 
ATOM     36  C   UNL     1      -1.138  10.213  17.624  0.00  0.00    +0.000 A 
ATOM     37  N   UNL     1      -2.447  10.087  17.292  0.00  0.00    +0.000 NA
ATOM     38  C   UNL     1      -3.342  10.848  17.937  0.00  0.00    +0.000 A 
ATOM     39  N   UNL     1      -4.620  10.731  17.586  0.00  0.00    +0.000 NA
ATOM     40  H   UNL     1      -7.433  11.667  18.603  0.00  0.00    +0.000 HD
ATOM     41  H   UNL     1      -7.004  10.493  17.411  0.00  0.00    +0.000 HD
ATOM     42  H   UNL     1      -4.464  13.853  20.827  0.00  0.00    +0.000 HD
ATOM     43  H   UNL     1      -2.802  13.861  20.432  0.00  0.00    +0.000 HD
ENDBRANCH  27  35
ENDBRANCH  25  27
ENDBRANCH   1  25
TORSDOF 13
ENDMDL
MODEL 4
REMARK VINA RESULT:      -8.0      1.109      1.884
REMARK  Name = 
REMARK  13 active torsions:
REMARK  status: ('A' for Active; 'I' for Inactive)
REMARK    1  A    between atoms: C_8  and  C_9
REMARK    2  A    between atoms: C_9  and  N_10
REMARK    3  A    between atoms: N_10  and  C_11
REMARK    4  A    between atoms: C_14  and  C_15
REMARK    5  A    between atoms: N_17  and  CA_18
REMARK    6  A    between atoms: CA_18  and  C_19
REMARK    7  A    between atoms: CA_18  and  C_26
REMARK    8  A    between atoms: C_19  and  C_20
REMARK    9  A    between atoms: C_20  and  C_21
REMARK   10  A    between atoms: C_21  and  P_22
REMARK   11  A    between atoms: P_22  and  O_24
REMARK   12  A    between atoms: P_22  and  O_25
REMARK   13  A    between atoms: C_26  and  OXT_28
REMARK                            x       y       z     vdW  Elec       q    Type
REMARK                         _______ _______ _______ _____ _____    ______ ____
ROOT
ATOM      1  C   UNL     1       1.432   9.823  19.057  0.00  0.00    +0.000 A 
ATOM      2  C   UNL     1       2.023   9.140  17.992  0.00  0.00    +0.000 A 
ATOM      3  C   UNL     1       2.350   7.788  18.096  0.00  0.00    +0.000 A 
ATOM      4  C   UNL     1       2.120   7.091  19.286  0.00  0.00    +0.000 A 
ATOM      5  C   UNL     1       1.621   7.785  20.393  0.00  0.00    +0.000 A 
ATOM      6  C   UNL     1       1.298   9.146  20.275  0.00  0.00    +0.000 A 
ENDROOT
BRANCH   4   7
ATOM      7  C   UNL     1       2.448   5.640  19.289  0.00  0.00    +0.000 C 
ATOM      8  O   UNL     1       3.132   5.164  20.189  0.00  0.00    +0.000 OA
ATOM      9  N   UNL     1       1.991   4.885  18.236  0.00  0.00    +0.000 N 
ATOM     10  H   UNL     1       1.497   5.317  17.463  0.00  0.00    +0.000 HD
BRANCH   9  11
ATOM     11  CA  UNL     1       2.246   3.445  18.154  0.00  0.00    +0.000 C 
BRANCH  11  12
ATOM     12  C   UNL     1       1.685   2.834  19.441  0.00  0.00    +0.000 C 
ATOM     13  O   UNL     1       2.307   2.045  20.141  0.00  0.00    +0.000 OA
BRANCH  12  14
ATOM     14  OXT UNL     1       0.459   3.284  19.788  0.00  0.00    +0.000 OA
ATOM     15  HXT UNL     1       0.440   4.184  20.164  0.00  0.00    +0.000 HD
ENDBRANCH  12  14
ENDBRANCH  11  12
BRANCH  11  16
ATOM     16  C   UNL     1       3.751   3.159  18.026  0.00  0.00    +0.000 C 
BRANCH  16  17
ATOM     17  C   UNL     1       4.421   3.888  16.861  0.00  0.00    +0.000 C 
BRANCH  17  18
ATOM     18  C   UNL     1       5.467   4.878  17.370  0.00  0.00    +0.000 C 
BRANCH  18  19
ATOM     19  P   UNL     1       7.036   4.765  16.526  0.00  0.00    +0.000 P 
ATOM     20  O   UNL     1       8.158   4.157  17.290  0.00  0.00    +0.000 OA
BRANCH  19  21
ATOM     21  O   UNL     1       6.711   4.053  15.134  0.00  0.00    +0.000 OA
ATOM     22  H   UNL     1       6.045   3.341  15.161  0.00  0.00    +0.000 HD
ENDBRANCH  19  21
BRANCH  19  23
ATOM     23  O   UNL     1       7.346   6.250  16.019  0.00  0.00    +0.000 OA
ATOM     24  H   UNL     1       7.479   6.262  15.049  0.00  0.00    +0.000 HD
ENDBRANCH  19  23
ENDBRANCH  18  19
ENDBRANCH  17  18
ENDBRANCH  16  17
ENDBRANCH  11  16
ENDBRANCH   9  11
ENDBRANCH   4   7
BRANCH   1  25
ATOM     25  N   UNL     1       1.087  11.184  19.004  0.00  0.00    +0.000 N 
ATOM     26  H   UNL     1       0.599  11.369  18.122  0.00  0.00    +0.000 HD
BRANCH  25  27
ATOM     27  C   UNL     1       0.255  11.701  20.106  0.00  0.00    +0.000 C 
BRANCH  27  35
ATOM     28  N   UNL     1      -6.892  12.058  17.303  0.00  0.00    +0.000 N 
ATOM     29  C   UNL     1      -5.547  11.951  17.588  0.00  0.00    +0.000 A 
ATOM     30  N   UNL     1      -4.741  11.572  16.599  0.00  0.00    +0.000 NA
ATOM     31  C   UNL     1      -3.440  11.457  16.900  0.00  0.00    +0.000 A 
ATOM     32  N   UNL     1      -2.599  11.113  15.828  0.00  0.00    +0.000 N 
ATOM     33  C   UNL     1      -2.903  11.726  18.152  0.00  0.00    +0.000 A 
ATOM     34  N   UNL     1      -1.573  11.574  18.448  0.00  0.00    +0.000 NA
ATOM     35  C   UNL     1      -1.199  11.865  19.717  0.00  0.00    +0.000 A 
ATOM     36  C   UNL     1      -2.135  12.308  20.632  0.00  0.00    +0.000 A 
ATOM     37  N   UNL     1      -3.451  12.443  20.333  0.00  0.00    +0.000 NA
ATOM     38  C   UNL     1      -3.853  12.146  19.089  0.00  0.00    +0.000 A 
ATOM     39  N   UNL     1      -5.149  12.260  18.815  0.00  0.00    +0.000 NA
ATOM     40  H   UNL     1      -7.038  12.205  16.314  0.00  0.00    +0.000 HD
ATOM     41  H   UNL     1      -7.344  12.697  17.942  0.00  0.00    +0.000 HD
ATOM     42  H   UNL     1      -3.165  10.822  15.038  0.00  0.00    +0.000 HD
ATOM     43  H   UNL     1      -1.895  10.440  16.114  0.00  0.00    +0.000 HD
ENDBRANCH  27  35
ENDBRANCH  25  27
ENDBRANCH   1  25
TORSDOF 13
ENDMDL
MODEL 5
REMARK VINA RESULT:      -8.0      2.118      3.097
REMARK  Name = 
REMARK  13 active torsions:
REMARK  status: ('A' for Active; 'I' for Inactive)
REMARK    1  A    between atoms: C_8  and  C_9
REMARK    2  A    between atoms: C_9  and  N_10
REMARK    3  A    between atoms: N_10  and  C_11
REMARK    4  A    between atoms: C_14  and  C_15
REMARK    5  A    between atoms: N_17  and  CA_18
REMARK    6  A    between atoms: CA_18  and  C_19
REMARK    7  A    between atoms: CA_18  and  C_26
REMARK    8  A    between atoms: C_19  and  C_20
REMARK    9  A    between atoms: C_20  and  C_21
REMARK   10  A    between atoms: C_21  and  P_22
REMARK   11  A    between atoms: P_22  and  O_24
REMARK   12  A    between atoms: P_22  and  O_25
REMARK   13  A    between atoms: C_26  and  OXT_28
REMARK                            x       y       z     vdW  Elec       q    Type
REMARK                         _______ _______ _______ _____ _____    ______ ____
ROOT
ATOM      1  C   UNL     1       0.796   9.800  18.782  0.00  0.00    +0.000 A 
ATOM      2  C   UNL     1       0.672   9.100  19.984  0.00  0.00    +0.000 A 
ATOM      3  C   UNL     1       1.431   7.956  20.232  0.00  0.00    +0.000 A 
ATOM      4  C   UNL     1       2.314   7.466  19.267  0.00  0.00    +0.000 A 
ATOM      5  C   UNL     1       2.376   8.098  18.021  0.00  0.00    +0.000 A 
ATOM      6  C   UNL     1       1.607   9.247  17.783  0.00  0.00    +0.000 A 
ENDROOT
BRANCH   4   7
ATOM      7  C   UNL     1       3.122   6.273  19.639  0.00  0.00    +0.000 C 
ATOM      8  O   UNL     1       2.715   5.493  20.493  0.00  0.00    +0.000 OA
ATOM      9  N   UNL     1       4.339   6.115  19.020  0.00  0.00    +0.000 N 
ATOM     10  H   UNL     1       4.690   6.816  18.377  0.00  0.00    +0.000 HD
BRANCH   9  11
ATOM     11  CA  UNL     1       5.204   4.967  19.304  0.00  0.00    +0.000 C 
BRANCH  11  12
ATOM     12  C   UNL     1       6.640   5.498  19.296  0.00  0.00    +0.000 C 
ATOM     13  O   UNL     1       7.500   5.134  20.089  0.00  0.00    +0.000 OA
BRANCH  12  14
ATOM     14  OXT UNL     1       6.913   6.364  18.294  0.00  0.00    +0.000 OA
ATOM     15  HXT UNL     1       7.861   6.554  18.159  0.00  0.00    +0.000 HD
ENDBRANCH  12  14
ENDBRANCH  11  12
BRANCH  11  16
ATOM     16  C   UNL     1       5.024   3.867  18.246  0.00  0.00    +0.000 C 
BRANCH  16  17
ATOM     17  C   UNL     1       4.400   4.362  16.941  0.00  0.00    +0.000 C 
BRANCH  17  18
ATOM     18  C   UNL     1       5.153   3.803  15.735  0.00  0.00    +0.000 C 
BRANCH  18  19
ATOM     19  P   UNL     1       6.613   4.736  15.304  0.00  0.00    +0.000 P 
ATOM     20  O   UNL     1       7.841   4.450  16.094  0.00  0.00    +0.000 OA
BRANCH  19  21
ATOM     21  O   UNL     1       6.776   4.553  13.726  0.00  0.00    +0.000 OA
ATOM     22  H   UNL     1       6.702   5.365  13.191  0.00  0.00    +0.000 HD
ENDBRANCH  19  21
BRANCH  19  23
ATOM     23  O   UNL     1       6.164   6.270  15.366  0.00  0.00    +0.000 OA
ATOM     24  H   UNL     1       6.829   6.842  14.931  0.00  0.00    +0.000 HD
ENDBRANCH  19  23
ENDBRANCH  18  19
ENDBRANCH  17  18
ENDBRANCH  16  17
ENDBRANCH  11  16
ENDBRANCH   9  11
ENDBRANCH   4   7
BRANCH   1  25
ATOM     25  N   UNL     1       0.053  10.954  18.482  0.00  0.00    +0.000 N 
ATOM     26  H   UNL     1      -0.945  10.738  18.564  0.00  0.00    +0.000 HD
BRANCH  25  27
ATOM     27  C   UNL     1       0.332  12.152  19.296  0.00  0.00    +0.000 C 
BRANCH  27  35
ATOM     28  N   UNL     1      -5.375  12.993  24.374  0.00  0.00    +0.000 N 
ATOM     29  C   UNL     1      -4.510  12.897  23.304  0.00  0.00    +0.000 A 
ATOM     30  N   UNL     1      -5.028  13.026  22.086  0.00  0.00    +0.000 NA
ATOM     31  C   UNL     1      -4.175  12.913  21.059  0.00  0.00    +0.000 A 
ATOM     32  N   UNL     1      -4.732  13.110  19.784  0.00  0.00    +0.000 N 
ATOM     33  C   UNL     1      -2.811  12.694  21.199  0.00  0.00    +0.000 A 
ATOM     34  N   UNL     1      -1.958  12.552  20.136  0.00  0.00    +0.000 NA
ATOM     35  C   UNL     1      -0.655  12.333  20.431  0.00  0.00    +0.000 A 
ATOM     36  C   UNL     1      -0.240  12.280  21.748  0.00  0.00    +0.000 A 
ATOM     37  N   UNL     1      -1.093  12.410  22.794  0.00  0.00    +0.000 NA
ATOM     38  C   UNL     1      -2.392  12.611  22.532  0.00  0.00    +0.000 A 
ATOM     39  N   UNL     1      -3.222  12.714  23.566  0.00  0.00    +0.000 NA
ATOM     40  H   UNL     1      -6.201  13.516  24.121  0.00  0.00    +0.000 HD
ATOM     41  H   UNL     1      -4.882  13.274  25.210  0.00  0.00    +0.000 HD
ATOM     42  H   UNL     1      -5.744  13.117  19.858  0.00  0.00    +0.000 HD
ATOM     43  H   UNL     1      -4.363  12.443  19.113  0.00  0.00    +0.000 HD
ENDBRANCH  27  35
ENDBRANCH  25  27
ENDBRANCH   1  25
TORSDOF 13
ENDMDL
MODEL 6
REMARK VINA RESULT:      -7.9      2.837      4.707
REMARK  Name = 
REMARK  13 active torsions:
REMARK  status: ('A' for Active; 'I' for Inactive)
REMARK    1  A    between atoms: C_8  and  C_9
REMARK    2  A    between atoms: C_9  and  N_10
REMARK    3  A    between atoms: N_10  and  C_11
REMARK    4  A    between atoms: C_14  and  C_15
REMARK    5  A    between atoms: N_17  and  CA_18
REMARK    6  A    between atoms: CA_18  and  C_19
REMARK    7  A    between atoms: CA_18  and  C_26
REMARK    8  A    between atoms: C_19  and  C_20
REMARK    9  A    between atoms: C_20  and  C_21
REMARK   10  A    between atoms: C_21  and  P_22
REMARK   11  A    between atoms: P_22  and  O_24
REMARK   12  A    between atoms: P_22  and  O_25
REMARK   13  A    between atoms: C_26  and  OXT_28
REMARK                            x       y       z     vdW  Elec       q    Type
REMARK                         _______ _______ _______ _____ _____    ______ ____
ROOT
ATOM      1  C   UNL     1       1.209   9.604  19.167  0.00  0.00    +0.000 A 
ATOM      2  C   UNL     1       1.256   8.628  20.164  0.00  0.00    +0.000 A 
ATOM      3  C   UNL     1       2.017   7.470  20.003  0.00  0.00    +0.000 A 
ATOM      4  C   UNL     1       2.729   7.247  18.822  0.00  0.00    +0.000 A 
ATOM      5  C   UNL     1       2.614   8.167  17.776  0.00  0.00    +0.000 A 
ATOM      6  C   UNL     1       1.844   9.328  17.949  0.00  0.00    +0.000 A 
ENDROOT
BRANCH   4   7
ATOM      7  C   UNL     1       3.558   6.012  18.759  0.00  0.00    +0.000 C 
ATOM      8  O   UNL     1       4.473   5.841  19.558  0.00  0.00    +0.000 OA
ATOM      9  N   UNL     1       3.278   5.112  17.760  0.00  0.00    +0.000 N 
ATOM     10  H   UNL     1       2.570   5.314  17.062  0.00  0.00    +0.000 HD
BRANCH   9  11
ATOM     11  CA  UNL     1       4.025   3.860  17.621  0.00  0.00    +0.000 C 
BRANCH  11  12
ATOM     12  C   UNL     1       4.952   4.043  16.416  0.00  0.00    +0.000 C 
ATOM     13  O   UNL     1       5.018   5.079  15.765  0.00  0.00    +0.000 OA
BRANCH  12  14
ATOM     14  OXT UNL     1       5.752   2.984  16.157  0.00  0.00    +0.000 OA
ATOM     15  HXT UNL     1       6.398   2.773  16.858  0.00  0.00    +0.000 HD
ENDBRANCH  12  14
ENDBRANCH  11  12
BRANCH  11  16
ATOM     16  C   UNL     1       3.073   2.673  17.401  0.00  0.00    +0.000 C 
BRANCH  16  17
ATOM     17  C   UNL     1       1.730   2.818  18.116  0.00  0.00    +0.000 C 
BRANCH  17  18
ATOM     18  C   UNL     1       1.725   2.030  19.424  0.00  0.00    +0.000 C 
BRANCH  18  19
ATOM     19  P   UNL     1       1.595   3.054  20.881  0.00  0.00    +0.000 P 
ATOM     20  O   UNL     1       1.285   2.356  22.157  0.00  0.00    +0.000 OA
BRANCH  19  21
ATOM     21  O   UNL     1       2.934   3.923  20.901  0.00  0.00    +0.000 OA
ATOM     22  H   UNL     1       3.564   3.758  20.176  0.00  0.00    +0.000 HD
ENDBRANCH  19  21
BRANCH  19  23
ATOM     23  O   UNL     1       0.529   4.186  20.503  0.00  0.00    +0.000 OA
ATOM     24  H   UNL     1      -0.177   4.234  21.179  0.00  0.00    +0.000 HD
ENDBRANCH  19  23
ENDBRANCH  18  19
ENDBRANCH  17  18
ENDBRANCH  16  17
ENDBRANCH  11  16
ENDBRANCH   9  11
ENDBRANCH   4   7
BRANCH   1  25
ATOM     25  N   UNL     1       0.456  10.785  19.279  0.00  0.00    +0.000 N 
ATOM     26  H   UNL     1       0.504  11.296  18.392  0.00  0.00    +0.000 HD
BRANCH  25  27
ATOM     27  C   UNL     1      -0.965  10.634  19.643  0.00  0.00    +0.000 C 
BRANCH  27  35
ATOM     28  N   UNL     1      -3.779  15.363  25.008  0.00  0.00    +0.000 N 
ATOM     29  C   UNL     1      -3.409  14.632  23.899  0.00  0.00    +0.000 A 
ATOM     30  N   UNL     1      -4.050  14.881  22.761  0.00  0.00    +0.000 NA
ATOM     31  C   UNL     1      -3.689  14.149  21.698  0.00  0.00    +0.000 A 
ATOM     32  N   UNL     1      -4.337  14.468  20.493  0.00  0.00    +0.000 N 
ATOM     33  C   UNL     1      -2.691  13.183  21.721  0.00  0.00    +0.000 A 
ATOM     34  N   UNL     1      -2.355  12.422  20.631  0.00  0.00    +0.000 NA
ATOM     35  C   UNL     1      -1.368  11.513  20.809  0.00  0.00    +0.000 A 
ATOM     36  C   UNL     1      -0.742  11.399  22.035  0.00  0.00    +0.000 A 
ATOM     37  N   UNL     1      -1.090  12.147  23.112  0.00  0.00    +0.000 NA
ATOM     38  C   UNL     1      -2.075  13.044  22.969  0.00  0.00    +0.000 A 
ATOM     39  N   UNL     1      -2.422  13.755  24.039  0.00  0.00    +0.000 NA
ATOM     40  H   UNL     1      -4.208  16.236  24.735  0.00  0.00    +0.000 HD
ATOM     41  H   UNL     1      -3.024  15.403  25.679  0.00  0.00    +0.000 HD
ATOM     42  H   UNL     1      -5.119  15.085  20.687  0.00  0.00    +0.000 HD
ATOM     43  H   UNL     1      -4.580  13.630  19.972  0.00  0.00    +0.000 HD
ENDBRANCH  27  35
ENDBRANCH  25  27
ENDBRANCH   1  25
TORSDOF 13
ENDMDL
MODEL 7
REMARK VINA RESULT:      -7.9      2.632      4.152
REMARK  Name = 
REMARK  13 active torsions:
REMARK  status: ('A' for Active; 'I' for Inactive)
REMARK    1  A    between atoms: C_8  and  C_9
REMARK    2  A    between atoms: C_9  and  N_10
REMARK    3  A    between atoms: N_10  and  C_11
REMARK    4  A    between atoms: C_14  and  C_15
REMARK    5  A    between atoms: N_17  and  CA_18
REMARK    6  A    between atoms: CA_18  and  C_19
REMARK    7  A    between atoms: CA_18  and  C_26
REMARK    8  A    between atoms: C_19  and  C_20
REMARK    9  A    between atoms: C_20  and  C_21
REMARK   10  A    between atoms: C_21  and  P_22
REMARK   11  A    between atoms: P_22  and  O_24
REMARK   12  A    between atoms: P_22  and  O_25
REMARK   13  A    between atoms: C_26  and  OXT_28
REMARK                            x       y       z     vdW  Elec       q    Type
REMARK                         _______ _______ _______ _____ _____    ______ ____
ROOT
ATOM      1  C   UNL     1       0.660   9.830  19.035  0.00  0.00    +0.000 A 
ATOM      2  C   UNL     1       1.450   9.593  17.909  0.00  0.00    +0.000 A 
ATOM      3  C   UNL     1       2.357   8.533  17.876  0.00  0.00    +0.000 A 
ATOM      4  C   UNL     1       2.516   7.700  18.986  0.00  0.00    +0.000 A 
ATOM      5  C   UNL     1       1.804   7.985  20.155  0.00  0.00    +0.000 A 
ATOM      6  C   UNL     1       0.897   9.055  20.177  0.00  0.00    +0.000 A 
ENDROOT
BRANCH   4   7
ATOM      7  C   UNL     1       3.464   6.562  18.842  0.00  0.00    +0.000 C 
ATOM      8  O   UNL     1       3.517   5.690  19.702  0.00  0.00    +0.000 OA
ATOM      9  N   UNL     1       4.287   6.559  17.741  0.00  0.00    +0.000 N 
ATOM     10  H   UNL     1       4.281   7.332  17.086  0.00  0.00    +0.000 HD
BRANCH   9  11
ATOM     11  CA  UNL     1       5.244   5.477  17.499  0.00  0.00    +0.000 C 
BRANCH  11  12
ATOM     12  C   UNL     1       6.604   6.146  17.282  0.00  0.00    +0.000 C 
ATOM     13  O   UNL     1       7.673   5.560  17.406  0.00  0.00    +0.000 OA
BRANCH  12  14
ATOM     14  OXT UNL     1       6.538   7.433  16.875  0.00  0.00    +0.000 OA
ATOM     15  HXT UNL     1       6.122   8.047  17.510  0.00  0.00    +0.000 HD
ENDBRANCH  12  14
ENDBRANCH  11  12
BRANCH  11  16
ATOM     16  C   UNL     1       4.841   4.650  16.268  0.00  0.00    +0.000 C 
BRANCH  16  17
ATOM     17  C   UNL     1       4.380   3.231  16.600  0.00  0.00    +0.000 C 
BRANCH  17  18
ATOM     18  C   UNL     1       3.022   3.252  17.300  0.00  0.00    +0.000 C 
BRANCH  18  19
ATOM     19  P   UNL     1       2.878   2.064  18.625  0.00  0.00    +0.000 P 
ATOM     20  O   UNL     1       3.833   0.924  18.602  0.00  0.00    +0.000 OA
BRANCH  19  21
ATOM     21  O   UNL     1       2.901   2.929  19.966  0.00  0.00    +0.000 OA
ATOM     22  H   UNL     1       2.434   3.784  19.934  0.00  0.00    +0.000 HD
ENDBRANCH  19  21
BRANCH  19  23
ATOM     23  O   UNL     1       1.345   1.606  18.611  0.00  0.00    +0.000 OA
ATOM     24  H   UNL     1       1.266   0.659  18.844  0.00  0.00    +0.000 HD
ENDBRANCH  19  23
ENDBRANCH  18  19
ENDBRANCH  17  18
ENDBRANCH  16  17
ENDBRANCH  11  16
ENDBRANCH   9  11
ENDBRANCH   4   7
BRANCH   1  25
ATOM     25  N   UNL     1      -0.265  10.885  19.120  0.00  0.00    +0.000 N 
ATOM     26  H   UNL     1      -1.196  10.498  19.303  0.00  0.00    +0.000 HD
BRANCH  25  27
ATOM     27  C   UNL     1       0.006  11.925  20.130  0.00  0.00    +0.000 C 
BRANCH  27  35
ATOM     28  N   UNL     1      -6.238  13.014  24.476  0.00  0.00    +0.000 N 
ATOM     29  C   UNL     1      -5.221  12.960  23.546  0.00  0.00    +0.000 A 
ATOM     30  N   UNL     1      -5.426  13.568  22.380  0.00  0.00    +0.000 NA
ATOM     31  C   UNL     1      -4.434  13.490  21.483  0.00  0.00    +0.000 A 
ATOM     32  N   UNL     1      -4.647  14.187  20.282  0.00  0.00    +0.000 N 
ATOM     33  C   UNL     1      -3.227  12.842  21.710  0.00  0.00    +0.000 A 
ATOM     34  N   UNL     1      -2.234  12.747  20.769  0.00  0.00    +0.000 NA
ATOM     35  C   UNL     1      -1.118  12.075  21.134  0.00  0.00    +0.000 A 
ATOM     36  C   UNL     1      -1.011  11.541  22.404  0.00  0.00    +0.000 A 
ATOM     37  N   UNL     1      -2.004  11.629  23.325  0.00  0.00    +0.000 NA
ATOM     38  C   UNL     1      -3.128  12.275  22.986  0.00  0.00    +0.000 A 
ATOM     39  N   UNL     1      -4.103  12.334  23.889  0.00  0.00    +0.000 NA
ATOM     40  H   UNL     1      -6.837  13.809  24.307  0.00  0.00    +0.000 HD
ATOM     41  H   UNL     1      -5.875  12.893  25.411  0.00  0.00    +0.000 HD
ATOM     42  H   UNL     1      -5.618  14.477  20.231  0.00  0.00    +0.000 HD
ATOM     43  H   UNL     1      -4.325  13.651  19.482  0.00  0.00    +0.000 HD
ENDBRANCH  27  35
ENDBRANCH  25  27
ENDBRANCH   1  25
TORSDOF 13
ENDMDL
MODEL 8
REMARK VINA RESULT:      -7.9      1.922      2.565
REMARK  Name = 
REMARK  13 active torsions:
REMARK  status: ('A' for Active; 'I' for Inactive)
REMARK    1  A    between atoms: C_8  and  C_9
REMARK    2  A    between atoms: C_9  and  N_10
REMARK    3  A    between atoms: N_10  and  C_11
REMARK    4  A    between atoms: C_14  and  C_15
REMARK    5  A    between atoms: N_17  and  CA_18
REMARK    6  A    between atoms: CA_18  and  C_19
REMARK    7  A    between atoms: CA_18  and  C_26
REMARK    8  A    between atoms: C_19  and  C_20
REMARK    9  A    between atoms: C_20  and  C_21
REMARK   10  A    between atoms: C_21  and  P_22
REMARK   11  A    between atoms: P_22  and  O_24
REMARK   12  A    between atoms: P_22  and  O_25
REMARK   13  A    between atoms: C_26  and  OXT_28
REMARK                            x       y       z     vdW  Elec       q    Type
REMARK                         _______ _______ _______ _____ _____    ______ ____
ROOT
ATOM      1  C   UNL     1       1.493   8.780  19.732  0.00  0.00    +0.000 A 
ATOM      2  C   UNL     1       1.800   7.557  20.332  0.00  0.00    +0.000 A 
ATOM      3  C   UNL     1       2.562   6.599  19.664  0.00  0.00    +0.000 A 
ATOM      4  C   UNL     1       3.011   6.830  18.361  0.00  0.00    +0.000 A 
ATOM      5  C   UNL     1       2.628   8.007  17.711  0.00  0.00    +0.000 A 
ATOM      6  C   UNL     1       1.860   8.963  18.393  0.00  0.00    +0.000 A 
ENDROOT
BRANCH   4   7
ATOM      7  C   UNL     1       3.864   5.776  17.747  0.00  0.00    +0.000 C 
ATOM      8  O   UNL     1       3.364   4.724  17.364  0.00  0.00    +0.000 OA
ATOM      9  N   UNL     1       5.214   6.020  17.669  0.00  0.00    +0.000 N 
ATOM     10  H   UNL     1       5.613   6.863  18.066  0.00  0.00    +0.000 HD
BRANCH   9  11
ATOM     11  CA  UNL     1       6.137   5.055  17.068  0.00  0.00    +0.000 C 
BRANCH  11  12
ATOM     12  C   UNL     1       7.452   5.178  17.842  0.00  0.00    +0.000 C 
ATOM     13  O   UNL     1       8.196   4.231  18.066  0.00  0.00    +0.000 OA
BRANCH  12  14
ATOM     14  OXT UNL     1       7.771   6.439  18.209  0.00  0.00    +0.000 OA
ATOM     15  HXT UNL     1       8.357   6.915  17.589  0.00  0.00    +0.000 HD
ENDBRANCH  12  14
ENDBRANCH  11  12
BRANCH  11  16
ATOM     16  C   UNL     1       6.351   5.353  15.576  0.00  0.00    +0.000 C 
BRANCH  16  17
ATOM     17  C   UNL     1       6.508   4.102  14.712  0.00  0.00    +0.000 C 
BRANCH  17  18
ATOM     18  C   UNL     1       5.268   3.881  13.848  0.00  0.00    +0.000 C 
BRANCH  18  19
ATOM     19  P   UNL     1       5.637   3.430  12.161  0.00  0.00    +0.000 P 
ATOM     20  O   UNL     1       4.542   3.606  11.171  0.00  0.00    +0.000 OA
BRANCH  19  21
ATOM     21  O   UNL     1       6.989   4.203  11.808  0.00  0.00    +0.000 OA
ATOM     22  H   UNL     1       7.102   5.079  12.220  0.00  0.00    +0.000 HD
ENDBRANCH  19  21
BRANCH  19  23
ATOM     23  O   UNL     1       6.184   1.928  12.240  0.00  0.00    +0.000 OA
ATOM     24  H   UNL     1       7.131   1.918  12.486  0.00  0.00    +0.000 HD
ENDBRANCH  19  23
ENDBRANCH  18  19
ENDBRANCH  17  18
ENDBRANCH  16  17
ENDBRANCH  11  16
ENDBRANCH   9  11
ENDBRANCH   4   7
BRANCH   1  25
ATOM     25  N   UNL     1       0.726   9.777  20.360  0.00  0.00    +0.000 N 
ATOM     26  H   UNL     1       1.135   9.982  21.278  0.00  0.00    +0.000 HD
BRANCH  25  27
ATOM     27  C   UNL     1       0.570  11.050  19.633  0.00  0.00    +0.000 C 
BRANCH  27  35
ATOM     28  N   UNL     1      -6.612  12.110  17.110  0.00  0.00    +0.000 N 
ATOM     29  C   UNL     1      -5.275  11.865  17.343  0.00  0.00    +0.000 A 
ATOM     30  N   UNL     1      -4.557  11.380  16.334  0.00  0.00    +0.000 NA
ATOM     31  C   UNL     1      -3.264  11.133  16.585  0.00  0.00    +0.000 A 
ATOM     32  N   UNL     1      -2.511  10.677  15.489  0.00  0.00    +0.000 N 
ATOM     33  C   UNL     1      -2.648  11.370  17.807  0.00  0.00    +0.000 A 
ATOM     34  N   UNL     1      -1.330  11.083  18.054  0.00  0.00    +0.000 NA
ATOM     35  C   UNL     1      -0.874  11.360  19.298  0.00  0.00    +0.000 A 
ATOM     36  C   UNL     1      -1.718  11.921  20.238  0.00  0.00    +0.000 A 
ATOM     37  N   UNL     1      -3.023  12.190  19.988  0.00  0.00    +0.000 NA
ATOM     38  C   UNL     1      -3.507  11.910  18.770  0.00  0.00    +0.000 A 
ATOM     39  N   UNL     1      -4.795  12.158  18.545  0.00  0.00    +0.000 NA
ATOM     40  H   UNL     1      -6.784  12.249  16.124  0.00  0.00    +0.000 HD
ATOM     41  H   UNL     1      -6.966  12.807  17.749  0.00  0.00    +0.000 HD
ATOM     42  H   UNL     1      -3.138  10.431  14.731  0.00  0.00    +0.000 HD
ATOM     43  H   UNL     1      -1.871   9.938  15.765  0.00  0.00    +0.000 HD
ENDBRANCH  27  35
ENDBRANCH  25  27
ENDBRANCH   1  25
TORSDOF 13
ENDMDL
MODEL 9
REMARK VINA RESULT:      -7.9      2.995      4.375
REMARK  Name = 
REMARK  13 active torsions:
REMARK  status: ('A' for Active; 'I' for Inactive)
REMARK    1  A    between atoms: C_8  and  C_9
REMARK    2  A    between atoms: C_9  and  N_10
REMARK    3  A    between atoms: N_10  and  C_11
REMARK    4  A    between atoms: C_14  and  C_15
REMARK    5  A    between atoms: N_17  and  CA_18
REMARK    6  A    between atoms: CA_18  and  C_19
REMARK    7  A    between atoms: CA_18  and  C_26
REMARK    8  A    between atoms: C_19  and  C_20
REMARK    9  A    between atoms: C_20  and  C_21
REMARK   10  A    between atoms: C_21  and  P_22
REMARK   11  A    between atoms: P_22  and  O_24
REMARK   12  A    between atoms: P_22  and  O_25
REMARK   13  A    between atoms: C_26  and  OXT_28
REMARK                            x       y       z     vdW  Elec       q    Type
REMARK                         _______ _______ _______ _____ _____    ______ ____
ROOT
ATOM      1  C   UNL     1       0.619   9.628  19.467  0.00  0.00    +0.000 A 
ATOM      2  C   UNL     1       0.945   8.693  20.452  0.00  0.00    +0.000 A 
ATOM      3  C   UNL     1       1.860   7.671  20.200  0.00  0.00    +0.000 A 
ATOM      4  C   UNL     1       2.451   7.541  18.940  0.00  0.00    +0.000 A 
ATOM      5  C   UNL     1       2.060   8.409  17.915  0.00  0.00    +0.000 A 
ATOM      6  C   UNL     1       1.138   9.433  18.182  0.00  0.00    +0.000 A 
ENDROOT
BRANCH   4   7
ATOM      7  C   UNL     1       3.456   6.457  18.777  0.00  0.00    +0.000 C 
ATOM      8  O   UNL     1       3.789   5.773  19.740  0.00  0.00    +0.000 OA
ATOM      9  N   UNL     1       4.010   6.289  17.531  0.00  0.00    +0.000 N 
ATOM     10  H   UNL     1       3.779   6.919  16.770  0.00  0.00    +0.000 HD
BRANCH   9  11
ATOM     11  CA  UNL     1       4.997   5.240  17.262  0.00  0.00    +0.000 C 
BRANCH  11  12
ATOM     12  C   UNL     1       5.921   5.789  16.171  0.00  0.00    +0.000 C 
ATOM     13  O   UNL     1       5.579   6.641  15.361  0.00  0.00    +0.000 OA
BRANCH  12  14
ATOM     14  OXT UNL     1       7.183   5.304  16.208  0.00  0.00    +0.000 OA
ATOM     15  HXT UNL     1       7.885   5.968  16.065  0.00  0.00    +0.000 HD
ENDBRANCH  12  14
ENDBRANCH  11  12
BRANCH  11  16
ATOM     16  C   UNL     1       4.312   3.946  16.796  0.00  0.00    +0.000 C 
BRANCH  16  17
ATOM     17  C   UNL     1       4.177   2.889  17.892  0.00  0.00    +0.000 C 
BRANCH  17  18
ATOM     18  C   UNL     1       2.838   2.162  17.781  0.00  0.00    +0.000 C 
BRANCH  18  19
ATOM     19  P   UNL     1       1.446   3.127  18.344  0.00  0.00    +0.000 P 
ATOM     20  O   UNL     1       1.085   4.313  17.523  0.00  0.00    +0.000 OA
BRANCH  19  21
ATOM     21  O   UNL     1       0.264   2.074  18.555  0.00  0.00    +0.000 OA
ATOM     22  H   UNL     1      -0.236   2.152  19.388  0.00  0.00    +0.000 HD
ENDBRANCH  19  21
BRANCH  19  23
ATOM     23  O   UNL     1       1.776   3.489  19.867  0.00  0.00    +0.000 OA
ATOM     24  H   UNL     1       1.387   2.825  20.472  0.00  0.00    +0.000 HD
ENDBRANCH  19  23
ENDBRANCH  18  19
ENDBRANCH  17  18
ENDBRANCH  16  17
ENDBRANCH  11  16
ENDBRANCH   9  11
ENDBRANCH   4   7
BRANCH   1  25
ATOM     25  N   UNL     1      -0.298  10.673  19.670  0.00  0.00    +0.000 N 
ATOM     26  H   UNL     1      -1.204  10.274  19.935  0.00  0.00    +0.000 HD
BRANCH  25  27
ATOM     27  C   UNL     1       0.066  11.690  20.674  0.00  0.00    +0.000 C 
BRANCH  27  35
ATOM     28  N   UNL     1      -6.137  14.484  24.249  0.00  0.00    +0.000 N 
ATOM     29  C   UNL     1      -5.040  14.171  23.474  0.00  0.00    +0.000 A 
ATOM     30  N   UNL     1      -4.789  14.951  22.426  0.00  0.00    +0.000 NA
ATOM     31  C   UNL     1      -3.730  14.620  21.675  0.00  0.00    +0.000 A 
ATOM     32  N   UNL     1      -3.448  15.490  20.608  0.00  0.00    +0.000 N 
ATOM     33  C   UNL     1      -2.892  13.545  21.940  0.00  0.00    +0.000 A 
ATOM     34  N   UNL     1      -1.830  13.204  21.143  0.00  0.00    +0.000 NA
ATOM     35  C   UNL     1      -1.110  12.123  21.525  0.00  0.00    +0.000 A 
ATOM     36  C   UNL     1      -1.447  11.434  22.675  0.00  0.00    +0.000 A 
ATOM     37  N   UNL     1      -2.507  11.771  23.450  0.00  0.00    +0.000 NA
ATOM     38  C   UNL     1      -3.248  12.828  23.087  0.00  0.00    +0.000 A 
ATOM     39  N   UNL     1      -4.299  13.134  23.844  0.00  0.00    +0.000 NA
ATOM     40  H   UNL     1      -6.377  15.460  24.151  0.00  0.00    +0.000 HD
ATOM     41  H   UNL     1      -6.029  14.121  25.186  0.00  0.00    +0.000 HD
ATOM     42  H   UNL     1      -4.228  16.126  20.480  0.00  0.00    +0.000 HD
ATOM     43  H   UNL     1      -3.181  14.976  19.774  0.00  0.00    +0.000 HD
ENDBRANCH  27  35
ENDBRANCH  25  27
ENDBRANCH   1  25
TORSDOF 13
ENDMDL
