MODEL 1
REMARK VINA RESULT:      -6.0      0.000      0.000
REMARK  Name = 
REMARK  11 active torsions:
REMARK  status: ('A' for Active; 'I' for Inactive)
REMARK    1  A    between atoms: C_1  and  S_2
REMARK    2  A    between atoms: S_2  and  C_3
REMARK    3  A    between atoms: S_2  and  C_4
REMARK    4  A    between atoms: C_4  and  C_5
REMARK    5  A    between atoms: C_5  and  C_6
REMARK    6  A    between atoms: N_8  and  C_9
REMARK    7  A    between atoms: C_12  and  O_13
REMARK    8  A    between atoms: O_13  and  C_14
REMARK    9  A    between atoms: C_14  and  C_15
REMARK   10  A    between atoms: C_15  and  C_16
REMARK   11  A    between atoms: C_16  and  O_17
REMARK                            x       y       z     vdW  Elec       q    Type
REMARK                         _______ _______ _______ _____ _____    ______ ____
ROOT
ATOM      1  C   UNL     1       6.403   5.279  18.329  0.00  0.00    +0.000 A 
ATOM      2  C   UNL     1       5.944   6.121  17.320  0.00  0.00    +0.000 A 
ATOM      3  C   UNL     1       6.578   7.336  17.076  0.00  0.00    +0.000 A 
ATOM      4  C   UNL     1       7.696   7.714  17.821  0.00  0.00    +0.000 A 
ATOM      5  C   UNL     1       8.175   6.853  18.813  0.00  0.00    +0.000 A 
ATOM      6  C   UNL     1       7.508   5.651  19.089  0.00  0.00    +0.000 A 
ENDROOT
BRANCH   1   9
ATOM      7  C   UNL     1       4.618   3.974  19.416  0.00  0.00    +0.000 C 
ATOM      8  O   UNL     1       3.948   4.917  19.839  0.00  0.00    +0.000 OA
ATOM      9  N   UNL     1       5.747   4.081  18.620  0.00  0.00    +0.000 N 
ATOM     10  H   UNL     1       6.054   3.239  18.138  0.00  0.00    +0.000 HD
BRANCH   7  11
ATOM     11  C   UNL     1       4.221   2.547  19.682  0.00  0.00    +0.000 C 
BRANCH  11  12
ATOM     12  C   UNL     1       3.361   1.967  18.575  0.00  0.00    +0.000 C 
BRANCH  12  14
ATOM     13  C   UNL     1       1.282   3.644  18.209  0.00  0.00    +0.000 C 
ATOM     14  S   UNL     1       1.565   1.996  18.919  0.00  0.00    +0.000 S 
ATOM     15  C   UNL     1       1.656   2.515  20.648  0.00  0.00    +0.000 C 
ENDBRANCH  12  14
ENDBRANCH  11  12
ENDBRANCH   7  11
ENDBRANCH   1   9
BRANCH   4  16
ATOM     16  O   UNL     1       8.378   8.895  17.663  0.00  0.00    +0.000 OA
BRANCH  16  17
ATOM     17  C   UNL     1       8.919   9.433  18.874  0.00  0.00    +0.000 C 
BRANCH  17  18
ATOM     18  C   UNL     1       9.314  10.885  18.678  0.00  0.00    +0.000 C 
BRANCH  18  19
ATOM     19  C   UNL     1      10.214  11.391  19.793  0.00  0.00    +0.000 C 
BRANCH  19  20
ATOM     20  O   UNL     1       9.626  11.071  21.050  0.00  0.00    +0.000 OA
ATOM     21  H   UNL     1       8.749  11.492  21.067  0.00  0.00    +0.000 HD
ENDBRANCH  19  20
ENDBRANCH  18  19
ENDBRANCH  17  18
ENDBRANCH  16  17
ENDBRANCH   4  16
TORSDOF 9
ENDMDL
MODEL 2
REMARK VINA RESULT:      -5.8      5.314      7.127
REMARK  Name = 
REMARK  11 active torsions:
REMARK  status: ('A' for Active; 'I' for Inactive)
REMARK    1  A    between atoms: C_1  and  S_2
REMARK    2  A    between atoms: S_2  and  C_3
REMARK    3  A    between atoms: S_2  and  C_4
REMARK    4  A    between atoms: C_4  and  C_5
REMARK    5  A    between atoms: C_5  and  C_6
REMARK    6  A    between atoms: N_8  and  C_9
REMARK    7  A    between atoms: C_12  and  O_13
REMARK    8  A    between atoms: O_13  and  C_14
REMARK    9  A    between atoms: C_14  and  C_15
REMARK   10  A    between atoms: C_15  and  C_16
REMARK   11  A    between atoms: C_16  and  O_17
REMARK                            x       y       z     vdW  Elec       q    Type
REMARK                         _______ _______ _______ _____ _____    ______ ____
ROOT
ATOM      1  C   UNL     1       2.645   7.378  18.849  0.00  0.00    +0.000 A 
ATOM      2  C   UNL     1       1.960   7.627  20.034  0.00  0.00    +0.000 A 
ATOM      3  C   UNL     1       1.162   8.761  20.161  0.00  0.00    +0.000 A 
ATOM      4  C   UNL     1       1.019   9.649  19.093  0.00  0.00    +0.000 A 
ATOM      5  C   UNL     1       1.683   9.381  17.891  0.00  0.00    +0.000 A 
ATOM      6  C   UNL     1       2.522   8.263  17.781  0.00  0.00    +0.000 A 
ENDROOT
BRANCH   1   9
ATOM      7  C   UNL     1       3.100   5.037  18.230  0.00  0.00    +0.000 C 
ATOM      8  O   UNL     1       2.021   4.789  17.689  0.00  0.00    +0.000 OA
ATOM      9  N   UNL     1       3.488   6.272  18.724  0.00  0.00    +0.000 N 
ATOM     10  H   UNL     1       4.479   6.403  18.912  0.00  0.00    +0.000 HD
BRANCH   7  11
ATOM     11  C   UNL     1       4.174   3.991  18.355  0.00  0.00    +0.000 C 
BRANCH  11  12
ATOM     12  C   UNL     1       5.510   4.577  18.769  0.00  0.00    +0.000 C 
BRANCH  12  14
ATOM     13  C   UNL     1       6.582   6.376  17.071  0.00  0.00    +0.000 C 
ATOM     14  S   UNL     1       6.766   4.607  17.439  0.00  0.00    +0.000 S 
ATOM     15  C   UNL     1       5.718   3.994  16.100  0.00  0.00    +0.000 C 
ENDBRANCH  12  14
ENDBRANCH  11  12
ENDBRANCH   7  11
ENDBRANCH   1   9
BRANCH   4  16
ATOM     16  O   UNL     1       0.268  10.798  19.126  0.00  0.00    +0.000 OA
BRANCH  16  17
ATOM     17  C   UNL     1      -1.133  10.585  19.321  0.00  0.00    +0.000 C 
BRANCH  17  18
ATOM     18  C   UNL     1      -1.797  10.196  18.012  0.00  0.00    +0.000 C 
BRANCH  18  19
ATOM     19  C   UNL     1      -2.265  11.408  17.224  0.00  0.00    +0.000 C 
BRANCH  19  20
ATOM     20  O   UNL     1      -1.357  12.485  17.439  0.00  0.00    +0.000 OA
ATOM     21  H   UNL     1      -0.511  12.225  17.038  0.00  0.00    +0.000 HD
ENDBRANCH  19  20
ENDBRANCH  18  19
ENDBRANCH  17  18
ENDBRANCH  16  17
ENDBRANCH   4  16
TORSDOF 9
ENDMDL
MODEL 3
REMARK VINA RESULT:      -5.8      5.429      6.660
REMARK  Name = 
REMARK  11 active torsions:
REMARK  status: ('A' for Active; 'I' for Inactive)
REMARK    1  A    between atoms: C_1  and  S_2
REMARK    2  A    between atoms: S_2  and  C_3
REMARK    3  A    between atoms: S_2  and  C_4
REMARK    4  A    between atoms: C_4  and  C_5
REMARK    5  A    between atoms: C_5  and  C_6
REMARK    6  A    between atoms: N_8  and  C_9
REMARK    7  A    between atoms: C_12  and  O_13
REMARK    8  A    between atoms: O_13  and  C_14
REMARK    9  A    between atoms: C_14  and  C_15
REMARK   10  A    between atoms: C_15  and  C_16
REMARK   11  A    between atoms: C_16  and  O_17
REMARK                            x       y       z     vdW  Elec       q    Type
REMARK                         _______ _______ _______ _____ _____    ______ ____
ROOT
ATOM      1  C   UNL     1       2.523   7.417  18.652  0.00  0.00    +0.000 A 
ATOM      2  C   UNL     1       2.037   7.566  19.948  0.00  0.00    +0.000 A 
ATOM      3  C   UNL     1       1.287   8.687  20.293  0.00  0.00    +0.000 A 
ATOM      4  C   UNL     1       0.992   9.663  19.340  0.00  0.00    +0.000 A 
ATOM      5  C   UNL     1       1.455   9.497  18.031  0.00  0.00    +0.000 A 
ATOM      6  C   UNL     1       2.248   8.391  17.696  0.00  0.00    +0.000 A 
ENDROOT
BRANCH   1   9
ATOM      7  C   UNL     1       2.831   5.085  17.922  0.00  0.00    +0.000 C 
ATOM      8  O   UNL     1       1.651   4.822  17.682  0.00  0.00    +0.000 OA
ATOM      9  N   UNL     1       3.319   6.325  18.303  0.00  0.00    +0.000 N 
ATOM     10  H   UNL     1       4.323   6.469  18.225  0.00  0.00    +0.000 HD
BRANCH   7  11
ATOM     11  C   UNL     1       3.914   4.054  17.754  0.00  0.00    +0.000 C 
BRANCH  11  12
ATOM     12  C   UNL     1       4.699   3.823  19.031  0.00  0.00    +0.000 C 
BRANCH  12  14
ATOM     13  C   UNL     1       3.405   1.520  18.489  0.00  0.00    +0.000 C 
ATOM     14  S   UNL     1       4.311   2.252  19.883  0.00  0.00    +0.000 S 
ATOM     15  C   UNL     1       2.867   2.826  20.807  0.00  0.00    +0.000 C 
ENDBRANCH  12  14
ENDBRANCH  11  12
ENDBRANCH   7  11
ENDBRANCH   1   9
BRANCH   4  16
ATOM     16  O   UNL     1       0.274  10.807  19.588  0.00  0.00    +0.000 OA
BRANCH  16  17
ATOM     17  C   UNL     1      -1.138  10.609  19.692  0.00  0.00    +0.000 C 
BRANCH  17  18
ATOM     18  C   UNL     1      -1.879  11.894  19.367  0.00  0.00    +0.000 C 
BRANCH  18  19
ATOM     19  C   UNL     1      -0.955  12.962  18.804  0.00  0.00    +0.000 C 
BRANCH  19  20
ATOM     20  O   UNL     1      -0.929  12.856  17.383  0.00  0.00    +0.000 OA
ATOM     21  H   UNL     1      -0.365  13.578  17.057  0.00  0.00    +0.000 HD
ENDBRANCH  19  20
ENDBRANCH  18  19
ENDBRANCH  17  18
ENDBRANCH  16  17
ENDBRANCH   4  16
TORSDOF 9
ENDMDL
MODEL 4
REMARK VINA RESULT:      -5.7      4.171      6.240
REMARK  Name = 
REMARK  11 active torsions:
REMARK  status: ('A' for Active; 'I' for Inactive)
REMARK    1  A    between atoms: C_1  and  S_2
REMARK    2  A    between atoms: S_2  and  C_3
REMARK    3  A    between atoms: S_2  and  C_4
REMARK    4  A    between atoms: C_4  and  C_5
REMARK    5  A    between atoms: C_5  and  C_6
REMARK    6  A    between atoms: N_8  and  C_9
REMARK    7  A    between atoms: C_12  and  O_13
REMARK    8  A    between atoms: O_13  and  C_14
REMARK    9  A    between atoms: C_14  and  C_15
REMARK   10  A    between atoms: C_15  and  C_16
REMARK   11  A    between atoms: C_16  and  O_17
REMARK                            x       y       z     vdW  Elec       q    Type
REMARK                         _______ _______ _______ _____ _____    ______ ____
ROOT
ATOM      1  C   UNL     1       4.385   5.251  16.829  0.00  0.00    +0.000 A 
ATOM      2  C   UNL     1       4.536   3.873  16.696  0.00  0.00    +0.000 A 
ATOM      3  C   UNL     1       5.371   3.350  15.713  0.00  0.00    +0.000 A 
ATOM      4  C   UNL     1       6.088   4.197  14.866  0.00  0.00    +0.000 A 
ATOM      5  C   UNL     1       5.959   5.581  15.022  0.00  0.00    +0.000 A 
ATOM      6  C   UNL     1       5.083   6.107  15.981  0.00  0.00    +0.000 A 
ENDROOT
BRANCH   1   9
ATOM      7  C   UNL     1       3.749   5.816  19.141  0.00  0.00    +0.000 C 
ATOM      8  O   UNL     1       4.812   5.519  19.690  0.00  0.00    +0.000 OA
ATOM      9  N   UNL     1       3.513   5.791  17.776  0.00  0.00    +0.000 N 
ATOM     10  H   UNL     1       2.692   6.290  17.440  0.00  0.00    +0.000 HD
BRANCH   7  11
ATOM     11  C   UNL     1       2.570   6.316  19.931  0.00  0.00    +0.000 C 
BRANCH  11  12
ATOM     12  C   UNL     1       1.760   5.191  20.543  0.00  0.00    +0.000 C 
BRANCH  12  14
ATOM     13  C   UNL     1       1.189   3.099  18.940  0.00  0.00    +0.000 C 
ATOM     14  S   UNL     1       2.419   3.517  20.211  0.00  0.00    +0.000 S 
ATOM     15  C   UNL     1       1.613   2.661  21.585  0.00  0.00    +0.000 C 
ENDBRANCH  12  14
ENDBRANCH  11  12
ENDBRANCH   7  11
ENDBRANCH   1   9
BRANCH   4  16
ATOM     16  O   UNL     1       6.923   3.776  13.862  0.00  0.00    +0.000 OA
BRANCH  16  17
ATOM     17  C   UNL     1       6.495   4.136  12.545  0.00  0.00    +0.000 C 
BRANCH  17  18
ATOM     18  C   UNL     1       5.294   3.304  12.132  0.00  0.00    +0.000 C 
BRANCH  18  19
ATOM     19  C   UNL     1       5.700   1.968  11.532  0.00  0.00    +0.000 C 
BRANCH  19  20
ATOM     20  O   UNL     1       7.121   1.874  11.520  0.00  0.00    +0.000 OA
ATOM     21  H   UNL     1       7.341   0.935  11.396  0.00  0.00    +0.000 HD
ENDBRANCH  19  20
ENDBRANCH  18  19
ENDBRANCH  17  18
ENDBRANCH  16  17
ENDBRANCH   4  16
TORSDOF 9
ENDMDL
MODEL 5
REMARK VINA RESULT:      -5.7      5.581      7.209
REMARK  Name = 
REMARK  11 active torsions:
REMARK  status: ('A' for Active; 'I' for Inactive)
REMARK    1  A    between atoms: C_1  and  S_2
REMARK    2  A    between atoms: S_2  and  C_3
REMARK    3  A    between atoms: S_2  and  C_4
REMARK    4  A    between atoms: C_4  and  C_5
REMARK    5  A    between atoms: C_5  and  C_6
REMARK    6  A    between atoms: N_8  and  C_9
REMARK    7  A    between atoms: C_12  and  O_13
REMARK    8  A    between atoms: O_13  and  C_14
REMARK    9  A    between atoms: C_14  and  C_15
REMARK   10  A    between atoms: C_15  and  C_16
REMARK   11  A    between atoms: C_16  and  O_17
REMARK                            x       y       z     vdW  Elec       q    Type
REMARK                         _______ _______ _______ _____ _____    ______ ____
ROOT
ATOM      1  C   UNL     1       2.383   7.491  18.974  0.00  0.00    +0.000 A 
ATOM      2  C   UNL     1       1.781   7.817  20.186  0.00  0.00    +0.000 A 
ATOM      3  C   UNL     1       1.062   9.001  20.318  0.00  0.00    +0.000 A 
ATOM      4  C   UNL     1       0.913   9.865  19.232  0.00  0.00    +0.000 A 
ATOM      5  C   UNL     1       1.493   9.521  18.006  0.00  0.00    +0.000 A 
ATOM      6  C   UNL     1       2.255   8.351  17.887  0.00  0.00    +0.000 A 
ENDROOT
BRANCH   1   9
ATOM      7  C   UNL     1       2.684   5.134  18.323  0.00  0.00    +0.000 C 
ATOM      8  O   UNL     1       1.597   4.970  17.767  0.00  0.00    +0.000 OA
ATOM      9  N   UNL     1       3.150   6.333  18.841  0.00  0.00    +0.000 N 
ATOM     10  H   UNL     1       4.146   6.392  19.042  0.00  0.00    +0.000 HD
BRANCH   7  11
ATOM     11  C   UNL     1       3.683   4.015  18.443  0.00  0.00    +0.000 C 
BRANCH  11  12
ATOM     12  C   UNL     1       5.068   4.420  17.979  0.00  0.00    +0.000 C 
BRANCH  12  14
ATOM     13  C   UNL     1       7.072   4.361  16.177  0.00  0.00    +0.000 C 
ATOM     14  S   UNL     1       5.262   4.507  16.162  0.00  0.00    +0.000 S 
ATOM     15  C   UNL     1       5.189   6.306  15.996  0.00  0.00    +0.000 C 
ENDBRANCH  12  14
ENDBRANCH  11  12
ENDBRANCH   7  11
ENDBRANCH   1   9
BRANCH   4  16
ATOM     16  O   UNL     1       0.236  11.059  19.267  0.00  0.00    +0.000 OA
BRANCH  16  17
ATOM     17  C   UNL     1      -0.941  11.048  20.080  0.00  0.00    +0.000 C 
BRANCH  17  18
ATOM     18  C   UNL     1      -2.028  11.900  19.449  0.00  0.00    +0.000 C 
BRANCH  18  19
ATOM     19  C   UNL     1      -2.148  11.661  17.952  0.00  0.00    +0.000 C 
BRANCH  19  20
ATOM     20  O   UNL     1      -1.289  12.565  17.264  0.00  0.00    +0.000 OA
ATOM     21  H   UNL     1      -0.894  12.072  16.525  0.00  0.00    +0.000 HD
ENDBRANCH  19  20
ENDBRANCH  18  19
ENDBRANCH  17  18
ENDBRANCH  16  17
ENDBRANCH   4  16
TORSDOF 9
ENDMDL
MODEL 6
REMARK VINA RESULT:      -5.7      5.170      6.536
REMARK  Name = 
REMARK  11 active torsions:
REMARK  status: ('A' for Active; 'I' for Inactive)
REMARK    1  A    between atoms: C_1  and  S_2
REMARK    2  A    between atoms: S_2  and  C_3
REMARK    3  A    between atoms: S_2  and  C_4
REMARK    4  A    between atoms: C_4  and  C_5
REMARK    5  A    between atoms: C_5  and  C_6
REMARK    6  A    between atoms: N_8  and  C_9
REMARK    7  A    between atoms: C_12  and  O_13
REMARK    8  A    between atoms: O_13  and  C_14
REMARK    9  A    between atoms: C_14  and  C_15
REMARK   10  A    between atoms: C_15  and  C_16
REMARK   11  A    between atoms: C_16  and  O_17
REMARK                            x       y       z     vdW  Elec       q    Type
REMARK                         _______ _______ _______ _____ _____    ______ ____
ROOT
ATOM      1  C   UNL     1       2.556   7.383  18.690  0.00  0.00    +0.000 A 
ATOM      2  C   UNL     1       2.042   7.483  19.979  0.00  0.00    +0.000 A 
ATOM      3  C   UNL     1       1.312   8.605  20.360  0.00  0.00    +0.000 A 
ATOM      4  C   UNL     1       1.063   9.632  19.448  0.00  0.00    +0.000 A 
ATOM      5  C   UNL     1       1.554   9.516  18.143  0.00  0.00    +0.000 A 
ATOM      6  C   UNL     1       2.328   8.407  17.774  0.00  0.00    +0.000 A 
ENDROOT
BRANCH   1   9
ATOM      7  C   UNL     1       2.825   5.069  17.887  0.00  0.00    +0.000 C 
ATOM      8  O   UNL     1       1.641   4.834  17.638  0.00  0.00    +0.000 OA
ATOM      9  N   UNL     1       3.333   6.287  18.308  0.00  0.00    +0.000 N 
ATOM     10  H   UNL     1       4.340   6.417  18.236  0.00  0.00    +0.000 HD
BRANCH   7  11
ATOM     11  C   UNL     1       3.890   4.025  17.689  0.00  0.00    +0.000 C 
BRANCH  11  12
ATOM     12  C   UNL     1       4.726   3.803  18.935  0.00  0.00    +0.000 C 
BRANCH  12  14
ATOM     13  C   UNL     1       3.434   1.479  18.490  0.00  0.00    +0.000 C 
ATOM     14  S   UNL     1       4.311   2.283  19.863  0.00  0.00    +0.000 S 
ATOM     15  C   UNL     1       2.848   2.912  20.719  0.00  0.00    +0.000 C 
ENDBRANCH  12  14
ENDBRANCH  11  12
ENDBRANCH   7  11
ENDBRANCH   1   9
BRANCH   4  16
ATOM     16  O   UNL     1       0.368  10.780  19.733  0.00  0.00    +0.000 OA
BRANCH  16  17
ATOM     17  C   UNL     1      -0.719  10.604  20.646  0.00  0.00    +0.000 C 
BRANCH  17  18
ATOM     18  C   UNL     1      -0.510  11.452  21.888  0.00  0.00    +0.000 C 
BRANCH  18  19
ATOM     19  C   UNL     1      -1.125  10.818  23.125  0.00  0.00    +0.000 C 
BRANCH  19  20
ATOM     20  O   UNL     1      -0.746   9.447  23.187  0.00  0.00    +0.000 OA
ATOM     21  H   UNL     1      -1.465   8.975  23.640  0.00  0.00    +0.000 HD
ENDBRANCH  19  20
ENDBRANCH  18  19
ENDBRANCH  17  18
ENDBRANCH  16  17
ENDBRANCH   4  16
TORSDOF 9
ENDMDL
MODEL 7
REMARK VINA RESULT:      -5.7      4.977      6.854
REMARK  Name = 
REMARK  11 active torsions:
REMARK  status: ('A' for Active; 'I' for Inactive)
REMARK    1  A    between atoms: C_1  and  S_2
REMARK    2  A    between atoms: S_2  and  C_3
REMARK    3  A    between atoms: S_2  and  C_4
REMARK    4  A    between atoms: C_4  and  C_5
REMARK    5  A    between atoms: C_5  and  C_6
REMARK    6  A    between atoms: N_8  and  C_9
REMARK    7  A    between atoms: C_12  and  O_13
REMARK    8  A    between atoms: O_13  and  C_14
REMARK    9  A    between atoms: C_14  and  C_15
REMARK   10  A    between atoms: C_15  and  C_16
REMARK   11  A    between atoms: C_16  and  O_17
REMARK                            x       y       z     vdW  Elec       q    Type
REMARK                         _______ _______ _______ _____ _____    ______ ____
ROOT
ATOM      1  C   UNL     1       2.727   5.675  19.503  0.00  0.00    +0.000 A 
ATOM      2  C   UNL     1       2.006   4.871  18.624  0.00  0.00    +0.000 A 
ATOM      3  C   UNL     1       2.670   4.064  17.705  0.00  0.00    +0.000 A 
ATOM      4  C   UNL     1       4.065   4.029  17.669  0.00  0.00    +0.000 A 
ATOM      5  C   UNL     1       4.788   4.813  18.574  0.00  0.00    +0.000 A 
ATOM      6  C   UNL     1       4.119   5.660  19.468  0.00  0.00    +0.000 A 
ENDROOT
BRANCH   1   9
ATOM      7  C   UNL     1       1.759   7.850  20.134  0.00  0.00    +0.000 C 
ATOM      8  O   UNL     1       1.855   8.406  19.038  0.00  0.00    +0.000 OA
ATOM      9  N   UNL     1       2.077   6.528  20.397  0.00  0.00    +0.000 N 
ATOM     10  H   UNL     1       1.720   6.131  21.263  0.00  0.00    +0.000 HD
BRANCH   7  11
ATOM     11  C   UNL     1       1.202   8.570  21.332  0.00  0.00    +0.000 C 
BRANCH  11  12
ATOM     12  C   UNL     1      -0.038   9.377  21.001  0.00  0.00    +0.000 C 
BRANCH  12  14
ATOM     13  C   UNL     1      -1.052  10.676  23.135  0.00  0.00    +0.000 C 
ATOM     14  S   UNL     1      -0.039  11.075  21.681  0.00  0.00    +0.000 S 
ATOM     15  C   UNL     1      -1.374  11.745  20.662  0.00  0.00    +0.000 C 
ENDBRANCH  12  14
ENDBRANCH  11  12
ENDBRANCH   7  11
ENDBRANCH   1   9
BRANCH   4  16
ATOM     16  O   UNL     1       4.806   3.277  16.792  0.00  0.00    +0.000 OA
BRANCH  16  17
ATOM     17  C   UNL     1       5.904   3.974  16.195  0.00  0.00    +0.000 C 
BRANCH  17  18
ATOM     18  C   UNL     1       5.604   4.288  14.740  0.00  0.00    +0.000 C 
BRANCH  18  19
ATOM     19  C   UNL     1       6.851   4.691  13.971  0.00  0.00    +0.000 C 
BRANCH  19  20
ATOM     20  O   UNL     1       7.721   5.416  14.836  0.00  0.00    +0.000 OA
ATOM     21  H   UNL     1       7.955   6.239  14.375  0.00  0.00    +0.000 HD
ENDBRANCH  19  20
ENDBRANCH  18  19
ENDBRANCH  17  18
ENDBRANCH  16  17
ENDBRANCH   4  16
TORSDOF 9
ENDMDL
MODEL 8
REMARK VINA RESULT:      -5.7      3.512      8.213
REMARK  Name = 
REMARK  11 active torsions:
REMARK  status: ('A' for Active; 'I' for Inactive)
REMARK    1  A    between atoms: C_1  and  S_2
REMARK    2  A    between atoms: S_2  and  C_3
REMARK    3  A    between atoms: S_2  and  C_4
REMARK    4  A    between atoms: C_4  and  C_5
REMARK    5  A    between atoms: C_5  and  C_6
REMARK    6  A    between atoms: N_8  and  C_9
REMARK    7  A    between atoms: C_12  and  O_13
REMARK    8  A    between atoms: O_13  and  C_14
REMARK    9  A    between atoms: C_14  and  C_15
REMARK   10  A    between atoms: C_15  and  C_16
REMARK   11  A    between atoms: C_16  and  O_17
REMARK                            x       y       z     vdW  Elec       q    Type
REMARK                         _______ _______ _______ _____ _____    ______ ____
ROOT
ATOM      1  C   UNL     1       5.981   6.577  16.977  0.00  0.00    +0.000 A 
ATOM      2  C   UNL     1       6.468   5.363  16.502  0.00  0.00    +0.000 A 
ATOM      3  C   UNL     1       5.678   4.219  16.555  0.00  0.00    +0.000 A 
ATOM      4  C   UNL     1       4.379   4.278  17.061  0.00  0.00    +0.000 A 
ATOM      5  C   UNL     1       3.878   5.505  17.510  0.00  0.00    +0.000 A 
ATOM      6  C   UNL     1       4.691   6.646  17.498  0.00  0.00    +0.000 A 
ENDROOT
BRANCH   1   9
ATOM      7  C   UNL     1       7.792   7.977  17.887  0.00  0.00    +0.000 C 
ATOM      8  O   UNL     1       8.235   7.172  18.709  0.00  0.00    +0.000 OA
ATOM      9  N   UNL     1       6.778   7.723  16.977  0.00  0.00    +0.000 N 
ATOM     10  H   UNL     1       6.682   8.373  16.201  0.00  0.00    +0.000 HD
BRANCH   7  11
ATOM     11  C   UNL     1       8.379   9.355  17.743  0.00  0.00    +0.000 C 
BRANCH  11  12
ATOM     12  C   UNL     1       9.048   9.838  19.014  0.00  0.00    +0.000 C 
BRANCH  12  14
ATOM     13  C   UNL     1      10.738  11.602  17.874  0.00  0.00    +0.000 C 
ATOM     14  S   UNL     1       9.367  11.639  19.064  0.00  0.00    +0.000 S 
ATOM     15  C   UNL     1      10.378  11.665  20.563  0.00  0.00    +0.000 C 
ENDBRANCH  12  14
ENDBRANCH  11  12
ENDBRANCH   7  11
ENDBRANCH   1   9
BRANCH   4  16
ATOM     16  O   UNL     1       3.530   3.204  17.167  0.00  0.00    +0.000 OA
BRANCH  16  17
ATOM     17  C   UNL     1       2.605   3.284  18.254  0.00  0.00    +0.000 C 
BRANCH  17  18
ATOM     18  C   UNL     1       3.091   2.449  19.426  0.00  0.00    +0.000 C 
BRANCH  18  19
ATOM     19  C   UNL     1       2.726   3.072  20.764  0.00  0.00    +0.000 C 
BRANCH  19  20
ATOM     20  O   UNL     1       1.504   2.503  21.227  0.00  0.00    +0.000 OA
ATOM     21  H   UNL     1       1.499   1.574  20.942  0.00  0.00    +0.000 HD
ENDBRANCH  19  20
ENDBRANCH  18  19
ENDBRANCH  17  18
ENDBRANCH  16  17
ENDBRANCH   4  16
TORSDOF 9
ENDMDL
MODEL 9
REMARK VINA RESULT:      -5.6      3.616      8.310
REMARK  Name = 
REMARK  11 active torsions:
REMARK  status: ('A' for Active; 'I' for Inactive)
REMARK    1  A    between atoms: C_1  and  S_2
REMARK    2  A    between atoms: S_2  and  C_3
REMARK    3  A    between atoms: S_2  and  C_4
REMARK    4  A    between atoms: C_4  and  C_5
REMARK    5  A    between atoms: C_5  and  C_6
REMARK    6  A    between atoms: N_8  and  C_9
REMARK    7  A    between atoms: C_12  and  O_13
REMARK    8  A    between atoms: O_13  and  C_14
REMARK    9  A    between atoms: C_14  and  C_15
REMARK   10  A    between atoms: C_15  and  C_16
REMARK   11  A    between atoms: C_16  and  O_17
REMARK                            x       y       z     vdW  Elec       q    Type
REMARK                         _______ _______ _______ _____ _____    ______ ____
ROOT
ATOM      1  C   UNL     1       6.338   6.807  17.058  0.00  0.00    +0.000 A 
ATOM      2  C   UNL     1       4.986   6.780  17.386  0.00  0.00    +0.000 A 
ATOM      3  C   UNL     1       4.260   5.597  17.284  0.00  0.00    +0.000 A 
ATOM      4  C   UNL     1       4.883   4.417  16.875  0.00  0.00    +0.000 A 
ATOM      5  C   UNL     1       6.249   4.438  16.575  0.00  0.00    +0.000 A 
ATOM      6  C   UNL     1       6.968   5.639  16.634  0.00  0.00    +0.000 A 
ENDROOT
BRANCH   1   9
ATOM      7  C   UNL     1       8.051   8.279  18.041  0.00  0.00    +0.000 C 
ATOM      8  O   UNL     1       8.528   7.475  18.844  0.00  0.00    +0.000 OA
ATOM      9  N   UNL     1       7.067   7.996  17.107  0.00  0.00    +0.000 N 
ATOM     10  H   UNL     1       6.944   8.665  16.350  0.00  0.00    +0.000 HD
BRANCH   7  11
ATOM     11  C   UNL     1       8.558   9.692  17.950  0.00  0.00    +0.000 C 
BRANCH  11  12
ATOM     12  C   UNL     1       9.282  10.133  19.207  0.00  0.00    +0.000 C 
BRANCH  12  14
ATOM     13  C   UNL     1      11.498  11.602  18.759  0.00  0.00    +0.000 C 
ATOM     14  S   UNL     1       9.767  11.897  19.223  0.00  0.00    +0.000 S 
ATOM     15  C   UNL     1      10.041  12.058  21.002  0.00  0.00    +0.000 C 
ENDBRANCH  12  14
ENDBRANCH  11  12
ENDBRANCH   7  11
ENDBRANCH   1   9
BRANCH   4  16
ATOM     16  O   UNL     1       4.250   3.207  16.730  0.00  0.00    +0.000 OA
BRANCH  16  17
ATOM     17  C   UNL     1       3.080   3.050  17.537  0.00  0.00    +0.000 C 
BRANCH  17  18
ATOM     18  C   UNL     1       3.320   2.016  18.622  0.00  0.00    +0.000 C 
BRANCH  18  19
ATOM     19  C   UNL     1       3.071   2.576  20.013  0.00  0.00    +0.000 C 
BRANCH  19  20
ATOM     20  O   UNL     1       1.685   2.467  20.321  0.00  0.00    +0.000 OA
ATOM     21  H   UNL     1       1.473   1.519  20.341  0.00  0.00    +0.000 HD
ENDBRANCH  19  20
ENDBRANCH  18  19
ENDBRANCH  17  18
ENDBRANCH  16  17
ENDBRANCH   4  16
TORSDOF 9
ENDMDL
