MODEL 1
REMARK VINA RESULT:      -8.3      0.000      0.000
REMARK  Name = 
REMARK  4 active torsions:
REMARK  status: ('A' for Active; 'I' for Inactive)
REMARK    1  A    between atoms: N_3  and  C_4
REMARK    2  A    between atoms: N_10  and  C_11
REMARK    3  A    between atoms: C_14  and  C_15
REMARK    4  A    between atoms: C_16  and  C_17
REMARK                            x       y       z     vdW  Elec       q    Type
REMARK                         _______ _______ _______ _____ _____    ______ ____
ROOT
ATOM      1  C   UNL     1       6.815   6.140  18.173  0.00  0.00    +0.000 A 
ATOM      2  C   UNL     1       6.507   7.139  17.242  0.00  0.00    +0.000 A 
ATOM      3  C   UNL     1       7.215   8.348  17.199  0.00  0.00    +0.000 A 
ATOM      4  C   UNL     1       8.257   8.586  18.090  0.00  0.00    +0.000 A 
ATOM      5  C   UNL     1       8.596   7.585  19.002  0.00  0.00    +0.000 A 
ATOM      6  C   UNL     1       7.883   6.370  19.044  0.00  0.00    +0.000 A 
ENDROOT
BRANCH   1  10
ATOM      7  O   UNL     1       4.022   5.749  18.877  0.00  0.00    +0.000 OA
ATOM      8  C   UNL     1       4.751   4.805  18.629  0.00  0.00    +0.000 C 
ATOM      9  N   UNL     1       4.355   3.475  18.732  0.00  0.00    +0.000 N 
ATOM     10  N   UNL     1       6.076   4.929  18.251  0.00  0.00    +0.000 N 
ATOM     11  H   UNL     1       5.075   2.776  18.746  0.00  0.00    +0.000 HD
ATOM     12  H   UNL     1       6.567   4.069  18.040  0.00  0.00    +0.000 HD
BRANCH   9  13
ATOM     13  C   UNL     1       3.067   3.072  19.182  0.00  0.00    +0.000 A 
ATOM     14  C   UNL     1       2.056   2.724  18.283  0.00  0.00    +0.000 A 
ATOM     15  C   UNL     1       0.782   2.381  18.713  0.00  0.00    +0.000 A 
ATOM     16  C   UNL     1       0.491   2.372  20.069  0.00  0.00    +0.000 A 
ATOM     17  C   UNL     1       1.484   2.699  20.994  0.00  0.00    +0.000 A 
ATOM     18  C   UNL     1       2.774   3.038  20.555  0.00  0.00    +0.000 A 
ENDBRANCH   9  13
ENDBRANCH   1  10
BRANCH   4  19
ATOM     19  C   UNL     1       8.959   9.855  18.102  0.00  0.00    +0.000 C 
ATOM     20  C   UNL     1       9.495  10.928  18.127  0.00  0.00    +0.000 C 
BRANCH  20  21
ATOM     21  C   UNL     1      10.043  12.276  18.109  0.00  0.00    +0.000 A 
ATOM     22  C   UNL     1      11.509  12.494  18.173  0.00  0.00    +0.000 A 
ATOM     23  C   UNL     1      11.948  13.759  18.150  0.00  0.00    +0.000 A 
ATOM     24  C   UNL     1      11.010  14.810  18.066  0.00  0.00    +0.000 A 
ATOM     25  N   UNL     1      11.180  16.116  18.036  0.00  0.00    +0.000 NA
ATOM     26  C   UNL     1       9.917  16.641  17.949  0.00  0.00    +0.000 A 
ATOM     27  C   UNL     1       8.969  15.639  17.923  0.00  0.00    +0.000 A 
ATOM     28  N   UNL     1       9.667  14.463  18.004  0.00  0.00    +0.000 N 
ATOM     29  N   UNL     1       9.128  13.193  18.023  0.00  0.00    +0.000 NA
ENDBRANCH  20  21
ENDBRANCH   4  19
TORSDOF 4
ENDMDL
MODEL 2
REMARK VINA RESULT:      -8.2      0.470      1.035
REMARK  Name = 
REMARK  4 active torsions:
REMARK  status: ('A' for Active; 'I' for Inactive)
REMARK    1  A    between atoms: N_3  and  C_4
REMARK    2  A    between atoms: N_10  and  C_11
REMARK    3  A    between atoms: C_14  and  C_15
REMARK    4  A    between atoms: C_16  and  C_17
REMARK                            x       y       z     vdW  Elec       q    Type
REMARK                         _______ _______ _______ _____ _____    ______ ____
ROOT
ATOM      1  C   UNL     1       6.928   6.341  18.178  0.00  0.00    +0.000 A 
ATOM      2  C   UNL     1       7.997   6.592  19.046  0.00  0.00    +0.000 A 
ATOM      3  C   UNL     1       8.691   7.809  19.024  0.00  0.00    +0.000 A 
ATOM      4  C   UNL     1       8.328   8.812  18.130  0.00  0.00    +0.000 A 
ATOM      5  C   UNL     1       7.242   8.587  17.282  0.00  0.00    +0.000 A 
ATOM      6  C   UNL     1       6.545   7.363  17.305  0.00  0.00    +0.000 A 
ENDROOT
BRANCH   1  10
ATOM      7  O   UNL     1       4.174   5.764  18.908  0.00  0.00    +0.000 OA
ATOM      8  C   UNL     1       4.936   4.879  18.559  0.00  0.00    +0.000 C 
ATOM      9  N   UNL     1       4.599   3.529  18.550  0.00  0.00    +0.000 N 
ATOM     10  N   UNL     1       6.244   5.095  18.164  0.00  0.00    +0.000 N 
ATOM     11  H   UNL     1       5.349   2.864  18.484  0.00  0.00    +0.000 HD
ATOM     12  H   UNL     1       6.765   4.281  17.865  0.00  0.00    +0.000 HD
BRANCH   9  13
ATOM     13  C   UNL     1       3.342   3.030  18.991  0.00  0.00    +0.000 A 
ATOM     14  C   UNL     1       2.315   2.742  18.089  0.00  0.00    +0.000 A 
ATOM     15  C   UNL     1       1.069   2.305  18.516  0.00  0.00    +0.000 A 
ATOM     16  C   UNL     1       0.823   2.139  19.871  0.00  0.00    +0.000 A 
ATOM     17  C   UNL     1       1.834   2.404  20.797  0.00  0.00    +0.000 A 
ATOM     18  C   UNL     1       3.096   2.838  20.359  0.00  0.00    +0.000 A 
ENDBRANCH   9  13
ENDBRANCH   1  10
BRANCH   4  19
ATOM     19  C   UNL     1       9.075  10.053  18.051  0.00  0.00    +0.000 C 
ATOM     20  C   UNL     1       9.648  11.103  17.969  0.00  0.00    +0.000 C 
BRANCH  20  21
ATOM     21  C   UNL     1      10.278  12.399  17.768  0.00  0.00    +0.000 A 
ATOM     22  C   UNL     1      11.725  12.492  17.454  0.00  0.00    +0.000 A 
ATOM     23  C   UNL     1      12.244  13.714  17.278  0.00  0.00    +0.000 A 
ATOM     24  C   UNL     1      11.402  14.840  17.397  0.00  0.00    +0.000 A 
ATOM     25  N   UNL     1      11.662  16.127  17.281  0.00  0.00    +0.000 NA
ATOM     26  C   UNL     1      10.464  16.757  17.497  0.00  0.00    +0.000 A 
ATOM     27  C   UNL     1       9.464  15.840  17.744  0.00  0.00    +0.000 A 
ATOM     28  N   UNL     1      10.064  14.608  17.687  0.00  0.00    +0.000 N 
ATOM     29  N   UNL     1       9.448  13.390  17.884  0.00  0.00    +0.000 NA
ENDBRANCH  20  21
ENDBRANCH   4  19
TORSDOF 4
ENDMDL
MODEL 3
REMARK VINA RESULT:      -7.7      0.632      1.452
REMARK  Name = 
REMARK  4 active torsions:
REMARK  status: ('A' for Active; 'I' for Inactive)
REMARK    1  A    between atoms: N_3  and  C_4
REMARK    2  A    between atoms: N_10  and  C_11
REMARK    3  A    between atoms: C_14  and  C_15
REMARK    4  A    between atoms: C_16  and  C_17
REMARK                            x       y       z     vdW  Elec       q    Type
REMARK                         _______ _______ _______ _____ _____    ______ ____
ROOT
ATOM      1  C   UNL     1       6.775   6.391  18.038  0.00  0.00    +0.000 A 
ATOM      2  C   UNL     1       7.864   6.550  18.902  0.00  0.00    +0.000 A 
ATOM      3  C   UNL     1       8.597   7.743  18.951  0.00  0.00    +0.000 A 
ATOM      4  C   UNL     1       8.254   8.814  18.132  0.00  0.00    +0.000 A 
ATOM      5  C   UNL     1       7.149   8.681  17.288  0.00  0.00    +0.000 A 
ATOM      6  C   UNL     1       6.414   7.480  17.240  0.00  0.00    +0.000 A 
ENDROOT
BRANCH   1  10
ATOM      7  O   UNL     1       4.075   5.805  18.938  0.00  0.00    +0.000 OA
ATOM      8  C   UNL     1       4.775   4.945  18.433  0.00  0.00    +0.000 C 
ATOM      9  N   UNL     1       4.394   3.612  18.311  0.00  0.00    +0.000 N 
ATOM     10  N   UNL     1       6.051   5.171  17.951  0.00  0.00    +0.000 N 
ATOM     11  H   UNL     1       5.112   2.941  18.111  0.00  0.00    +0.000 HD
ATOM     12  H   UNL     1       6.518   4.381  17.524  0.00  0.00    +0.000 HD
BRANCH   9  13
ATOM     13  C   UNL     1       3.161   3.100  18.804  0.00  0.00    +0.000 A 
ATOM     14  C   UNL     1       2.985   2.804  20.158  0.00  0.00    +0.000 A 
ATOM     15  C   UNL     1       1.804   2.256  20.638  0.00  0.00    +0.000 A 
ATOM     16  C   UNL     1       0.759   1.995  19.763  0.00  0.00    +0.000 A 
ATOM     17  C   UNL     1       0.899   2.294  18.407  0.00  0.00    +0.000 A 
ATOM     18  C   UNL     1       2.093   2.857  17.927  0.00  0.00    +0.000 A 
ENDBRANCH   9  13
ENDBRANCH   1  10
BRANCH   4  19
ATOM     19  C   UNL     1       9.039  10.034  18.123  0.00  0.00    +0.000 C 
ATOM     20  C   UNL     1       9.691  11.039  18.169  0.00  0.00    +0.000 C 
BRANCH  20  21
ATOM     21  C   UNL     1      10.420  12.289  18.325  0.00  0.00    +0.000 A 
ATOM     22  C   UNL     1      11.712  12.322  19.053  0.00  0.00    +0.000 A 
ATOM     23  C   UNL     1      12.333  13.503  19.160  0.00  0.00    +0.000 A 
ATOM     24  C   UNL     1      11.740  14.645  18.580  0.00  0.00    +0.000 A 
ATOM     25  N   UNL     1      12.137  15.902  18.551  0.00  0.00    +0.000 NA
ATOM     26  C   UNL     1      11.166  16.569  17.851  0.00  0.00    +0.000 A 
ATOM     27  C   UNL     1      10.170  15.705  17.446  0.00  0.00    +0.000 A 
ATOM     28  N   UNL     1      10.532  14.470  17.919  0.00  0.00    +0.000 N 
ATOM     29  N   UNL     1       9.824  13.297  17.763  0.00  0.00    +0.000 NA
ENDBRANCH  20  21
ENDBRANCH   4  19
TORSDOF 4
ENDMDL
MODEL 4
REMARK VINA RESULT:      -7.6      6.799      8.917
REMARK  Name = 
REMARK  4 active torsions:
REMARK  status: ('A' for Active; 'I' for Inactive)
REMARK    1  A    between atoms: N_3  and  C_4
REMARK    2  A    between atoms: N_10  and  C_11
REMARK    3  A    between atoms: C_14  and  C_15
REMARK    4  A    between atoms: C_16  and  C_17
REMARK                            x       y       z     vdW  Elec       q    Type
REMARK                         _______ _______ _______ _____ _____    ______ ____
ROOT
ATOM      1  C   UNL     1       3.303   6.051  18.233  0.00  0.00    +0.000 A 
ATOM      2  C   UNL     1       2.903   5.780  19.546  0.00  0.00    +0.000 A 
ATOM      3  C   UNL     1       2.186   6.715  20.304  0.00  0.00    +0.000 A 
ATOM      4  C   UNL     1       1.847   7.951  19.762  0.00  0.00    +0.000 A 
ATOM      5  C   UNL     1       2.211   8.222  18.442  0.00  0.00    +0.000 A 
ATOM      6  C   UNL     1       2.933   7.281  17.681  0.00  0.00    +0.000 A 
ENDROOT
BRANCH   1  10
ATOM      7  O   UNL     1       4.907   6.532  15.857  0.00  0.00    +0.000 OA
ATOM      8  C   UNL     1       4.783   5.413  16.322  0.00  0.00    +0.000 C 
ATOM      9  N   UNL     1       5.318   4.269  15.736  0.00  0.00    +0.000 N 
ATOM     10  N   UNL     1       4.067   5.127  17.470  0.00  0.00    +0.000 N 
ATOM     11  H   UNL     1       4.967   3.382  16.047  0.00  0.00    +0.000 HD
ATOM     12  H   UNL     1       4.067   4.161  17.773  0.00  0.00    +0.000 HD
BRANCH   9  13
ATOM     13  C   UNL     1       6.028   4.278  14.503  0.00  0.00    +0.000 A 
ATOM     14  C   UNL     1       7.185   5.042  14.334  0.00  0.00    +0.000 A 
ATOM     15  C   UNL     1       7.853   5.096  13.119  0.00  0.00    +0.000 A 
ATOM     16  C   UNL     1       7.376   4.373  12.036  0.00  0.00    +0.000 A 
ATOM     17  C   UNL     1       6.231   3.587  12.178  0.00  0.00    +0.000 A 
ATOM     18  C   UNL     1       5.562   3.528  13.412  0.00  0.00    +0.000 A 
ENDBRANCH   9  13
ENDBRANCH   1  10
BRANCH   4  19
ATOM     19  C   UNL     1       1.159   8.955  20.552  0.00  0.00    +0.000 C 
ATOM     20  C   UNL     1       0.585   9.813  21.162  0.00  0.00    +0.000 C 
BRANCH  20  21
ATOM     21  C   UNL     1      -0.051  10.937  21.833  0.00  0.00    +0.000 A 
ATOM     22  C   UNL     1      -1.178  10.714  22.771  0.00  0.00    +0.000 A 
ATOM     23  C   UNL     1      -1.719  11.789  23.357  0.00  0.00    +0.000 A 
ATOM     24  C   UNL     1      -1.197  13.067  23.061  0.00  0.00    +0.000 A 
ATOM     25  N   UNL     1      -1.549  14.262  23.490  0.00  0.00    +0.000 NA
ATOM     26  C   UNL     1      -0.694  15.134  22.868  0.00  0.00    +0.000 A 
ATOM     27  C   UNL     1       0.191  14.457  22.054  0.00  0.00    +0.000 A 
ATOM     28  N   UNL     1      -0.134  13.131  22.170  0.00  0.00    +0.000 N 
ATOM     29  N   UNL     1       0.480  12.080  21.522  0.00  0.00    +0.000 NA
ENDBRANCH  20  21
ENDBRANCH   4  19
TORSDOF 4
ENDMDL
MODEL 5
REMARK VINA RESULT:      -7.6      7.101      9.448
REMARK  Name = 
REMARK  4 active torsions:
REMARK  status: ('A' for Active; 'I' for Inactive)
REMARK    1  A    between atoms: N_3  and  C_4
REMARK    2  A    between atoms: N_10  and  C_11
REMARK    3  A    between atoms: C_14  and  C_15
REMARK    4  A    between atoms: C_16  and  C_17
REMARK                            x       y       z     vdW  Elec       q    Type
REMARK                         _______ _______ _______ _____ _____    ______ ____
ROOT
ATOM      1  C   UNL     1       3.657   6.275  18.167  0.00  0.00    +0.000 A 
ATOM      2  C   UNL     1       3.111   5.930  19.408  0.00  0.00    +0.000 A 
ATOM      3  C   UNL     1       2.244   6.790  20.095  0.00  0.00    +0.000 A 
ATOM      4  C   UNL     1       1.897   8.023  19.552  0.00  0.00    +0.000 A 
ATOM      5  C   UNL     1       2.408   8.366  18.298  0.00  0.00    +0.000 A 
ATOM      6  C   UNL     1       3.280   7.500  17.609  0.00  0.00    +0.000 A 
ENDROOT
BRANCH   1  10
ATOM      7  O   UNL     1       4.816   6.604  15.522  0.00  0.00    +0.000 OA
ATOM      8  C   UNL     1       5.059   5.623  16.203  0.00  0.00    +0.000 C 
ATOM      9  N   UNL     1       5.832   4.552  15.765  0.00  0.00    +0.000 N 
ATOM     10  N   UNL     1       4.569   5.428  17.481  0.00  0.00    +0.000 N 
ATOM     11  H   UNL     1       5.778   3.697  16.289  0.00  0.00    +0.000 HD
ATOM     12  H   UNL     1       4.872   4.587  17.956  0.00  0.00    +0.000 HD
BRANCH   9  13
ATOM     13  C   UNL     1       6.384   4.465  14.457  0.00  0.00    +0.000 A 
ATOM     14  C   UNL     1       7.466   5.258  14.069  0.00  0.00    +0.000 A 
ATOM     15  C   UNL     1       7.978   5.216  12.779  0.00  0.00    +0.000 A 
ATOM     16  C   UNL     1       7.413   4.365  11.841  0.00  0.00    +0.000 A 
ATOM     17  C   UNL     1       6.341   3.547  12.203  0.00  0.00    +0.000 A 
ATOM     18  C   UNL     1       5.833   3.587  13.512  0.00  0.00    +0.000 A 
ENDBRANCH   9  13
ENDBRANCH   1  10
BRANCH   4  19
ATOM     19  C   UNL     1       1.051   8.952  20.276  0.00  0.00    +0.000 C 
ATOM     20  C   UNL     1       0.313   9.710  20.841  0.00  0.00    +0.000 C 
BRANCH  20  21
ATOM     21  C   UNL     1      -0.624  10.662  21.417  0.00  0.00    +0.000 A 
ATOM     22  C   UNL     1      -0.895  10.666  22.875  0.00  0.00    +0.000 A 
ATOM     23  C   UNL     1      -1.766  11.569  23.341  0.00  0.00    +0.000 A 
ATOM     24  C   UNL     1      -2.377  12.465  22.437  0.00  0.00    +0.000 A 
ATOM     25  N   UNL     1      -3.257  13.425  22.637  0.00  0.00    +0.000 NA
ATOM     26  C   UNL     1      -3.489  13.963  21.398  0.00  0.00    +0.000 A 
ATOM     27  C   UNL     1      -2.735  13.324  20.435  0.00  0.00    +0.000 A 
ATOM     28  N   UNL     1      -2.025  12.357  21.099  0.00  0.00    +0.000 N 
ATOM     29  N   UNL     1      -1.143  11.460  20.533  0.00  0.00    +0.000 NA
ENDBRANCH  20  21
ENDBRANCH   4  19
TORSDOF 4
ENDMDL
MODEL 6
REMARK VINA RESULT:      -7.6      8.788     12.495
REMARK  Name = 
REMARK  4 active torsions:
REMARK  status: ('A' for Active; 'I' for Inactive)
REMARK    1  A    between atoms: N_3  and  C_4
REMARK    2  A    between atoms: N_10  and  C_11
REMARK    3  A    between atoms: C_14  and  C_15
REMARK    4  A    between atoms: C_16  and  C_17
REMARK                            x       y       z     vdW  Elec       q    Type
REMARK                         _______ _______ _______ _____ _____    ______ ____
ROOT
ATOM      1  C   UNL     1      -1.263  11.484  22.500  0.00  0.00    +0.000 A 
ATOM      2  C   UNL     1      -0.974  11.474  21.130  0.00  0.00    +0.000 A 
ATOM      3  C   UNL     1      -0.218  10.450  20.545  0.00  0.00    +0.000 A 
ATOM      4  C   UNL     1       0.268   9.401  21.321  0.00  0.00    +0.000 A 
ATOM      5  C   UNL     1      -0.040   9.381  22.682  0.00  0.00    +0.000 A 
ATOM      6  C   UNL     1      -0.800  10.412  23.269  0.00  0.00    +0.000 A 
ENDROOT
BRANCH   1  10
ATOM      7  O   UNL     1      -0.344  14.132  23.266  0.00  0.00    +0.000 OA
ATOM      8  C   UNL     1      -1.487  13.770  23.485  0.00  0.00    +0.000 C 
ATOM      9  N   UNL     1      -2.422  14.536  24.174  0.00  0.00    +0.000 N 
ATOM     10  N   UNL     1      -1.993  12.539  23.110  0.00  0.00    +0.000 N 
ATOM     11  H   UNL     1      -3.243  14.071  24.514  0.00  0.00    +0.000 HD
ATOM     12  H   UNL     1      -2.969  12.370  23.319  0.00  0.00    +0.000 HD
BRANCH   9  13
ATOM     13  C   UNL     1      -2.129  15.809  24.740  0.00  0.00    +0.000 A 
ATOM     14  C   UNL     1      -2.462  16.994  24.080  0.00  0.00    +0.000 A 
ATOM     15  C   UNL     1      -2.134  18.238  24.602  0.00  0.00    +0.000 A 
ATOM     16  C   UNL     1      -1.463  18.322  25.813  0.00  0.00    +0.000 A 
ATOM     17  C   UNL     1      -1.131  17.156  26.505  0.00  0.00    +0.000 A 
ATOM     18  C   UNL     1      -1.473  15.900  25.977  0.00  0.00    +0.000 A 
ENDBRANCH   9  13
ENDBRANCH   1  10
BRANCH   4  19
ATOM     19  C   UNL     1       1.105   8.366  20.744  0.00  0.00    +0.000 C 
ATOM     20  C   UNL     1       1.767   7.512  20.224  0.00  0.00    +0.000 C 
BRANCH  20  21
ATOM     21  C   UNL     1       2.466   6.431  19.547  0.00  0.00    +0.000 A 
ATOM     22  C   UNL     1       3.089   6.651  18.219  0.00  0.00    +0.000 A 
ATOM     23  C   UNL     1       3.719   5.615  17.650  0.00  0.00    +0.000 A 
ATOM     24  C   UNL     1       3.763   4.380  18.332  0.00  0.00    +0.000 A 
ATOM     25  N   UNL     1       4.303   3.228  17.993  0.00  0.00    +0.000 NA
ATOM     26  C   UNL     1       4.036   2.384  19.039  0.00  0.00    +0.000 A 
ATOM     27  C   UNL     1       3.328   3.035  20.028  0.00  0.00    +0.000 A 
ATOM     28  N   UNL     1       3.145   4.316  19.574  0.00  0.00    +0.000 N 
ATOM     29  N   UNL     1       2.475   5.327  20.230  0.00  0.00    +0.000 NA
ENDBRANCH  20  21
ENDBRANCH   4  19
TORSDOF 4
ENDMDL
MODEL 7
REMARK VINA RESULT:      -7.6      9.473     12.484
REMARK  Name = 
REMARK  4 active torsions:
REMARK  status: ('A' for Active; 'I' for Inactive)
REMARK    1  A    between atoms: N_3  and  C_4
REMARK    2  A    between atoms: N_10  and  C_11
REMARK    3  A    between atoms: C_14  and  C_15
REMARK    4  A    between atoms: C_16  and  C_17
REMARK                            x       y       z     vdW  Elec       q    Type
REMARK                         _______ _______ _______ _____ _____    ______ ____
ROOT
ATOM      1  C   UNL     1      -1.300  11.568  22.483  0.00  0.00    +0.000 A 
ATOM      2  C   UNL     1      -0.824  11.563  21.167  0.00  0.00    +0.000 A 
ATOM      3  C   UNL     1      -0.093  10.483  20.653  0.00  0.00    +0.000 A 
ATOM      4  C   UNL     1       0.179   9.374  21.449  0.00  0.00    +0.000 A 
ATOM      5  C   UNL     1      -0.318   9.352  22.753  0.00  0.00    +0.000 A 
ATOM      6  C   UNL     1      -1.053  10.438  23.268  0.00  0.00    +0.000 A 
ENDROOT
BRANCH   1  10
ATOM      7  O   UNL     1      -4.086  12.310  22.118  0.00  0.00    +0.000 OA
ATOM      8  C   UNL     1      -3.330  12.995  22.785  0.00  0.00    +0.000 C 
ATOM      9  N   UNL     1      -3.691  14.210  23.359  0.00  0.00    +0.000 N 
ATOM     10  N   UNL     1      -2.006  12.675  23.026  0.00  0.00    +0.000 N 
ATOM     11  H   UNL     1      -2.953  14.811  23.677  0.00  0.00    +0.000 HD
ATOM     12  H   UNL     1      -1.491  13.309  23.624  0.00  0.00    +0.000 HD
BRANCH   9  13
ATOM     13  C   UNL     1      -4.972  14.807  23.191  0.00  0.00    +0.000 A 
ATOM     14  C   UNL     1      -6.055  14.446  23.995  0.00  0.00    +0.000 A 
ATOM     15  C   UNL     1      -7.319  14.987  23.803  0.00  0.00    +0.000 A 
ATOM     16  C   UNL     1      -7.526  15.916  22.794  0.00  0.00    +0.000 A 
ATOM     17  C   UNL     1      -6.460  16.309  21.984  0.00  0.00    +0.000 A 
ATOM     18  C   UNL     1      -5.180  15.766  22.187  0.00  0.00    +0.000 A 
ENDBRANCH   9  13
ENDBRANCH   1  10
BRANCH   4  19
ATOM     19  C   UNL     1       0.987   8.276  20.954  0.00  0.00    +0.000 C 
ATOM     20  C   UNL     1       1.649   7.386  20.496  0.00  0.00    +0.000 C 
BRANCH  20  21
ATOM     21  C   UNL     1       2.372   6.303  19.848  0.00  0.00    +0.000 A 
ATOM     22  C   UNL     1       3.026   6.514  18.534  0.00  0.00    +0.000 A 
ATOM     23  C   UNL     1       3.678   5.478  17.992  0.00  0.00    +0.000 A 
ATOM     24  C   UNL     1       3.713   4.250  18.687  0.00  0.00    +0.000 A 
ATOM     25  N   UNL     1       4.270   3.098  18.374  0.00  0.00    +0.000 NA
ATOM     26  C   UNL     1       3.982   2.262  19.422  0.00  0.00    +0.000 A 
ATOM     27  C   UNL     1       3.245   2.919  20.385  0.00  0.00    +0.000 A 
ATOM     28  N   UNL     1       3.065   4.193  19.914  0.00  0.00    +0.000 N 
ATOM     29  N   UNL     1       2.372   5.206  20.543  0.00  0.00    +0.000 NA
ENDBRANCH  20  21
ENDBRANCH   4  19
TORSDOF 4
ENDMDL
MODEL 8
REMARK VINA RESULT:      -7.5      1.011      1.030
REMARK  Name = 
REMARK  4 active torsions:
REMARK  status: ('A' for Active; 'I' for Inactive)
REMARK    1  A    between atoms: N_3  and  C_4
REMARK    2  A    between atoms: N_10  and  C_11
REMARK    3  A    between atoms: C_14  and  C_15
REMARK    4  A    between atoms: C_16  and  C_17
REMARK                            x       y       z     vdW  Elec       q    Type
REMARK                         _______ _______ _______ _____ _____    ______ ____
ROOT
ATOM      1  C   UNL     1       7.056   6.330  17.930  0.00  0.00    +0.000 A 
ATOM      2  C   UNL     1       6.875   7.435  17.090  0.00  0.00    +0.000 A 
ATOM      3  C   UNL     1       7.577   8.631  17.288  0.00  0.00    +0.000 A 
ATOM      4  C   UNL     1       8.485   8.751  18.335  0.00  0.00    +0.000 A 
ATOM      5  C   UNL     1       8.700   7.646  19.160  0.00  0.00    +0.000 A 
ATOM      6  C   UNL     1       7.994   6.443  18.960  0.00  0.00    +0.000 A 
ENDROOT
BRANCH   1  10
ATOM      7  O   UNL     1       4.255   5.812  18.502  0.00  0.00    +0.000 OA
ATOM      8  C   UNL     1       4.990   4.933  18.089  0.00  0.00    +0.000 C 
ATOM      9  N   UNL     1       4.595   3.608  17.928  0.00  0.00    +0.000 N 
ATOM     10  N   UNL     1       6.320   5.126  17.763  0.00  0.00    +0.000 N 
ATOM     11  H   UNL     1       5.317   2.919  17.819  0.00  0.00    +0.000 HD
ATOM     12  H   UNL     1       6.816   4.323  17.398  0.00  0.00    +0.000 HD
BRANCH   9  13
ATOM     13  C   UNL     1       3.301   3.127  18.273  0.00  0.00    +0.000 A 
ATOM     14  C   UNL     1       2.146   3.672  17.706  0.00  0.00    +0.000 A 
ATOM     15  C   UNL     1       0.879   3.243  18.075  0.00  0.00    +0.000 A 
ATOM     16  C   UNL     1       0.739   2.245  19.027  0.00  0.00    +0.000 A 
ATOM     17  C   UNL     1       1.874   1.669  19.601  0.00  0.00    +0.000 A 
ATOM     18  C   UNL     1       3.155   2.100  19.218  0.00  0.00    +0.000 A 
ENDBRANCH   9  13
ENDBRANCH   1  10
BRANCH   4  19
ATOM     19  C   UNL     1       9.173  10.002  18.593  0.00  0.00    +0.000 C 
ATOM     20  C   UNL     1       9.697  11.055  18.826  0.00  0.00    +0.000 C 
BRANCH  20  21
ATOM     21  C   UNL     1      10.230  12.387  19.069  0.00  0.00    +0.000 A 
ATOM     22  C   UNL     1      11.634  12.568  19.512  0.00  0.00    +0.000 A 
ATOM     23  C   UNL     1      12.063  13.819  19.717  0.00  0.00    +0.000 A 
ATOM     24  C   UNL     1      11.173  14.893  19.504  0.00  0.00    +0.000 A 
ATOM     25  N   UNL     1      11.343  16.193  19.640  0.00  0.00    +0.000 NA
ATOM     26  C   UNL     1      10.139  16.751  19.295  0.00  0.00    +0.000 A 
ATOM     27  C   UNL     1       9.229  15.776  18.942  0.00  0.00    +0.000 A 
ATOM     28  N   UNL     1       9.888  14.582  19.082  0.00  0.00    +0.000 N 
ATOM     29  N   UNL     1       9.363  13.328  18.848  0.00  0.00    +0.000 NA
ENDBRANCH  20  21
ENDBRANCH   4  19
TORSDOF 4
ENDMDL
MODEL 9
REMARK VINA RESULT:      -7.4      9.148     11.489
REMARK  Name = 
REMARK  4 active torsions:
REMARK  status: ('A' for Active; 'I' for Inactive)
REMARK    1  A    between atoms: N_3  and  C_4
REMARK    2  A    between atoms: N_10  and  C_11
REMARK    3  A    between atoms: C_14  and  C_15
REMARK    4  A    between atoms: C_16  and  C_17
REMARK                            x       y       z     vdW  Elec       q    Type
REMARK                         _______ _______ _______ _____ _____    ______ ____
ROOT
ATOM      1  C   UNL     1      -1.552  12.070  19.080  0.00  0.00    +0.000 A 
ATOM      2  C   UNL     1      -0.252  12.152  19.592  0.00  0.00    +0.000 A 
ATOM      3  C   UNL     1       0.716  11.183  19.297  0.00  0.00    +0.000 A 
ATOM      4  C   UNL     1       0.406  10.104  18.475  0.00  0.00    +0.000 A 
ATOM      5  C   UNL     1      -0.877  10.028  17.931  0.00  0.00    +0.000 A 
ATOM      6  C   UNL     1      -1.850  11.003  18.229  0.00  0.00    +0.000 A 
ENDROOT
BRANCH   1  10
ATOM      7  O   UNL     1      -2.941  12.466  21.602  0.00  0.00    +0.000 OA
ATOM      8  C   UNL     1      -3.205  13.139  20.622  0.00  0.00    +0.000 C 
ATOM      9  N   UNL     1      -4.223  14.087  20.586  0.00  0.00    +0.000 N 
ATOM     10  N   UNL     1      -2.554  13.025  19.407  0.00  0.00    +0.000 N 
ATOM     11  H   UNL     1      -4.523  14.412  19.684  0.00  0.00    +0.000 HD
ATOM     12  H   UNL     1      -2.842  13.665  18.678  0.00  0.00    +0.000 HD
BRANCH   9  13
ATOM     13  C   UNL     1      -5.098  14.340  21.678  0.00  0.00    +0.000 A 
ATOM     14  C   UNL     1      -6.216  13.538  21.918  0.00  0.00    +0.000 A 
ATOM     15  C   UNL     1      -7.103  13.809  22.951  0.00  0.00    +0.000 A 
ATOM     16  C   UNL     1      -6.883  14.899  23.780  0.00  0.00    +0.000 A 
ATOM     17  C   UNL     1      -5.766  15.711  23.576  0.00  0.00    +0.000 A 
ATOM     18  C   UNL     1      -4.866  15.427  22.535  0.00  0.00    +0.000 A 
ENDBRANCH   9  13
ENDBRANCH   1  10
BRANCH   4  19
ATOM     19  C   UNL     1       1.377   9.059  18.209  0.00  0.00    +0.000 C 
ATOM     20  C   UNL     1       2.139   8.161  17.984  0.00  0.00    +0.000 C 
BRANCH  20  21
ATOM     21  C   UNL     1       2.991   7.000  17.779  0.00  0.00    +0.000 A 
ATOM     22  C   UNL     1       2.484   5.634  18.055  0.00  0.00    +0.000 A 
ATOM     23  C   UNL     1       3.318   4.608  17.844  0.00  0.00    +0.000 A 
ATOM     24  C   UNL     1       4.623   4.870  17.373  0.00  0.00    +0.000 A 
ATOM     25  N   UNL     1       5.619   4.054  17.097  0.00  0.00    +0.000 NA
ATOM     26  C   UNL     1       6.642   4.864  16.677  0.00  0.00    +0.000 A 
ATOM     27  C   UNL     1       6.258   6.189  16.695  0.00  0.00    +0.000 A 
ATOM     28  N   UNL     1       4.964   6.197  17.147  0.00  0.00    +0.000 N 
ATOM     29  N   UNL     1       4.173   7.310  17.339  0.00  0.00    +0.000 NA
ENDBRANCH  20  21
ENDBRANCH   4  19
TORSDOF 4
ENDMDL
