MODEL 1
REMARK VINA RESULT:      -7.1      0.000      0.000
REMARK  Name = 
REMARK  9 active torsions:
REMARK  status: ('A' for Active; 'I' for Inactive)
REMARK    1  A    between atoms: C_1  and  C_2
REMARK    2  A    between atoms: C_4  and  C_5
REMARK    3  A    between atoms: N_6  and  C_7
REMARK    4  A    between atoms: C_7  and  C_8
REMARK    5  A    between atoms: N_12  and  C_13
REMARK    6  A    between atoms: C_13  and  C_14
REMARK    7  A    between atoms: N_16  and  C_17
REMARK    8  A    between atoms: C_17  and  C_18
REMARK    9  A    between atoms: C_18  and  C_19
REMARK                            x       y       z     vdW  Elec       q    Type
REMARK                         _______ _______ _______ _____ _____    ______ ____
ROOT
ATOM      1  C   UNL     1       4.971   5.183  17.721  0.00  0.00    +0.000 C 
ATOM      2  C   UNL     1       5.227   3.750  17.259  0.00  0.00    +0.000 C 
ATOM      3  C   UNL     1       5.655   3.915  15.819  0.00  0.00    +0.000 C 
ATOM      4  C   UNL     1       6.361   5.259  15.781  0.00  0.00    +0.000 C 
ATOM      5  N   UNL     1       5.961   6.018  16.988  0.00  0.00    +0.000 NA
ENDROOT
BRANCH   1   6
ATOM      6  C   UNL     1       4.797   5.209  19.257  0.00  0.00    +0.000 C 
BRANCH   6  12
ATOM      7  C   UNL     1       1.478   2.699  21.579  0.00  0.00    +0.000 C 
ATOM      8  C   UNL     1       2.045   3.773  20.744  0.00  0.00    +0.000 A 
ATOM      9  N   UNL     1       1.502   5.028  20.657  0.00  0.00    +0.000 NA
ATOM     10  C   UNL     1       2.400   5.707  19.969  0.00  0.00    +0.000 A 
ATOM     11  C   UNL     1       2.306   7.123  19.549  0.00  0.00    +0.000 C 
ATOM     12  N   UNL     1       3.471   4.889  19.730  0.00  0.00    +0.000 N 
ATOM     13  N   UNL     1       3.201   3.622  20.095  0.00  0.00    +0.000 NA
ENDBRANCH   6  12
ENDBRANCH   1   6
BRANCH   5  14
ATOM     14  C   UNL     1       7.160   6.431  17.750  0.00  0.00    +0.000 C 
BRANCH  14  15
ATOM     15  C   UNL     1       7.418   7.943  17.636  0.00  0.00    +0.000 C 
ATOM     16  O   UNL     1       6.736   8.653  16.899  0.00  0.00    +0.000 OA
ATOM     17  N   UNL     1       8.490   8.423  18.365  0.00  0.00    +0.000 N 
ATOM     18  H   UNL     1       8.796   7.831  19.132  0.00  0.00    +0.000 HD
BRANCH  17  19
ATOM     19  C   UNL     1       8.792   9.847  18.353  0.00  0.00    +0.000 C 
BRANCH  19  20
ATOM     20  C   UNL     1       9.533  10.345  19.597  0.00  0.00    +0.000 C 
BRANCH  20  21
ATOM     21  C   UNL     1      10.524  11.437  19.275  0.00  0.00    +0.000 A 
ATOM     22  C   UNL     1      11.106  11.657  17.980  0.00  0.00    +0.000 A 
ATOM     23  C   UNL     1      11.973  12.727  17.960  0.00  0.00    +0.000 A 
ATOM     24  S   UNL     1      12.105  13.474  19.490  0.00  0.00    +0.000 S 
ATOM     25  C   UNL     1      11.000  12.366  20.183  0.00  0.00    +0.000 A 
ENDBRANCH  20  21
ENDBRANCH  19  20
ENDBRANCH  17  19
ENDBRANCH  14  15
ENDBRANCH   5  14
TORSDOF 7
ENDMDL
MODEL 2
REMARK VINA RESULT:      -7.1      4.520      7.762
REMARK  Name = 
REMARK  9 active torsions:
REMARK  status: ('A' for Active; 'I' for Inactive)
REMARK    1  A    between atoms: C_1  and  C_2
REMARK    2  A    between atoms: C_4  and  C_5
REMARK    3  A    between atoms: N_6  and  C_7
REMARK    4  A    between atoms: C_7  and  C_8
REMARK    5  A    between atoms: N_12  and  C_13
REMARK    6  A    between atoms: C_13  and  C_14
REMARK    7  A    between atoms: N_16  and  C_17
REMARK    8  A    between atoms: C_17  and  C_18
REMARK    9  A    between atoms: C_18  and  C_19
REMARK                            x       y       z     vdW  Elec       q    Type
REMARK                         _______ _______ _______ _____ _____    ______ ____
ROOT
ATOM      1  C   UNL     1       4.392   4.502  18.404  0.00  0.00    +0.000 C 
ATOM      2  C   UNL     1       4.230   3.004  18.153  0.00  0.00    +0.000 C 
ATOM      3  C   UNL     1       3.979   2.440  19.532  0.00  0.00    +0.000 C 
ATOM      4  C   UNL     1       3.250   3.548  20.272  0.00  0.00    +0.000 C 
ATOM      5  N   UNL     1       3.480   4.814  19.538  0.00  0.00    +0.000 NA
ENDROOT
BRANCH   1   6
ATOM      6  C   UNL     1       4.374   5.258  17.057  0.00  0.00    +0.000 C 
BRANCH   6  12
ATOM      7  C   UNL     1       6.630   3.979  13.058  0.00  0.00    +0.000 C 
ATOM      8  C   UNL     1       6.466   4.442  14.448  0.00  0.00    +0.000 A 
ATOM      9  N   UNL     1       7.367   5.257  15.083  0.00  0.00    +0.000 NA
ATOM     10  C   UNL     1       6.761   5.567  16.213  0.00  0.00    +0.000 A 
ATOM     11  C   UNL     1       7.303   6.405  17.306  0.00  0.00    +0.000 C 
ATOM     12  N   UNL     1       5.510   5.012  16.200  0.00  0.00    +0.000 N 
ATOM     13  N   UNL     1       5.362   4.182  15.150  0.00  0.00    +0.000 NA
ENDBRANCH   6  12
ENDBRANCH   1   6
BRANCH   5  14
ATOM     14  C   UNL     1       2.186   5.438  19.184  0.00  0.00    +0.000 C 
BRANCH  14  15
ATOM     15  C   UNL     1       2.109   6.901  19.654  0.00  0.00    +0.000 C 
ATOM     16  O   UNL     1       2.521   7.820  18.950  0.00  0.00    +0.000 OA
ATOM     17  N   UNL     1       1.605   7.094  20.928  0.00  0.00    +0.000 N 
ATOM     18  H   UNL     1       1.049   6.327  21.297  0.00  0.00    +0.000 HD
BRANCH  17  19
ATOM     19  C   UNL     1       1.456   8.444  21.449  0.00  0.00    +0.000 C 
BRANCH  19  20
ATOM     20  C   UNL     1       0.004   8.892  21.637  0.00  0.00    +0.000 C 
BRANCH  20  21
ATOM     21  C   UNL     1      -0.342  10.088  20.785  0.00  0.00    +0.000 A 
ATOM     22  C   UNL     1      -0.230  10.132  19.353  0.00  0.00    +0.000 A 
ATOM     23  C   UNL     1      -0.620  11.343  18.825  0.00  0.00    +0.000 A 
ATOM     24  S   UNL     1      -1.117  12.440  20.035  0.00  0.00    +0.000 S 
ATOM     25  C   UNL     1      -0.812  11.295  21.270  0.00  0.00    +0.000 A 
ENDBRANCH  20  21
ENDBRANCH  19  20
ENDBRANCH  17  19
ENDBRANCH  14  15
ENDBRANCH   5  14
TORSDOF 7
ENDMDL
MODEL 3
REMARK VINA RESULT:      -7.1      3.702      7.323
REMARK  Name = 
REMARK  9 active torsions:
REMARK  status: ('A' for Active; 'I' for Inactive)
REMARK    1  A    between atoms: C_1  and  C_2
REMARK    2  A    between atoms: C_4  and  C_5
REMARK    3  A    between atoms: N_6  and  C_7
REMARK    4  A    between atoms: C_7  and  C_8
REMARK    5  A    between atoms: N_12  and  C_13
REMARK    6  A    between atoms: C_13  and  C_14
REMARK    7  A    between atoms: N_16  and  C_17
REMARK    8  A    between atoms: C_17  and  C_18
REMARK    9  A    between atoms: C_18  and  C_19
REMARK                            x       y       z     vdW  Elec       q    Type
REMARK                         _______ _______ _______ _____ _____    ______ ____
ROOT
ATOM      1  C   UNL     1       4.224   4.153  18.331  0.00  0.00    +0.000 C 
ATOM      2  C   UNL     1       3.985   2.675  18.030  0.00  0.00    +0.000 C 
ATOM      3  C   UNL     1       3.760   2.069  19.396  0.00  0.00    +0.000 C 
ATOM      4  C   UNL     1       3.109   3.177  20.204  0.00  0.00    +0.000 C 
ATOM      5  N   UNL     1       3.368   4.460  19.510  0.00  0.00    +0.000 NA
ENDROOT
BRANCH   1   6
ATOM      6  C   UNL     1       4.190   4.962  17.015  0.00  0.00    +0.000 C 
BRANCH   6  12
ATOM      7  C   UNL     1       7.825   7.956  17.748  0.00  0.00    +0.000 C 
ATOM      8  C   UNL     1       6.979   6.980  17.038  0.00  0.00    +0.000 A 
ATOM      9  N   UNL     1       7.459   6.110  16.094  0.00  0.00    +0.000 NA
ATOM     10  C   UNL     1       6.434   5.315  15.855  0.00  0.00    +0.000 A 
ATOM     11  C   UNL     1       6.386   4.203  14.880  0.00  0.00    +0.000 C 
ATOM     12  N   UNL     1       5.410   5.664  16.695  0.00  0.00    +0.000 N 
ATOM     13  N   UNL     1       5.694   6.804  17.352  0.00  0.00    +0.000 NA
ENDBRANCH   6  12
ENDBRANCH   1   6
BRANCH   5  14
ATOM     14  C   UNL     1       2.092   5.153  19.230  0.00  0.00    +0.000 C 
BRANCH  14  15
ATOM     15  C   UNL     1       2.127   6.622  19.685  0.00  0.00    +0.000 C 
ATOM     16  O   UNL     1       2.650   7.492  18.994  0.00  0.00    +0.000 OA
ATOM     17  N   UNL     1       1.588   6.873  20.934  0.00  0.00    +0.000 N 
ATOM     18  H   UNL     1       0.950   6.164  21.285  0.00  0.00    +0.000 HD
BRANCH  17  19
ATOM     19  C   UNL     1       1.539   8.238  21.438  0.00  0.00    +0.000 C 
BRANCH  19  20
ATOM     20  C   UNL     1       0.195   8.941  21.225  0.00  0.00    +0.000 C 
BRANCH  20  21
ATOM     21  C   UNL     1       0.352  10.287  20.561  0.00  0.00    +0.000 A 
ATOM     22  C   UNL     1       0.543  10.485  19.151  0.00  0.00    +0.000 A 
ATOM     23  C   UNL     1       0.648  11.816  18.809  0.00  0.00    +0.000 A 
ATOM     24  S   UNL     1       0.526  12.839  20.170  0.00  0.00    +0.000 S 
ATOM     25  C   UNL     1       0.331  11.502  21.222  0.00  0.00    +0.000 A 
ENDBRANCH  20  21
ENDBRANCH  19  20
ENDBRANCH  17  19
ENDBRANCH  14  15
ENDBRANCH   5  14
TORSDOF 7
ENDMDL
MODEL 4
REMARK VINA RESULT:      -7.1      4.604      7.756
REMARK  Name = 
REMARK  9 active torsions:
REMARK  status: ('A' for Active; 'I' for Inactive)
REMARK    1  A    between atoms: C_1  and  C_2
REMARK    2  A    between atoms: C_4  and  C_5
REMARK    3  A    between atoms: N_6  and  C_7
REMARK    4  A    between atoms: C_7  and  C_8
REMARK    5  A    between atoms: N_12  and  C_13
REMARK    6  A    between atoms: C_13  and  C_14
REMARK    7  A    between atoms: N_16  and  C_17
REMARK    8  A    between atoms: C_17  and  C_18
REMARK    9  A    between atoms: C_18  and  C_19
REMARK                            x       y       z     vdW  Elec       q    Type
REMARK                         _______ _______ _______ _____ _____    ______ ____
ROOT
ATOM      1  C   UNL     1       3.945   3.439  17.893  0.00  0.00    +0.000 C 
ATOM      2  C   UNL     1       2.861   4.329  17.289  0.00  0.00    +0.000 C 
ATOM      3  C   UNL     1       1.609   3.493  17.412  0.00  0.00    +0.000 C 
ATOM      4  C   UNL     1       1.823   2.665  18.667  0.00  0.00    +0.000 C 
ATOM      5  N   UNL     1       3.271   2.675  18.978  0.00  0.00    +0.000 NA
ENDROOT
BRANCH   1   6
ATOM      6  C   UNL     1       5.237   4.263  18.100  0.00  0.00    +0.000 C 
BRANCH   6  12
ATOM      7  C   UNL     1       6.338   3.937  13.475  0.00  0.00    +0.000 C 
ATOM      8  C   UNL     1       6.474   4.331  14.889  0.00  0.00    +0.000 A 
ATOM      9  N   UNL     1       7.115   5.471  15.296  0.00  0.00    +0.000 NA
ATOM     10  C   UNL     1       6.852   5.531  16.587  0.00  0.00    +0.000 A 
ATOM     11  C   UNL     1       7.333   6.554  17.542  0.00  0.00    +0.000 C 
ATOM     12  N   UNL     1       6.014   4.495  16.906  0.00  0.00    +0.000 N 
ATOM     13  N   UNL     1       5.878   3.649  15.869  0.00  0.00    +0.000 NA
ENDBRANCH   6  12
ENDBRANCH   1   6
BRANCH   5  14
ATOM     14  C   UNL     1       3.491   3.164  20.357  0.00  0.00    +0.000 C 
BRANCH  14  15
ATOM     15  C   UNL     1       2.373   4.117  20.811  0.00  0.00    +0.000 C 
ATOM     16  O   UNL     1       1.364   3.696  21.372  0.00  0.00    +0.000 OA
ATOM     17  N   UNL     1       2.560   5.451  20.495  0.00  0.00    +0.000 N 
ATOM     18  H   UNL     1       3.518   5.722  20.295  0.00  0.00    +0.000 HD
BRANCH  17  19
ATOM     19  C   UNL     1       1.576   6.437  20.915  0.00  0.00    +0.000 C 
BRANCH  19  20
ATOM     20  C   UNL     1       1.802   7.839  20.341  0.00  0.00    +0.000 C 
BRANCH  20  21
ATOM     21  C   UNL     1       0.931   8.877  21.004  0.00  0.00    +0.000 A 
ATOM     22  C   UNL     1       0.121   8.643  22.167  0.00  0.00    +0.000 A 
ATOM     23  C   UNL     1      -0.570   9.765  22.572  0.00  0.00    +0.000 A 
ATOM     24  S   UNL     1      -0.262  11.105  21.560  0.00  0.00    +0.000 S 
ATOM     25  C   UNL     1       0.798  10.187  20.579  0.00  0.00    +0.000 A 
ENDBRANCH  20  21
ENDBRANCH  19  20
ENDBRANCH  17  19
ENDBRANCH  14  15
ENDBRANCH   5  14
TORSDOF 7
ENDMDL
MODEL 5
REMARK VINA RESULT:      -7.1      1.916      2.253
REMARK  Name = 
REMARK  9 active torsions:
REMARK  status: ('A' for Active; 'I' for Inactive)
REMARK    1  A    between atoms: C_1  and  C_2
REMARK    2  A    between atoms: C_4  and  C_5
REMARK    3  A    between atoms: N_6  and  C_7
REMARK    4  A    between atoms: C_7  and  C_8
REMARK    5  A    between atoms: N_12  and  C_13
REMARK    6  A    between atoms: C_13  and  C_14
REMARK    7  A    between atoms: N_16  and  C_17
REMARK    8  A    between atoms: C_17  and  C_18
REMARK    9  A    between atoms: C_18  and  C_19
REMARK                            x       y       z     vdW  Elec       q    Type
REMARK                         _______ _______ _______ _____ _____    ______ ____
ROOT
ATOM      1  C   UNL     1       5.120   5.345  16.661  0.00  0.00    +0.000 C 
ATOM      2  C   UNL     1       4.658   4.091  15.921  0.00  0.00    +0.000 C 
ATOM      3  C   UNL     1       5.599   4.012  14.741  0.00  0.00    +0.000 C 
ATOM      4  C   UNL     1       6.899   4.612  15.247  0.00  0.00    +0.000 C 
ATOM      5  N   UNL     1       6.594   5.402  16.463  0.00  0.00    +0.000 NA
ENDROOT
BRANCH   1   6
ATOM      6  C   UNL     1       4.439   5.409  18.048  0.00  0.00    +0.000 C 
BRANCH   6  12
ATOM      7  C   UNL     1       4.795   1.567  20.845  0.00  0.00    +0.000 C 
ATOM      8  C   UNL     1       4.231   2.467  19.823  0.00  0.00    +0.000 A 
ATOM      9  N   UNL     1       2.894   2.533  19.530  0.00  0.00    +0.000 NA
ATOM     10  C   UNL     1       2.807   3.566  18.714  0.00  0.00    +0.000 A 
ATOM     11  C   UNL     1       1.582   4.072  18.056  0.00  0.00    +0.000 C 
ATOM     12  N   UNL     1       4.048   4.133  18.598  0.00  0.00    +0.000 N 
ATOM     13  N   UNL     1       4.985   3.365  19.185  0.00  0.00    +0.000 NA
ENDBRANCH   6  12
ENDBRANCH   1   6
BRANCH   5  14
ATOM     14  C   UNL     1       7.425   4.935  17.594  0.00  0.00    +0.000 C 
BRANCH  14  15
ATOM     15  C   UNL     1       7.812   6.089  18.534  0.00  0.00    +0.000 C 
ATOM     16  O   UNL     1       7.832   5.939  19.753  0.00  0.00    +0.000 OA
ATOM     17  N   UNL     1       8.073   7.300  17.918  0.00  0.00    +0.000 N 
ATOM     18  H   UNL     1       8.300   7.246  16.929  0.00  0.00    +0.000 HD
BRANCH  17  19
ATOM     19  C   UNL     1       8.485   8.443  18.718  0.00  0.00    +0.000 C 
BRANCH  19  20
ATOM     20  C   UNL     1       8.462   9.779  17.969  0.00  0.00    +0.000 C 
BRANCH  20  21
ATOM     21  C   UNL     1       9.243  10.852  18.688  0.00  0.00    +0.000 A 
ATOM     22  C   UNL     1       9.659  10.779  20.061  0.00  0.00    +0.000 A 
ATOM     23  C   UNL     1      10.367  11.891  20.463  0.00  0.00    +0.000 A 
ATOM     24  S   UNL     1      10.534  13.034  19.206  0.00  0.00    +0.000 S 
ATOM     25  C   UNL     1       9.660  12.042  18.118  0.00  0.00    +0.000 A 
ENDBRANCH  20  21
ENDBRANCH  19  20
ENDBRANCH  17  19
ENDBRANCH  14  15
ENDBRANCH   5  14
TORSDOF 7
ENDMDL
MODEL 6
REMARK VINA RESULT:      -7.0      4.621      7.433
REMARK  Name = 
REMARK  9 active torsions:
REMARK  status: ('A' for Active; 'I' for Inactive)
REMARK    1  A    between atoms: C_1  and  C_2
REMARK    2  A    between atoms: C_4  and  C_5
REMARK    3  A    between atoms: N_6  and  C_7
REMARK    4  A    between atoms: C_7  and  C_8
REMARK    5  A    between atoms: N_12  and  C_13
REMARK    6  A    between atoms: C_13  and  C_14
REMARK    7  A    between atoms: N_16  and  C_17
REMARK    8  A    between atoms: C_17  and  C_18
REMARK    9  A    between atoms: C_18  and  C_19
REMARK                            x       y       z     vdW  Elec       q    Type
REMARK                         _______ _______ _______ _____ _____    ______ ____
ROOT
ATOM      1  C   UNL     1       3.385   3.345  18.340  0.00  0.00    +0.000 C 
ATOM      2  C   UNL     1       2.407   2.270  17.872  0.00  0.00    +0.000 C 
ATOM      3  C   UNL     1       1.244   2.411  18.826  0.00  0.00    +0.000 C 
ATOM      4  C   UNL     1       1.217   3.887  19.181  0.00  0.00    +0.000 C 
ATOM      5  N   UNL     1       2.536   4.464  18.835  0.00  0.00    +0.000 NA
ENDROOT
BRANCH   1   6
ATOM      6  C   UNL     1       4.506   3.519  17.290  0.00  0.00    +0.000 C 
BRANCH   6  12
ATOM      7  C   UNL     1       8.121   5.687  19.513  0.00  0.00    +0.000 C 
ATOM      8  C   UNL     1       7.016   5.506  18.554  0.00  0.00    +0.000 A 
ATOM      9  N   UNL     1       6.970   6.123  17.331  0.00  0.00    +0.000 NA
ATOM     10  C   UNL     1       5.936   5.557  16.738  0.00  0.00    +0.000 A 
ATOM     11  C   UNL     1       5.405   5.875  15.394  0.00  0.00    +0.000 C 
ATOM     12  N   UNL     1       5.443   4.582  17.564  0.00  0.00    +0.000 N 
ATOM     13  N   UNL     1       6.031   4.633  18.774  0.00  0.00    +0.000 NA
ENDBRANCH   6  12
ENDBRANCH   1   6
BRANCH   5  14
ATOM     14  C   UNL     1       2.366   5.611  17.917  0.00  0.00    +0.000 C 
BRANCH  14  15
ATOM     15  C   UNL     1       2.283   6.945  18.677  0.00  0.00    +0.000 C 
ATOM     16  O   UNL     1       2.551   7.015  19.874  0.00  0.00    +0.000 OA
ATOM     17  N   UNL     1       1.836   8.027  17.940  0.00  0.00    +0.000 N 
ATOM     18  H   UNL     1       1.913   7.929  16.932  0.00  0.00    +0.000 HD
BRANCH  17  19
ATOM     19  C   UNL     1       1.760   9.341  18.560  0.00  0.00    +0.000 C 
BRANCH  19  20
ATOM     20  C   UNL     1       0.334   9.854  18.779  0.00  0.00    +0.000 C 
BRANCH  20  21
ATOM     21  C   UNL     1      -0.011   9.979  20.243  0.00  0.00    +0.000 A 
ATOM     22  C   UNL     1       0.020   8.896  21.185  0.00  0.00    +0.000 A 
ATOM     23  C   UNL     1      -0.332   9.286  22.459  0.00  0.00    +0.000 A 
ATOM     24  S   UNL     1      -0.710  10.949  22.537  0.00  0.00    +0.000 S 
ATOM     25  C   UNL     1      -0.402  11.151  20.866  0.00  0.00    +0.000 A 
ENDBRANCH  20  21
ENDBRANCH  19  20
ENDBRANCH  17  19
ENDBRANCH  14  15
ENDBRANCH   5  14
TORSDOF 7
ENDMDL
MODEL 7
REMARK VINA RESULT:      -7.0      4.508      7.256
REMARK  Name = 
REMARK  9 active torsions:
REMARK  status: ('A' for Active; 'I' for Inactive)
REMARK    1  A    between atoms: C_1  and  C_2
REMARK    2  A    between atoms: C_4  and  C_5
REMARK    3  A    between atoms: N_6  and  C_7
REMARK    4  A    between atoms: C_7  and  C_8
REMARK    5  A    between atoms: N_12  and  C_13
REMARK    6  A    between atoms: C_13  and  C_14
REMARK    7  A    between atoms: N_16  and  C_17
REMARK    8  A    between atoms: C_17  and  C_18
REMARK    9  A    between atoms: C_18  and  C_19
REMARK                            x       y       z     vdW  Elec       q    Type
REMARK                         _______ _______ _______ _____ _____    ______ ____
ROOT
ATOM      1  C   UNL     1       3.282   3.428  19.562  0.00  0.00    +0.000 C 
ATOM      2  C   UNL     1       2.196   2.357  19.638  0.00  0.00    +0.000 C 
ATOM      3  C   UNL     1       1.224   2.912  20.652  0.00  0.00    +0.000 C 
ATOM      4  C   UNL     1       1.316   4.419  20.487  0.00  0.00    +0.000 C 
ATOM      5  N   UNL     1       2.577   4.722  19.772  0.00  0.00    +0.000 NA
ENDROOT
BRANCH   1   6
ATOM      6  C   UNL     1       4.209   3.142  18.358  0.00  0.00    +0.000 C 
BRANCH   6  12
ATOM      7  C   UNL     1       8.051   5.761  19.403  0.00  0.00    +0.000 C 
ATOM      8  C   UNL     1       6.911   5.259  18.615  0.00  0.00    +0.000 A 
ATOM      9  N   UNL     1       6.886   5.250  17.245  0.00  0.00    +0.000 NA
ATOM     10  C   UNL     1       5.793   4.569  16.959  0.00  0.00    +0.000 A 
ATOM     11  C   UNL     1       5.257   4.282  15.610  0.00  0.00    +0.000 C 
ATOM     12  N   UNL     1       5.240   4.126  18.131  0.00  0.00    +0.000 N 
ATOM     13  N   UNL     1       5.861   4.673  19.193  0.00  0.00    +0.000 NA
ENDBRANCH   6  12
ENDBRANCH   1   6
BRANCH   5  14
ATOM     14  C   UNL     1       2.294   5.518  18.558  0.00  0.00    +0.000 C 
BRANCH  14  15
ATOM     15  C   UNL     1       2.271   7.027  18.855  0.00  0.00    +0.000 C 
ATOM     16  O   UNL     1       2.431   7.455  19.995  0.00  0.00    +0.000 OA
ATOM     17  N   UNL     1       2.003   7.845  17.772  0.00  0.00    +0.000 N 
ATOM     18  H   UNL     1       2.164   7.428  16.860  0.00  0.00    +0.000 HD
BRANCH  17  19
ATOM     19  C   UNL     1       1.997   9.290  17.943  0.00  0.00    +0.000 C 
BRANCH  19  20
ATOM     20  C   UNL     1       0.602   9.902  18.091  0.00  0.00    +0.000 C 
BRANCH  20  21
ATOM     21  C   UNL     1       0.356  10.440  19.480  0.00  0.00    +0.000 A 
ATOM     22  C   UNL     1       0.589  11.799  19.883  0.00  0.00    +0.000 A 
ATOM     23  C   UNL     1       0.273  12.024  21.205  0.00  0.00    +0.000 A 
ATOM     24  S   UNL     1      -0.297  10.612  21.977  0.00  0.00    +0.000 S 
ATOM     25  C   UNL     1      -0.123   9.695  20.543  0.00  0.00    +0.000 A 
ENDBRANCH  20  21
ENDBRANCH  19  20
ENDBRANCH  17  19
ENDBRANCH  14  15
ENDBRANCH   5  14
TORSDOF 7
ENDMDL
MODEL 8
REMARK VINA RESULT:      -7.0      1.788      2.029
REMARK  Name = 
REMARK  9 active torsions:
REMARK  status: ('A' for Active; 'I' for Inactive)
REMARK    1  A    between atoms: C_1  and  C_2
REMARK    2  A    between atoms: C_4  and  C_5
REMARK    3  A    between atoms: N_6  and  C_7
REMARK    4  A    between atoms: C_7  and  C_8
REMARK    5  A    between atoms: N_12  and  C_13
REMARK    6  A    between atoms: C_13  and  C_14
REMARK    7  A    between atoms: N_16  and  C_17
REMARK    8  A    between atoms: C_17  and  C_18
REMARK    9  A    between atoms: C_18  and  C_19
REMARK                            x       y       z     vdW  Elec       q    Type
REMARK                         _______ _______ _______ _____ _____    ______ ____
ROOT
ATOM      1  C   UNL     1       5.305   4.517  15.863  0.00  0.00    +0.000 C 
ATOM      2  C   UNL     1       5.592   3.304  14.981  0.00  0.00    +0.000 C 
ATOM      3  C   UNL     1       6.195   3.910  13.735  0.00  0.00    +0.000 C 
ATOM      4  C   UNL     1       6.922   5.149  14.225  0.00  0.00    +0.000 C 
ATOM      5  N   UNL     1       6.390   5.490  15.564  0.00  0.00    +0.000 NA
ENDROOT
BRANCH   1   6
ATOM      6  C   UNL     1       4.945   4.046  17.291  0.00  0.00    +0.000 C 
BRANCH   6  12
ATOM      7  C   UNL     1       0.755   2.310  18.754  0.00  0.00    +0.000 C 
ATOM      8  C   UNL     1       1.724   3.298  18.248  0.00  0.00    +0.000 A 
ATOM      9  N   UNL     1       1.613   4.646  18.468  0.00  0.00    +0.000 NA
ATOM     10  C   UNL     1       2.753   5.130  18.014  0.00  0.00    +0.000 A 
ATOM     11  C   UNL     1       3.156   6.553  17.972  0.00  0.00    +0.000 C 
ATOM     12  N   UNL     1       3.538   4.082  17.613  0.00  0.00    +0.000 N 
ATOM     13  N   UNL     1       2.846   2.928  17.628  0.00  0.00    +0.000 NA
ENDBRANCH   6  12
ENDBRANCH   1   6
BRANCH   5  14
ATOM     14  C   UNL     1       7.494   5.561  16.547  0.00  0.00    +0.000 C 
BRANCH  14  15
ATOM     15  C   UNL     1       7.332   6.754  17.504  0.00  0.00    +0.000 C 
ATOM     16  O   UNL     1       6.729   6.642  18.568  0.00  0.00    +0.000 OA
ATOM     17  N   UNL     1       7.857   7.954  17.057  0.00  0.00    +0.000 N 
ATOM     18  H   UNL     1       8.557   7.878  16.325  0.00  0.00    +0.000 HD
BRANCH  17  19
ATOM     19  C   UNL     1       7.788   9.133  17.907  0.00  0.00    +0.000 C 
BRANCH  19  20
ATOM     20  C   UNL     1       9.055   9.396  18.725  0.00  0.00    +0.000 C 
BRANCH  20  21
ATOM     21  C   UNL     1       9.448  10.853  18.722  0.00  0.00    +0.000 A 
ATOM     22  C   UNL     1       8.854  11.857  17.885  0.00  0.00    +0.000 A 
ATOM     23  C   UNL     1       9.393  13.109  18.090  0.00  0.00    +0.000 A 
ATOM     24  S   UNL     1      10.618  13.092  19.278  0.00  0.00    +0.000 S 
ATOM     25  C   UNL     1      10.430  11.409  19.523  0.00  0.00    +0.000 A 
ENDBRANCH  20  21
ENDBRANCH  19  20
ENDBRANCH  17  19
ENDBRANCH  14  15
ENDBRANCH   5  14
TORSDOF 7
ENDMDL
MODEL 9
REMARK VINA RESULT:      -7.0      5.046      6.553
REMARK  Name = 
REMARK  9 active torsions:
REMARK  status: ('A' for Active; 'I' for Inactive)
REMARK    1  A    between atoms: C_1  and  C_2
REMARK    2  A    between atoms: C_4  and  C_5
REMARK    3  A    between atoms: N_6  and  C_7
REMARK    4  A    between atoms: C_7  and  C_8
REMARK    5  A    between atoms: N_12  and  C_13
REMARK    6  A    between atoms: C_13  and  C_14
REMARK    7  A    between atoms: N_16  and  C_17
REMARK    8  A    between atoms: C_17  and  C_18
REMARK    9  A    between atoms: C_18  and  C_19
REMARK                            x       y       z     vdW  Elec       q    Type
REMARK                         _______ _______ _______ _____ _____    ______ ____
ROOT
ATOM      1  C   UNL     1       2.033   4.729  19.285  0.00  0.00    +0.000 C 
ATOM      2  C   UNL     1       1.046   3.967  20.168  0.00  0.00    +0.000 C 
ATOM      3  C   UNL     1       0.731   2.730  19.359  0.00  0.00    +0.000 C 
ATOM      4  C   UNL     1       2.004   2.447  18.581  0.00  0.00    +0.000 C 
ATOM      5  N   UNL     1       2.821   3.682  18.579  0.00  0.00    +0.000 NA
ENDROOT
BRANCH   1   6
ATOM      6  C   UNL     1       2.669   5.882  20.094  0.00  0.00    +0.000 C 
BRANCH   6  12
ATOM      7  C   UNL     1       0.348   9.649  21.865  0.00  0.00    +0.000 C 
ATOM      8  C   UNL     1       0.937   8.759  20.848  0.00  0.00    +0.000 A 
ATOM      9  N   UNL     1       1.392   9.199  19.633  0.00  0.00    +0.000 NA
ATOM     10  C   UNL     1       1.989   8.139  19.123  0.00  0.00    +0.000 A 
ATOM     11  C   UNL     1       2.634   8.041  17.795  0.00  0.00    +0.000 C 
ATOM     12  N   UNL     1       1.950   7.132  20.050  0.00  0.00    +0.000 N 
ATOM     13  N   UNL     1       1.166   7.467  21.092  0.00  0.00    +0.000 NA
ENDBRANCH   6  12
ENDBRANCH   1   6
BRANCH   5  14
ATOM     14  C   UNL     1       4.169   3.402  19.121  0.00  0.00    +0.000 C 
BRANCH  14  15
ATOM     15  C   UNL     1       5.226   4.364  18.554  0.00  0.00    +0.000 C 
ATOM     16  O   UNL     1       6.210   4.691  19.213  0.00  0.00    +0.000 OA
ATOM     17  N   UNL     1       4.959   4.870  17.294  0.00  0.00    +0.000 N 
ATOM     18  H   UNL     1       4.293   4.337  16.742  0.00  0.00    +0.000 HD
BRANCH  17  19
ATOM     19  C   UNL     1       5.918   5.759  16.655  0.00  0.00    +0.000 C 
BRANCH  19  20
ATOM     20  C   UNL     1       7.131   5.048  16.050  0.00  0.00    +0.000 C 
BRANCH  20  21
ATOM     21  C   UNL     1       6.900   4.640  14.616  0.00  0.00    +0.000 A 
ATOM     22  C   UNL     1       5.860   3.752  14.177  0.00  0.00    +0.000 A 
ATOM     23  C   UNL     1       5.867   3.554  12.813  0.00  0.00    +0.000 A 
ATOM     24  S   UNL     1       7.122   4.422  12.047  0.00  0.00    +0.000 S 
ATOM     25  C   UNL     1       7.658   5.066  13.540  0.00  0.00    +0.000 A 
ENDBRANCH  20  21
ENDBRANCH  19  20
ENDBRANCH  17  19
ENDBRANCH  14  15
ENDBRANCH   5  14
TORSDOF 7
ENDMDL
