MODEL 1
REMARK VINA RESULT:      -5.4      0.000      0.000
REMARK  Name = 
REMARK  6 active torsions:
REMARK  status: ('A' for Active; 'I' for Inactive)
REMARK    1  A    between atoms: C_2  and  C_3
REMARK    2  A    between atoms: C_3  and  O_4
REMARK    3  A    between atoms: O_4  and  C_5
REMARK    4  A    between atoms: C_7  and  N_8
REMARK    5  A    between atoms: C_9  and  O_10
REMARK    6  A    between atoms: C_11  and  C_12
REMARK                            x       y       z     vdW  Elec       q    Type
REMARK                         _______ _______ _______ _____ _____    ______ ____
ROOT
ATOM      1  C   UNL     1       4.328   4.804  17.361  0.00  0.00    +0.000 C 
ATOM      2  C   UNL     1       5.407   5.411  18.258  0.00  0.00    +0.000 C 
ATOM      3  C   UNL     1       6.719   4.633  18.088  0.00  0.00    +0.000 C 
ATOM      4  C   UNL     1       7.118   4.591  16.595  0.00  0.00    +0.000 C 
ATOM      5  C   UNL     1       5.940   4.047  15.765  0.00  0.00    +0.000 C 
ATOM      6  C   UNL     1       6.223   4.058  14.267  0.00  0.00    +0.000 C 
ATOM      7  O   UNL     1       4.771   4.855  15.996  0.00  0.00    +0.000 OA
ENDROOT
BRANCH   3   8
ATOM      8  N   UNL     1       7.757   5.265  18.921  0.00  0.00    +0.000 NA
ATOM      9  H   UNL     1       7.287   5.952  19.518  0.00  0.00    +0.000 HD
ATOM     10  H   UNL     1       8.354   5.836  18.321  0.00  0.00    +0.000 HD
ENDBRANCH   3   8
BRANCH   4  11
ATOM     11  O   UNL     1       7.470   5.920  16.172  0.00  0.00    +0.000 OA
ATOM     12  H   UNL     1       7.354   5.944  15.204  0.00  0.00    +0.000 HD
ENDBRANCH   4  11
BRANCH   1  13
ATOM     13  O   UNL     1       4.003   3.461  17.715  0.00  0.00    +0.000 OA
BRANCH  13  14
ATOM     14  C   UNL     1       2.651   3.114  17.441  0.00  0.00    +0.000 C 
BRANCH  14  16
ATOM     15  C   UNL     1       1.134   3.693  19.556  0.00  0.00    +0.000 C 
ATOM     16  C   UNL     1       1.829   3.422  18.614  0.00  0.00    +0.000 C 
ENDBRANCH  14  16
ENDBRANCH  13  14
ENDBRANCH   1  13
TORSDOF 5
ENDMDL
MODEL 2
REMARK VINA RESULT:      -5.4      2.004      2.724
REMARK  Name = 
REMARK  6 active torsions:
REMARK  status: ('A' for Active; 'I' for Inactive)
REMARK    1  A    between atoms: C_2  and  C_3
REMARK    2  A    between atoms: C_3  and  O_4
REMARK    3  A    between atoms: O_4  and  C_5
REMARK    4  A    between atoms: C_7  and  N_8
REMARK    5  A    between atoms: C_9  and  O_10
REMARK    6  A    between atoms: C_11  and  C_12
REMARK                            x       y       z     vdW  Elec       q    Type
REMARK                         _______ _______ _______ _____ _____    ______ ____
ROOT
ATOM      1  C   UNL     1       4.695   4.070  18.318  0.00  0.00    +0.000 C 
ATOM      2  C   UNL     1       4.906   3.852  16.820  0.00  0.00    +0.000 C 
ATOM      3  C   UNL     1       5.581   5.087  16.207  0.00  0.00    +0.000 C 
ATOM      4  C   UNL     1       6.888   5.407  16.969  0.00  0.00    +0.000 C 
ATOM      5  C   UNL     1       6.587   5.524  18.476  0.00  0.00    +0.000 C 
ATOM      6  C   UNL     1       7.844   5.751  19.308  0.00  0.00    +0.000 C 
ATOM      7  O   UNL     1       5.966   4.312  18.941  0.00  0.00    +0.000 OA
ENDROOT
BRANCH   3   8
ATOM      8  N   UNL     1       5.823   4.835  14.776  0.00  0.00    +0.000 NA
ATOM      9  H   UNL     1       6.807   5.055  14.594  0.00  0.00    +0.000 HD
ATOM     10  H   UNL     1       5.315   5.533  14.231  0.00  0.00    +0.000 HD
ENDBRANCH   3   8
BRANCH   4  11
ATOM     11  O   UNL     1       7.839   4.358  16.718  0.00  0.00    +0.000 OA
ATOM     12  H   UNL     1       8.725   4.763  16.785  0.00  0.00    +0.000 HD
ENDBRANCH   4  11
BRANCH   1  13
ATOM     13  O   UNL     1       3.805   5.149  18.601  0.00  0.00    +0.000 OA
BRANCH  13  14
ATOM     14  C   UNL     1       2.466   4.903  18.185  0.00  0.00    +0.000 C 
BRANCH  14  16
ATOM     15  C   UNL     1       1.110   3.752  20.171  0.00  0.00    +0.000 C 
ATOM     16  C   UNL     1       1.735   4.258  19.278  0.00  0.00    +0.000 C 
ENDBRANCH  14  16
ENDBRANCH  13  14
ENDBRANCH   1  13
TORSDOF 5
ENDMDL
MODEL 3
REMARK VINA RESULT:      -5.4      2.077      2.757
REMARK  Name = 
REMARK  6 active torsions:
REMARK  status: ('A' for Active; 'I' for Inactive)
REMARK    1  A    between atoms: C_2  and  C_3
REMARK    2  A    between atoms: C_3  and  O_4
REMARK    3  A    between atoms: O_4  and  C_5
REMARK    4  A    between atoms: C_7  and  N_8
REMARK    5  A    between atoms: C_9  and  O_10
REMARK    6  A    between atoms: C_11  and  C_12
REMARK                            x       y       z     vdW  Elec       q    Type
REMARK                         _______ _______ _______ _____ _____    ______ ____
ROOT
ATOM      1  C   UNL     1       4.643   4.772  17.889  0.00  0.00    +0.000 C 
ATOM      2  C   UNL     1       5.028   3.805  16.769  0.00  0.00    +0.000 C 
ATOM      3  C   UNL     1       5.888   4.535  15.728  0.00  0.00    +0.000 C 
ATOM      4  C   UNL     1       7.108   5.191  16.417  0.00  0.00    +0.000 C 
ATOM      5  C   UNL     1       6.624   6.075  17.582  0.00  0.00    +0.000 C 
ATOM      6  C   UNL     1       7.776   6.688  18.369  0.00  0.00    +0.000 C 
ATOM      7  O   UNL     1       5.838   5.287  18.494  0.00  0.00    +0.000 OA
ENDROOT
BRANCH   3   8
ATOM      8  N   UNL     1       6.291   3.575  14.687  0.00  0.00    +0.000 NA
ATOM      9  H   UNL     1       7.100   3.060  15.048  0.00  0.00    +0.000 HD
ATOM     10  H   UNL     1       6.670   4.093  13.893  0.00  0.00    +0.000 HD
ENDBRANCH   3   8
BRANCH   4  11
ATOM     11  O   UNL     1       7.983   4.153  16.893  0.00  0.00    +0.000 OA
ATOM     12  H   UNL     1       7.666   3.319  16.498  0.00  0.00    +0.000 HD
ENDBRANCH   4  11
BRANCH   1  13
ATOM     13  O   UNL     1       3.827   5.850  17.435  0.00  0.00    +0.000 OA
BRANCH  13  14
ATOM     14  C   UNL     1       2.614   5.991  18.167  0.00  0.00    +0.000 C 
BRANCH  14  16
ATOM     15  C   UNL     1       1.295   3.674  18.180  0.00  0.00    +0.000 C 
ATOM     16  C   UNL     1       1.906   4.708  18.173  0.00  0.00    +0.000 C 
ENDBRANCH  14  16
ENDBRANCH  13  14
ENDBRANCH   1  13
TORSDOF 5
ENDMDL
MODEL 4
REMARK VINA RESULT:      -5.3      2.923      5.038
REMARK  Name = 
REMARK  6 active torsions:
REMARK  status: ('A' for Active; 'I' for Inactive)
REMARK    1  A    between atoms: C_2  and  C_3
REMARK    2  A    between atoms: C_3  and  O_4
REMARK    3  A    between atoms: O_4  and  C_5
REMARK    4  A    between atoms: C_7  and  N_8
REMARK    5  A    between atoms: C_9  and  O_10
REMARK    6  A    between atoms: C_11  and  C_12
REMARK                            x       y       z     vdW  Elec       q    Type
REMARK                         _______ _______ _______ _____ _____    ______ ____
ROOT
ATOM      1  C   UNL     1       3.099   4.443  17.535  0.00  0.00    +0.000 C 
ATOM      2  C   UNL     1       3.499   2.996  17.246  0.00  0.00    +0.000 C 
ATOM      3  C   UNL     1       3.733   2.251  18.567  0.00  0.00    +0.000 C 
ATOM      4  C   UNL     1       2.483   2.372  19.470  0.00  0.00    +0.000 C 
ATOM      5  C   UNL     1       2.109   3.858  19.631  0.00  0.00    +0.000 C 
ATOM      6  C   UNL     1       0.830   4.056  20.437  0.00  0.00    +0.000 C 
ATOM      7  O   UNL     1       1.907   4.449  18.335  0.00  0.00    +0.000 OA
ENDROOT
BRANCH   3   8
ATOM      8  N   UNL     1       4.066   0.848  18.269  0.00  0.00    +0.000 NA
ATOM      9  H   UNL     1       3.453   0.263  18.846  0.00  0.00    +0.000 HD
ATOM     10  H   UNL     1       4.999   0.649  18.631  0.00  0.00    +0.000 HD
ENDBRANCH   3   8
BRANCH   4  11
ATOM     11  O   UNL     1       1.404   1.636  18.867  0.00  0.00    +0.000 OA
ATOM     12  H   UNL     1       0.607   2.194  18.948  0.00  0.00    +0.000 HD
ENDBRANCH   4  11
BRANCH   1  13
ATOM     13  O   UNL     1       4.127   5.183  18.193  0.00  0.00    +0.000 OA
BRANCH  13  14
ATOM     14  C   UNL     1       4.485   6.382  17.516  0.00  0.00    +0.000 C 
BRANCH  14  16
ATOM     15  C   UNL     1       2.569   8.204  17.861  0.00  0.00    +0.000 C 
ATOM     16  C   UNL     1       3.434   7.382  17.724  0.00  0.00    +0.000 C 
ENDBRANCH  14  16
ENDBRANCH  13  14
ENDBRANCH   1  13
TORSDOF 5
ENDMDL
MODEL 5
REMARK VINA RESULT:      -5.3      2.610      5.243
REMARK  Name = 
REMARK  6 active torsions:
REMARK  status: ('A' for Active; 'I' for Inactive)
REMARK    1  A    between atoms: C_2  and  C_3
REMARK    2  A    between atoms: C_3  and  O_4
REMARK    3  A    between atoms: O_4  and  C_5
REMARK    4  A    between atoms: C_7  and  N_8
REMARK    5  A    between atoms: C_9  and  O_10
REMARK    6  A    between atoms: C_11  and  C_12
REMARK                            x       y       z     vdW  Elec       q    Type
REMARK                         _______ _______ _______ _____ _____    ______ ____
ROOT
ATOM      1  C   UNL     1       3.425   4.491  17.727  0.00  0.00    +0.000 C 
ATOM      2  C   UNL     1       3.712   3.029  17.386  0.00  0.00    +0.000 C 
ATOM      3  C   UNL     1       3.824   2.209  18.678  0.00  0.00    +0.000 C 
ATOM      4  C   UNL     1       2.550   2.398  19.535  0.00  0.00    +0.000 C 
ATOM      5  C   UNL     1       2.298   3.903  19.752  0.00  0.00    +0.000 C 
ATOM      6  C   UNL     1       1.007   4.176  20.515  0.00  0.00    +0.000 C 
ATOM      7  O   UNL     1       2.204   4.566  18.478  0.00  0.00    +0.000 OA
ENDROOT
BRANCH   3   8
ATOM      8  N   UNL     1       4.048   0.796  18.326  0.00  0.00    +0.000 NA
ATOM      9  H   UNL     1       5.016   0.717  17.998  0.00  0.00    +0.000 HD
ATOM     10  H   UNL     1       3.494   0.573  17.499  0.00  0.00    +0.000 HD
ENDBRANCH   3   8
BRANCH   4  11
ATOM     11  O   UNL     1       1.440   1.787  18.856  0.00  0.00    +0.000 OA
ATOM     12  H   UNL     1       1.820   1.198  18.176  0.00  0.00    +0.000 HD
ENDBRANCH   4  11
BRANCH   1  13
ATOM     13  O   UNL     1       4.483   5.108  18.459  0.00  0.00    +0.000 OA
BRANCH  13  14
ATOM     14  C   UNL     1       5.621   5.414  17.662  0.00  0.00    +0.000 C 
BRANCH  14  16
ATOM     15  C   UNL     1       7.738   5.777  19.242  0.00  0.00    +0.000 C 
ATOM     16  C   UNL     1       6.784   5.595  18.535  0.00  0.00    +0.000 C 
ENDBRANCH  14  16
ENDBRANCH  13  14
ENDBRANCH   1  13
TORSDOF 5
ENDMDL
MODEL 6
REMARK VINA RESULT:      -5.3      2.695      3.415
REMARK  Name = 
REMARK  6 active torsions:
REMARK  status: ('A' for Active; 'I' for Inactive)
REMARK    1  A    between atoms: C_2  and  C_3
REMARK    2  A    between atoms: C_3  and  O_4
REMARK    3  A    between atoms: O_4  and  C_5
REMARK    4  A    between atoms: C_7  and  N_8
REMARK    5  A    between atoms: C_9  and  O_10
REMARK    6  A    between atoms: C_11  and  C_12
REMARK                            x       y       z     vdW  Elec       q    Type
REMARK                         _______ _______ _______ _____ _____    ______ ____
ROOT
ATOM      1  C   UNL     1       4.647   5.085  17.958  0.00  0.00    +0.000 C 
ATOM      2  C   UNL     1       4.993   4.012  16.925  0.00  0.00    +0.000 C 
ATOM      3  C   UNL     1       5.739   4.651  15.746  0.00  0.00    +0.000 C 
ATOM      4  C   UNL     1       6.975   5.426  16.261  0.00  0.00    +0.000 C 
ATOM      5  C   UNL     1       6.538   6.418  17.355  0.00  0.00    +0.000 C 
ATOM      6  C   UNL     1       7.716   7.160  17.978  0.00  0.00    +0.000 C 
ATOM      7  O   UNL     1       5.858   5.710  18.408  0.00  0.00    +0.000 OA
ENDROOT
BRANCH   3   8
ATOM      8  N   UNL     1       6.109   3.594  14.789  0.00  0.00    +0.000 NA
ATOM      9  H   UNL     1       6.235   4.045  13.877  0.00  0.00    +0.000 HD
ATOM     10  H   UNL     1       5.302   2.986  14.646  0.00  0.00    +0.000 HD
ENDBRANCH   3   8
BRANCH   4  11
ATOM     11  O   UNL     1       7.930   4.482  16.779  0.00  0.00    +0.000 OA
ATOM     12  H   UNL     1       8.694   5.003  17.091  0.00  0.00    +0.000 HD
ENDBRANCH   4  11
BRANCH   1  13
ATOM     13  O   UNL     1       3.751   6.073  17.453  0.00  0.00    +0.000 OA
BRANCH  13  14
ATOM     14  C   UNL     1       2.829   6.553  18.425  0.00  0.00    +0.000 C 
BRANCH  14  16
ATOM     15  C   UNL     1       2.030   9.012  17.775  0.00  0.00    +0.000 C 
ATOM     16  C   UNL     1       2.406   7.907  18.058  0.00  0.00    +0.000 C 
ENDBRANCH  14  16
ENDBRANCH  13  14
ENDBRANCH   1  13
TORSDOF 5
ENDMDL
MODEL 7
REMARK VINA RESULT:      -5.3      1.491      4.305
REMARK  Name = 
REMARK  6 active torsions:
REMARK  status: ('A' for Active; 'I' for Inactive)
REMARK    1  A    between atoms: C_2  and  C_3
REMARK    2  A    between atoms: C_3  and  O_4
REMARK    3  A    between atoms: O_4  and  C_5
REMARK    4  A    between atoms: C_7  and  N_8
REMARK    5  A    between atoms: C_9  and  O_10
REMARK    6  A    between atoms: C_11  and  C_12
REMARK                            x       y       z     vdW  Elec       q    Type
REMARK                         _______ _______ _______ _____ _____    ______ ____
ROOT
ATOM      1  C   UNL     1       6.733   4.284  16.226  0.00  0.00    +0.000 C 
ATOM      2  C   UNL     1       7.639   4.439  17.448  0.00  0.00    +0.000 C 
ATOM      3  C   UNL     1       7.125   5.584  18.331  0.00  0.00    +0.000 C 
ATOM      4  C   UNL     1       5.641   5.344  18.696  0.00  0.00    +0.000 C 
ATOM      5  C   UNL     1       4.827   5.115  17.408  0.00  0.00    +0.000 C 
ATOM      6  C   UNL     1       3.367   4.782  17.689  0.00  0.00    +0.000 C 
ATOM      7  O   UNL     1       5.393   4.018  16.667  0.00  0.00    +0.000 OA
ENDROOT
BRANCH   3   8
ATOM      8  N   UNL     1       7.979   5.682  19.527  0.00  0.00    +0.000 NA
ATOM      9  H   UNL     1       8.081   6.679  19.743  0.00  0.00    +0.000 HD
ATOM     10  H   UNL     1       8.925   5.393  19.277  0.00  0.00    +0.000 HD
ENDBRANCH   3   8
BRANCH   4  11
ATOM     11  O   UNL     1       5.557   4.201  19.564  0.00  0.00    +0.000 OA
ATOM     12  H   UNL     1       4.903   4.422  20.254  0.00  0.00    +0.000 HD
ENDBRANCH   4  11
BRANCH   1  13
ATOM     13  O   UNL     1       6.745   5.431  15.378  0.00  0.00    +0.000 OA
BRANCH  13  14
ATOM     14  C   UNL     1       7.350   5.193  14.112  0.00  0.00    +0.000 C 
BRANCH  14  16
ATOM     15  C   UNL     1       5.838   3.455  12.768  0.00  0.00    +0.000 C 
ATOM     16  C   UNL     1       6.526   4.245  13.357  0.00  0.00    +0.000 C 
ENDBRANCH  14  16
ENDBRANCH  13  14
ENDBRANCH   1  13
TORSDOF 5
ENDMDL
MODEL 8
REMARK VINA RESULT:      -5.3      1.885      4.327
REMARK  Name = 
REMARK  6 active torsions:
REMARK  status: ('A' for Active; 'I' for Inactive)
REMARK    1  A    between atoms: C_2  and  C_3
REMARK    2  A    between atoms: C_3  and  O_4
REMARK    3  A    between atoms: O_4  and  C_5
REMARK    4  A    between atoms: C_7  and  N_8
REMARK    5  A    between atoms: C_9  and  O_10
REMARK    6  A    between atoms: C_11  and  C_12
REMARK                            x       y       z     vdW  Elec       q    Type
REMARK                         _______ _______ _______ _____ _____    ______ ____
ROOT
ATOM      1  C   UNL     1       6.029   3.812  15.624  0.00  0.00    +0.000 C 
ATOM      2  C   UNL     1       7.064   4.793  16.175  0.00  0.00    +0.000 C 
ATOM      3  C   UNL     1       6.384   6.128  16.509  0.00  0.00    +0.000 C 
ATOM      4  C   UNL     1       5.194   5.890  17.468  0.00  0.00    +0.000 C 
ATOM      5  C   UNL     1       4.256   4.827  16.866  0.00  0.00    +0.000 C 
ATOM      6  C   UNL     1       3.102   4.470  17.796  0.00  0.00    +0.000 C 
ATOM      7  O   UNL     1       4.996   3.621  16.602  0.00  0.00    +0.000 OA
ENDROOT
BRANCH   3   8
ATOM      8  N   UNL     1       7.386   7.040  17.086  0.00  0.00    +0.000 NA
ATOM      9  H   UNL     1       7.206   7.086  18.094  0.00  0.00    +0.000 HD
ATOM     10  H   UNL     1       7.190   7.988  16.763  0.00  0.00    +0.000 HD
ENDBRANCH   3   8
BRANCH   4  11
ATOM     11  O   UNL     1       5.706   5.457  18.741  0.00  0.00    +0.000 OA
ATOM     12  H   UNL     1       6.080   6.248  19.174  0.00  0.00    +0.000 HD
ENDBRANCH   4  11
BRANCH   1  13
ATOM     13  O   UNL     1       5.455   4.245  14.392  0.00  0.00    +0.000 OA
BRANCH  13  14
ATOM     14  C   UNL     1       6.092   3.694  13.244  0.00  0.00    +0.000 C 
BRANCH  14  16
ATOM     15  C   UNL     1       4.274   3.210  11.355  0.00  0.00    +0.000 C 
ATOM     16  C   UNL     1       5.084   3.445  12.210  0.00  0.00    +0.000 C 
ENDBRANCH  14  16
ENDBRANCH  13  14
ENDBRANCH   1  13
TORSDOF 5
ENDMDL
MODEL 9
REMARK VINA RESULT:      -5.2      3.401      5.200
REMARK  Name = 
REMARK  6 active torsions:
REMARK  status: ('A' for Active; 'I' for Inactive)
REMARK    1  A    between atoms: C_2  and  C_3
REMARK    2  A    between atoms: C_3  and  O_4
REMARK    3  A    between atoms: O_4  and  C_5
REMARK    4  A    between atoms: C_7  and  N_8
REMARK    5  A    between atoms: C_9  and  O_10
REMARK    6  A    between atoms: C_11  and  C_12
REMARK                            x       y       z     vdW  Elec       q    Type
REMARK                         _______ _______ _______ _____ _____    ______ ____
ROOT
ATOM      1  C   UNL     1       2.124   4.912  18.331  0.00  0.00    +0.000 C 
ATOM      2  C   UNL     1       2.770   3.844  17.447  0.00  0.00    +0.000 C 
ATOM      3  C   UNL     1       3.676   2.946  18.301  0.00  0.00    +0.000 C 
ATOM      4  C   UNL     1       2.872   2.357  19.484  0.00  0.00    +0.000 C 
ATOM      5  C   UNL     1       2.191   3.500  20.260  0.00  0.00    +0.000 C 
ATOM      6  C   UNL     1       1.304   2.994  21.391  0.00  0.00    +0.000 C 
ATOM      7  O   UNL     1       1.365   4.268  19.365  0.00  0.00    +0.000 OA
ENDROOT
BRANCH   3   8
ATOM      8  N   UNL     1       4.246   1.894  17.442  0.00  0.00    +0.000 NA
ATOM      9  H   UNL     1       4.669   2.361  16.634  0.00  0.00    +0.000 HD
ATOM     10  H   UNL     1       3.482   1.354  17.035  0.00  0.00    +0.000 HD
ENDBRANCH   3   8
BRANCH   4  11
ATOM     11  O   UNL     1       1.894   1.437  18.967  0.00  0.00    +0.000 OA
ATOM     12  H   UNL     1       1.031   1.720  19.323  0.00  0.00    +0.000 HD
ENDBRANCH   4  11
BRANCH   1  13
ATOM     13  O   UNL     1       3.076   5.802  18.912  0.00  0.00    +0.000 OA
BRANCH  13  14
ATOM     14  C   UNL     1       3.582   6.767  17.996  0.00  0.00    +0.000 C 
BRANCH  14  16
ATOM     15  C   UNL     1       1.894   8.824  17.824  0.00  0.00    +0.000 C 
ATOM     16  C   UNL     1       2.642   7.888  17.912  0.00  0.00    +0.000 C 
ENDBRANCH  14  16
ENDBRANCH  13  14
ENDBRANCH   1  13
TORSDOF 5
ENDMDL
