MODEL 1
REMARK VINA RESULT:      -6.2      0.000      0.000
REMARK  Name = 
REMARK  10 active torsions:
REMARK  status: ('A' for Active; 'I' for Inactive)
REMARK    1  A    between atoms: C_1  and  C_2
REMARK    2  A    between atoms: C_5  and  O_6
REMARK    3  A    between atoms: C_7  and  C_8
REMARK    4  A    between atoms: C_8  and  C_9
REMARK    5  A    between atoms: C_9  and  C_10
REMARK    6  A    between atoms: C_10  and  C_11
REMARK    7  A    between atoms: C_11  and  CA_12
REMARK    8  A    between atoms: CA_12  and  N_13
REMARK    9  A    between atoms: CA_12  and  C_14
REMARK   10  A    between atoms: C_14  and  OXT_16
REMARK                            x       y       z     vdW  Elec       q    Type
REMARK                         _______ _______ _______ _____ _____    ______ ____
ROOT
ATOM      1  C   UNL     1       3.546   5.098  17.593  0.00  0.00    +0.000 C 
ENDROOT
BRANCH   1   2
ATOM      2  C   UNL     1       4.707   6.012  17.189  0.00  0.00    +0.000 C 
BRANCH   2   8
ATOM      3  C   UNL     1       6.793   4.926  14.822  0.00  0.00    +0.000 C 
ATOM      4  C   UNL     1       6.869   4.917  16.296  0.00  0.00    +0.000 A 
ATOM      5  O   UNL     1       7.996   4.376  16.846  0.00  0.00    +0.000 OA
ATOM      6  N   UNL     1       7.912   4.450  18.233  0.00  0.00    +0.000 NA
ATOM      7  C   UNL     1       6.740   5.028  18.457  0.00  0.00    +0.000 A 
ATOM      8  C   UNL     1       6.024   5.347  17.300  0.00  0.00    +0.000 A 
BRANCH   7   9
ATOM      9  O   UNL     1       6.404   5.232  19.732  0.00  0.00    +0.000 OA
ATOM     10  H   UNL     1       6.068   6.144  19.768  0.00  0.00    +0.000 HD
ENDBRANCH   7   9
ENDBRANCH   2   8
ENDBRANCH   1   2
BRANCH   1  11
ATOM     11  C   UNL     1       3.556   3.762  16.839  0.00  0.00    +0.000 C 
BRANCH  11  12
ATOM     12  C   UNL     1       3.675   2.562  17.783  0.00  0.00    +0.000 C 
BRANCH  12  13
ATOM     13  CA  UNL     1       2.851   2.682  19.066  0.00  0.00    +0.000 C 
BRANCH  13  14
ATOM     14  N   UNL     1       1.761   1.664  19.139  0.00  0.00    +0.000 NA
ATOM     15  H1  UNL     1       0.947   2.031  18.633  0.00  0.00    +0.000 HD
ATOM     16  H2  UNL     1       1.444   1.606  20.111  0.00  0.00    +0.000 HD
ENDBRANCH  13  14
BRANCH  13  17
ATOM     17  C   UNL     1       3.763   2.486  20.296  0.00  0.00    +0.000 C 
ATOM     18  O   UNL     1       3.390   2.404  21.455  0.00  0.00    +0.000 OA
BRANCH  17  19
ATOM     19  OXT UNL     1       5.067   2.403  19.921  0.00  0.00    +0.000 OA
ATOM     20  HXT UNL     1       5.589   2.770  20.679  0.00  0.00    +0.000 HD
ENDBRANCH  17  19
ENDBRANCH  13  17
ENDBRANCH  12  13
ENDBRANCH  11  12
ENDBRANCH   1  11
TORSDOF 9
ENDMDL
MODEL 2
REMARK VINA RESULT:      -6.1      1.476      1.747
REMARK  Name = 
REMARK  10 active torsions:
REMARK  status: ('A' for Active; 'I' for Inactive)
REMARK    1  A    between atoms: C_1  and  C_2
REMARK    2  A    between atoms: C_5  and  O_6
REMARK    3  A    between atoms: C_7  and  C_8
REMARK    4  A    between atoms: C_8  and  C_9
REMARK    5  A    between atoms: C_9  and  C_10
REMARK    6  A    between atoms: C_10  and  C_11
REMARK    7  A    between atoms: C_11  and  CA_12
REMARK    8  A    between atoms: CA_12  and  N_13
REMARK    9  A    between atoms: CA_12  and  C_14
REMARK   10  A    between atoms: C_14  and  OXT_16
REMARK                            x       y       z     vdW  Elec       q    Type
REMARK                         _______ _______ _______ _____ _____    ______ ____
ROOT
ATOM      1  C   UNL     1       3.550   3.599  17.308  0.00  0.00    +0.000 C 
ENDROOT
BRANCH   1   2
ATOM      2  C   UNL     1       4.317   4.924  17.294  0.00  0.00    +0.000 C 
BRANCH   2   8
ATOM      3  C   UNL     1       6.379   4.161  14.783  0.00  0.00    +0.000 C 
ATOM      4  C   UNL     1       6.612   4.428  16.216  0.00  0.00    +0.000 A 
ATOM      5  O   UNL     1       7.907   4.369  16.646  0.00  0.00    +0.000 OA
ATOM      6  N   UNL     1       7.953   4.648  18.008  0.00  0.00    +0.000 NA
ATOM      7  C   UNL     1       6.687   4.858  18.340  0.00  0.00    +0.000 A 
ATOM      8  C   UNL     1       5.784   4.735  17.279  0.00  0.00    +0.000 A 
BRANCH   7   9
ATOM      9  O   UNL     1       6.441   5.160  19.616  0.00  0.00    +0.000 OA
ATOM     10  H   UNL     1       5.922   5.983  19.592  0.00  0.00    +0.000 HD
ENDBRANCH   7   9
ENDBRANCH   2   8
ENDBRANCH   1   2
BRANCH   1  11
ATOM     11  C   UNL     1       2.042   3.791  17.521  0.00  0.00    +0.000 C 
BRANCH  11  12
ATOM     12  C   UNL     1       1.732   4.642  18.756  0.00  0.00    +0.000 C 
BRANCH  12  13
ATOM     13  CA  UNL     1       1.125   3.862  19.924  0.00  0.00    +0.000 C 
BRANCH  13  14
ATOM     14  N   UNL     1       1.049   2.396  19.650  0.00  0.00    +0.000 NA
ATOM     15  H1  UNL     1       1.125   2.257  18.636  0.00  0.00    +0.000 HD
ATOM     16  H2  UNL     1       0.102   2.079  19.874  0.00  0.00    +0.000 HD
ENDBRANCH  13  14
BRANCH  13  17
ATOM     17  C   UNL     1       1.983   4.061  21.192  0.00  0.00    +0.000 C 
ATOM     18  O   UNL     1       2.132   3.247  22.088  0.00  0.00    +0.000 OA
BRANCH  17  19
ATOM     19  OXT UNL     1       2.578   5.284  21.184  0.00  0.00    +0.000 OA
ATOM     20  HXT UNL     1       1.839   5.943  21.143  0.00  0.00    +0.000 HD
ENDBRANCH  17  19
ENDBRANCH  13  17
ENDBRANCH  12  13
ENDBRANCH  11  12
ENDBRANCH   1  11
TORSDOF 9
ENDMDL
MODEL 3
REMARK VINA RESULT:      -6.1      1.717      2.096
REMARK  Name = 
REMARK  10 active torsions:
REMARK  status: ('A' for Active; 'I' for Inactive)
REMARK    1  A    between atoms: C_1  and  C_2
REMARK    2  A    between atoms: C_5  and  O_6
REMARK    3  A    between atoms: C_7  and  C_8
REMARK    4  A    between atoms: C_8  and  C_9
REMARK    5  A    between atoms: C_9  and  C_10
REMARK    6  A    between atoms: C_10  and  C_11
REMARK    7  A    between atoms: C_11  and  CA_12
REMARK    8  A    between atoms: CA_12  and  N_13
REMARK    9  A    between atoms: CA_12  and  C_14
REMARK   10  A    between atoms: C_14  and  OXT_16
REMARK                            x       y       z     vdW  Elec       q    Type
REMARK                         _______ _______ _______ _____ _____    ______ ____
ROOT
ATOM      1  C   UNL     1       3.511   3.936  17.226  0.00  0.00    +0.000 C 
ENDROOT
BRANCH   1   2
ATOM      2  C   UNL     1       4.390   5.167  17.468  0.00  0.00    +0.000 C 
BRANCH   2   8
ATOM      3  C   UNL     1       6.270   4.245  14.870  0.00  0.00    +0.000 C 
ATOM      4  C   UNL     1       6.587   4.489  16.291  0.00  0.00    +0.000 A 
ATOM      5  O   UNL     1       7.892   4.327  16.662  0.00  0.00    +0.000 OA
ATOM      6  N   UNL     1       8.021   4.599  18.021  0.00  0.00    +0.000 NA
ATOM      7  C   UNL     1       6.791   4.909  18.408  0.00  0.00    +0.000 A 
ATOM      8  C   UNL     1       5.835   4.860  17.388  0.00  0.00    +0.000 A 
BRANCH   7   9
ATOM      9  O   UNL     1       6.628   5.228  19.693  0.00  0.00    +0.000 OA
ATOM     10  H   UNL     1       5.947   5.923  19.702  0.00  0.00    +0.000 HD
ENDBRANCH   7   9
ENDBRANCH   2   8
ENDBRANCH   1   2
BRANCH   1  11
ATOM     11  C   UNL     1       3.744   2.830  18.264  0.00  0.00    +0.000 C 
BRANCH  11  12
ATOM     12  C   UNL     1       3.405   3.286  19.687  0.00  0.00    +0.000 C 
BRANCH  12  13
ATOM     13  CA  UNL     1       2.279   2.492  20.354  0.00  0.00    +0.000 C 
BRANCH  13  14
ATOM     14  N   UNL     1       2.230   2.708  21.830  0.00  0.00    +0.000 NA
ATOM     15  H1  UNL     1       3.120   3.130  22.121  0.00  0.00    +0.000 HD
ATOM     16  H2  UNL     1       2.231   1.791  22.286  0.00  0.00    +0.000 HD
ENDBRANCH  13  14
BRANCH  13  17
ATOM     17  C   UNL     1       0.916   2.920  19.768  0.00  0.00    +0.000 C 
ATOM     18  O   UNL     1       0.293   2.327  18.903  0.00  0.00    +0.000 OA
BRANCH  17  19
ATOM     19  OXT UNL     1       0.476   4.064  20.358  0.00  0.00    +0.000 OA
ATOM     20  HXT UNL     1      -0.050   3.775  21.146  0.00  0.00    +0.000 HD
ENDBRANCH  17  19
ENDBRANCH  13  17
ENDBRANCH  12  13
ENDBRANCH  11  12
ENDBRANCH   1  11
TORSDOF 9
ENDMDL
MODEL 4
REMARK VINA RESULT:      -6.0      1.932      2.895
REMARK  Name = 
REMARK  10 active torsions:
REMARK  status: ('A' for Active; 'I' for Inactive)
REMARK    1  A    between atoms: C_1  and  C_2
REMARK    2  A    between atoms: C_5  and  O_6
REMARK    3  A    between atoms: C_7  and  C_8
REMARK    4  A    between atoms: C_8  and  C_9
REMARK    5  A    between atoms: C_9  and  C_10
REMARK    6  A    between atoms: C_10  and  C_11
REMARK    7  A    between atoms: C_11  and  CA_12
REMARK    8  A    between atoms: CA_12  and  N_13
REMARK    9  A    between atoms: CA_12  and  C_14
REMARK   10  A    between atoms: C_14  and  OXT_16
REMARK                            x       y       z     vdW  Elec       q    Type
REMARK                         _______ _______ _______ _____ _____    ______ ____
ROOT
ATOM      1  C   UNL     1       3.774   2.864  17.634  0.00  0.00    +0.000 C 
ENDROOT
BRANCH   1   2
ATOM      2  C   UNL     1       4.154   4.052  16.745  0.00  0.00    +0.000 C 
BRANCH   2   8
ATOM      3  C   UNL     1       6.079   5.303  19.166  0.00  0.00    +0.000 C 
ATOM      4  C   UNL     1       6.375   4.852  17.792  0.00  0.00    +0.000 A 
ATOM      5  O   UNL     1       7.678   4.936  17.389  0.00  0.00    +0.000 OA
ATOM      6  N   UNL     1       7.786   4.470  16.082  0.00  0.00    +0.000 NA
ATOM      7  C   UNL     1       6.547   4.129  15.755  0.00  0.00    +0.000 A 
ATOM      8  C   UNL     1       5.604   4.341  16.766  0.00  0.00    +0.000 A 
BRANCH   7   9
ATOM      9  O   UNL     1       6.363   3.633  14.531  0.00  0.00    +0.000 OA
ATOM     10  H   UNL     1       7.231   3.287  14.259  0.00  0.00    +0.000 HD
ENDBRANCH   7   9
ENDBRANCH   2   8
ENDBRANCH   1   2
BRANCH   1  11
ATOM     11  C   UNL     1       2.264   2.780  17.894  0.00  0.00    +0.000 C 
BRANCH  11  12
ATOM     12  C   UNL     1       1.768   3.899  18.816  0.00  0.00    +0.000 C 
BRANCH  12  13
ATOM     13  CA  UNL     1       2.573   4.056  20.108  0.00  0.00    +0.000 C 
BRANCH  13  14
ATOM     14  N   UNL     1       2.630   5.474  20.571  0.00  0.00    +0.000 NA
ATOM     15  H1  UNL     1       3.477   5.589  21.141  0.00  0.00    +0.000 HD
ATOM     16  H2  UNL     1       1.864   5.624  21.234  0.00  0.00    +0.000 HD
ENDBRANCH  13  14
BRANCH  13  17
ATOM     17  C   UNL     1       1.929   3.217  21.233  0.00  0.00    +0.000 C 
ATOM     18  O   UNL     1       2.488   2.837  22.248  0.00  0.00    +0.000 OA
BRANCH  17  19
ATOM     19  OXT UNL     1       0.624   2.956  20.952  0.00  0.00    +0.000 OA
ATOM     20  HXT UNL     1       0.590   2.768  19.980  0.00  0.00    +0.000 HD
ENDBRANCH  17  19
ENDBRANCH  13  17
ENDBRANCH  12  13
ENDBRANCH  11  12
ENDBRANCH   1  11
TORSDOF 9
ENDMDL
MODEL 5
REMARK VINA RESULT:      -6.0      1.642      1.866
REMARK  Name = 
REMARK  10 active torsions:
REMARK  status: ('A' for Active; 'I' for Inactive)
REMARK    1  A    between atoms: C_1  and  C_2
REMARK    2  A    between atoms: C_5  and  O_6
REMARK    3  A    between atoms: C_7  and  C_8
REMARK    4  A    between atoms: C_8  and  C_9
REMARK    5  A    between atoms: C_9  and  C_10
REMARK    6  A    between atoms: C_10  and  C_11
REMARK    7  A    between atoms: C_11  and  CA_12
REMARK    8  A    between atoms: CA_12  and  N_13
REMARK    9  A    between atoms: CA_12  and  C_14
REMARK   10  A    between atoms: C_14  and  OXT_16
REMARK                            x       y       z     vdW  Elec       q    Type
REMARK                         _______ _______ _______ _____ _____    ______ ____
ROOT
ATOM      1  C   UNL     1       3.310   4.950  17.582  0.00  0.00    +0.000 C 
ENDROOT
BRANCH   1   2
ATOM      2  C   UNL     1       4.132   3.803  16.985  0.00  0.00    +0.000 C 
BRANCH   2   8
ATOM      3  C   UNL     1       5.960   4.133  14.213  0.00  0.00    +0.000 C 
ATOM      4  C   UNL     1       6.285   4.291  15.645  0.00  0.00    +0.000 A 
ATOM      5  O   UNL     1       7.569   4.648  15.944  0.00  0.00    +0.000 OA
ATOM      6  N   UNL     1       7.706   4.760  17.324  0.00  0.00    +0.000 NA
ATOM      7  C   UNL     1       6.503   4.463  17.795  0.00  0.00    +0.000 A 
ATOM      8  C   UNL     1       5.559   4.154  16.811  0.00  0.00    +0.000 A 
BRANCH   7   9
ATOM      9  O   UNL     1       6.349   4.502  19.119  0.00  0.00    +0.000 OA
ATOM     10  H   UNL     1       6.491   3.589  19.423  0.00  0.00    +0.000 HD
ENDBRANCH   7   9
ENDBRANCH   2   8
ENDBRANCH   1   2
BRANCH   1  11
ATOM     11  C   UNL     1       1.829   4.587  17.754  0.00  0.00    +0.000 C 
BRANCH  11  12
ATOM     12  C   UNL     1       1.525   4.029  19.148  0.00  0.00    +0.000 C 
BRANCH  12  13
ATOM     13  CA  UNL     1       2.607   4.310  20.192  0.00  0.00    +0.000 C 
BRANCH  13  14
ATOM     14  N   UNL     1       2.269   5.477  21.059  0.00  0.00    +0.000 NA
ATOM     15  H1  UNL     1       3.129   5.786  21.528  0.00  0.00    +0.000 HD
ATOM     16  H2  UNL     1       1.675   5.145  21.824  0.00  0.00    +0.000 HD
ENDBRANCH  13  14
BRANCH  13  17
ATOM     17  C   UNL     1       2.788   3.079  21.106  0.00  0.00    +0.000 C 
ATOM     18  O   UNL     1       2.101   2.804  22.076  0.00  0.00    +0.000 OA
BRANCH  17  19
ATOM     19  OXT UNL     1       3.827   2.312  20.681  0.00  0.00    +0.000 OA
ATOM     20  HXT UNL     1       3.428   1.447  20.405  0.00  0.00    +0.000 HD
ENDBRANCH  17  19
ENDBRANCH  13  17
ENDBRANCH  12  13
ENDBRANCH  11  12
ENDBRANCH   1  11
TORSDOF 9
ENDMDL
MODEL 6
REMARK VINA RESULT:      -6.0      1.645      2.253
REMARK  Name = 
REMARK  10 active torsions:
REMARK  status: ('A' for Active; 'I' for Inactive)
REMARK    1  A    between atoms: C_1  and  C_2
REMARK    2  A    between atoms: C_5  and  O_6
REMARK    3  A    between atoms: C_7  and  C_8
REMARK    4  A    between atoms: C_8  and  C_9
REMARK    5  A    between atoms: C_9  and  C_10
REMARK    6  A    between atoms: C_10  and  C_11
REMARK    7  A    between atoms: C_11  and  CA_12
REMARK    8  A    between atoms: CA_12  and  N_13
REMARK    9  A    between atoms: CA_12  and  C_14
REMARK   10  A    between atoms: C_14  and  OXT_16
REMARK                            x       y       z     vdW  Elec       q    Type
REMARK                         _______ _______ _______ _____ _____    ______ ____
ROOT
ATOM      1  C   UNL     1       4.115   5.639  18.448  0.00  0.00    +0.000 C 
ENDROOT
BRANCH   1   2
ATOM      2  C   UNL     1       5.548   5.118  18.592  0.00  0.00    +0.000 C 
BRANCH   2   8
ATOM      3  C   UNL     1       7.519   7.628  17.618  0.00  0.00    +0.000 C 
ATOM      4  C   UNL     1       7.161   6.342  16.988  0.00  0.00    +0.000 A 
ATOM      5  O   UNL     1       7.727   6.079  15.773  0.00  0.00    +0.000 OA
ATOM      6  N   UNL     1       7.294   4.835  15.323  0.00  0.00    +0.000 NA
ATOM      7  C   UNL     1       6.487   4.406  16.284  0.00  0.00    +0.000 A 
ATOM      8  C   UNL     1       6.345   5.290  17.357  0.00  0.00    +0.000 A 
BRANCH   7   9
ATOM      9  O   UNL     1       5.928   3.207  16.108  0.00  0.00    +0.000 OA
ATOM     10  H   UNL     1       6.384   2.819  15.342  0.00  0.00    +0.000 HD
ENDBRANCH   7   9
ENDBRANCH   2   8
ENDBRANCH   1   2
BRANCH   1  11
ATOM     11  C   UNL     1       3.198   4.652  17.714  0.00  0.00    +0.000 C 
BRANCH  11  12
ATOM     12  C   UNL     1       2.389   3.781  18.680  0.00  0.00    +0.000 C 
BRANCH  12  13
ATOM     13  CA  UNL     1       2.972   2.386  18.914  0.00  0.00    +0.000 C 
BRANCH  13  14
ATOM     14  N   UNL     1       3.905   1.971  17.825  0.00  0.00    +0.000 NA
ATOM     15  H1  UNL     1       3.377   1.403  17.152  0.00  0.00    +0.000 HD
ATOM     16  H2  UNL     1       4.586   1.316  18.221  0.00  0.00    +0.000 HD
ENDBRANCH  13  14
BRANCH  13  17
ATOM     17  C   UNL     1       3.757   2.362  20.243  0.00  0.00    +0.000 C 
ATOM     18  O   UNL     1       4.934   2.065  20.372  0.00  0.00    +0.000 OA
BRANCH  17  19
ATOM     19  OXT UNL     1       2.960   2.733  21.281  0.00  0.00    +0.000 OA
ATOM     20  HXT UNL     1       3.575   2.983  22.016  0.00  0.00    +0.000 HD
ENDBRANCH  17  19
ENDBRANCH  13  17
ENDBRANCH  12  13
ENDBRANCH  11  12
ENDBRANCH   1  11
TORSDOF 9
ENDMDL
MODEL 7
REMARK VINA RESULT:      -6.0      1.165      1.455
REMARK  Name = 
REMARK  10 active torsions:
REMARK  status: ('A' for Active; 'I' for Inactive)
REMARK    1  A    between atoms: C_1  and  C_2
REMARK    2  A    between atoms: C_5  and  O_6
REMARK    3  A    between atoms: C_7  and  C_8
REMARK    4  A    between atoms: C_8  and  C_9
REMARK    5  A    between atoms: C_9  and  C_10
REMARK    6  A    between atoms: C_10  and  C_11
REMARK    7  A    between atoms: C_11  and  CA_12
REMARK    8  A    between atoms: CA_12  and  N_13
REMARK    9  A    between atoms: CA_12  and  C_14
REMARK   10  A    between atoms: C_14  and  OXT_16
REMARK                            x       y       z     vdW  Elec       q    Type
REMARK                         _______ _______ _______ _____ _____    ______ ____
ROOT
ATOM      1  C   UNL     1       3.388   5.054  17.563  0.00  0.00    +0.000 C 
ENDROOT
BRANCH   1   2
ATOM      2  C   UNL     1       4.548   6.039  17.395  0.00  0.00    +0.000 C 
BRANCH   2   8
ATOM      3  C   UNL     1       6.437   5.031  14.835  0.00  0.00    +0.000 C 
ATOM      4  C   UNL     1       6.630   4.974  16.298  0.00  0.00    +0.000 A 
ATOM      5  O   UNL     1       7.795   4.415  16.739  0.00  0.00    +0.000 OA
ATOM      6  N   UNL     1       7.822   4.443  18.130  0.00  0.00    +0.000 NA
ATOM      7  C   UNL     1       6.673   5.013  18.465  0.00  0.00    +0.000 A 
ATOM      8  C   UNL     1       5.868   5.371  17.379  0.00  0.00    +0.000 A 
BRANCH   7   9
ATOM      9  O   UNL     1       6.439   5.175  19.769  0.00  0.00    +0.000 OA
ATOM     10  H   UNL     1       7.167   4.714  20.220  0.00  0.00    +0.000 HD
ENDBRANCH   7   9
ENDBRANCH   2   8
ENDBRANCH   1   2
BRANCH   1  11
ATOM     11  C   UNL     1       2.575   5.311  18.839  0.00  0.00    +0.000 C 
BRANCH  11  12
ATOM     12  C   UNL     1       2.105   4.012  19.501  0.00  0.00    +0.000 C 
BRANCH  12  13
ATOM     13  CA  UNL     1       3.141   3.359  20.418  0.00  0.00    +0.000 C 
BRANCH  13  14
ATOM     14  N   UNL     1       2.518   2.726  21.618  0.00  0.00    +0.000 NA
ATOM     15  H1  UNL     1       2.858   1.759  21.681  0.00  0.00    +0.000 HD
ATOM     16  H2  UNL     1       1.515   2.625  21.440  0.00  0.00    +0.000 HD
ENDBRANCH  13  14
BRANCH  13  17
ATOM     17  C   UNL     1       3.906   2.261  19.648  0.00  0.00    +0.000 C 
ATOM     18  O   UNL     1       3.429   1.513  18.810  0.00  0.00    +0.000 OA
BRANCH  17  19
ATOM     19  OXT UNL     1       5.214   2.235  20.018  0.00  0.00    +0.000 OA
ATOM     20  HXT UNL     1       5.310   1.450  20.614  0.00  0.00    +0.000 HD
ENDBRANCH  17  19
ENDBRANCH  13  17
ENDBRANCH  12  13
ENDBRANCH  11  12
ENDBRANCH   1  11
TORSDOF 9
ENDMDL
MODEL 8
REMARK VINA RESULT:      -6.0      1.228      1.433
REMARK  Name = 
REMARK  10 active torsions:
REMARK  status: ('A' for Active; 'I' for Inactive)
REMARK    1  A    between atoms: C_1  and  C_2
REMARK    2  A    between atoms: C_5  and  O_6
REMARK    3  A    between atoms: C_7  and  C_8
REMARK    4  A    between atoms: C_8  and  C_9
REMARK    5  A    between atoms: C_9  and  C_10
REMARK    6  A    between atoms: C_10  and  C_11
REMARK    7  A    between atoms: C_11  and  CA_12
REMARK    8  A    between atoms: CA_12  and  N_13
REMARK    9  A    between atoms: CA_12  and  C_14
REMARK   10  A    between atoms: C_14  and  OXT_16
REMARK                            x       y       z     vdW  Elec       q    Type
REMARK                         _______ _______ _______ _____ _____    ______ ____
ROOT
ATOM      1  C   UNL     1       3.412   4.313  17.352  0.00  0.00    +0.000 C 
ENDROOT
BRANCH   1   2
ATOM      2  C   UNL     1       4.416   5.413  16.992  0.00  0.00    +0.000 C 
BRANCH   2   8
ATOM      3  C   UNL     1       6.859   4.730  14.825  0.00  0.00    +0.000 C 
ATOM      4  C   UNL     1       6.811   4.738  16.300  0.00  0.00    +0.000 A 
ATOM      5  O   UNL     1       7.968   4.417  16.950  0.00  0.00    +0.000 OA
ATOM      6  N   UNL     1       7.755   4.476  18.324  0.00  0.00    +0.000 NA
ATOM      7  C   UNL     1       6.482   4.826  18.441  0.00  0.00    +0.000 A 
ATOM      8  C   UNL     1       5.819   5.005  17.223  0.00  0.00    +0.000 A 
BRANCH   7   9
ATOM      9  O   UNL     1       6.008   4.966  19.680  0.00  0.00    +0.000 OA
ATOM     10  H   UNL     1       6.547   4.374  20.232  0.00  0.00    +0.000 HD
ENDBRANCH   7   9
ENDBRANCH   2   8
ENDBRANCH   1   2
BRANCH   1  11
ATOM     11  C   UNL     1       2.213   4.845  18.148  0.00  0.00    +0.000 C 
BRANCH  11  12
ATOM     12  C   UNL     1       2.532   5.020  19.635  0.00  0.00    +0.000 C 
BRANCH  12  13
ATOM     13  CA  UNL     1       1.751   4.088  20.564  0.00  0.00    +0.000 C 
BRANCH  13  14
ATOM     14  N   UNL     1       0.659   3.362  19.851  0.00  0.00    +0.000 NA
ATOM     15  H1  UNL     1      -0.198   3.444  20.411  0.00  0.00    +0.000 HD
ATOM     16  H2  UNL     1       0.874   2.361  19.872  0.00  0.00    +0.000 HD
ENDBRANCH  13  14
BRANCH  13  17
ATOM     17  C   UNL     1       2.701   3.034  21.170  0.00  0.00    +0.000 C 
ATOM     18  O   UNL     1       2.537   2.449  22.229  0.00  0.00    +0.000 OA
BRANCH  17  19
ATOM     19  OXT UNL     1       3.768   2.820  20.355  0.00  0.00    +0.000 OA
ATOM     20  HXT UNL     1       3.840   1.837  20.257  0.00  0.00    +0.000 HD
ENDBRANCH  17  19
ENDBRANCH  13  17
ENDBRANCH  12  13
ENDBRANCH  11  12
ENDBRANCH   1  11
TORSDOF 9
ENDMDL
MODEL 9
REMARK VINA RESULT:      -6.0      2.494      3.149
REMARK  Name = 
REMARK  10 active torsions:
REMARK  status: ('A' for Active; 'I' for Inactive)
REMARK    1  A    between atoms: C_1  and  C_2
REMARK    2  A    between atoms: C_5  and  O_6
REMARK    3  A    between atoms: C_7  and  C_8
REMARK    4  A    between atoms: C_8  and  C_9
REMARK    5  A    between atoms: C_9  and  C_10
REMARK    6  A    between atoms: C_10  and  C_11
REMARK    7  A    between atoms: C_11  and  CA_12
REMARK    8  A    between atoms: CA_12  and  N_13
REMARK    9  A    between atoms: CA_12  and  C_14
REMARK   10  A    between atoms: C_14  and  OXT_16
REMARK                            x       y       z     vdW  Elec       q    Type
REMARK                         _______ _______ _______ _____ _____    ______ ____
ROOT
ATOM      1  C   UNL     1       3.858   4.065  17.079  0.00  0.00    +0.000 C 
ENDROOT
BRANCH   1   2
ATOM      2  C   UNL     1       5.337   3.741  17.307  0.00  0.00    +0.000 C 
BRANCH   2   8
ATOM      3  C   UNL     1       7.098   6.475  18.055  0.00  0.00    +0.000 C 
ATOM      4  C   UNL     1       6.962   5.688  16.814  0.00  0.00    +0.000 A 
ATOM      5  O   UNL     1       7.683   6.117  15.736  0.00  0.00    +0.000 OA
ATOM      6  N   UNL     1       7.448   5.269  14.658  0.00  0.00    +0.000 NA
ATOM      7  C   UNL     1       6.597   4.370  15.132  0.00  0.00    +0.000 A 
ATOM      8  C   UNL     1       6.238   4.563  16.469  0.00  0.00    +0.000 A 
BRANCH   7   9
ATOM      9  O   UNL     1       6.203   3.413  14.290  0.00  0.00    +0.000 OA
ATOM     10  H   UNL     1       6.546   2.583  14.664  0.00  0.00    +0.000 HD
ENDBRANCH   7   9
ENDBRANCH   2   8
ENDBRANCH   1   2
BRANCH   1  11
ATOM     11  C   UNL     1       3.374   5.248  17.929  0.00  0.00    +0.000 C 
BRANCH  11  12
ATOM     12  C   UNL     1       2.205   4.868  18.842  0.00  0.00    +0.000 C 
BRANCH  12  13
ATOM     13  CA  UNL     1       2.510   4.977  20.338  0.00  0.00    +0.000 C 
BRANCH  13  14
ATOM     14  N   UNL     1       2.054   6.275  20.917  0.00  0.00    +0.000 NA
ATOM     15  H1  UNL     1       2.537   6.412  21.813  0.00  0.00    +0.000 HD
ATOM     16  H2  UNL     1       1.069   6.179  21.179  0.00  0.00    +0.000 HD
ENDBRANCH  13  14
BRANCH  13  17
ATOM     17  C   UNL     1       1.796   3.842  21.103  0.00  0.00    +0.000 C 
ATOM     18  O   UNL     1       2.215   3.283  22.104  0.00  0.00    +0.000 OA
BRANCH  17  19
ATOM     19  OXT UNL     1       0.607   3.539  20.517  0.00  0.00    +0.000 OA
ATOM     20  HXT UNL     1       0.268   2.739  20.995  0.00  0.00    +0.000 HD
ENDBRANCH  17  19
ENDBRANCH  13  17
ENDBRANCH  12  13
ENDBRANCH  11  12
ENDBRANCH   1  11
TORSDOF 9
ENDMDL
