MODEL 1
REMARK VINA RESULT:      -5.9      0.000      0.000
REMARK  Name = 
REMARK  18 active torsions:
REMARK  status: ('A' for Active; 'I' for Inactive)
REMARK    1  A    between atoms: C_1  and  C_2
REMARK    2  A    between atoms: C_2  and  C_3
REMARK    3  A    between atoms: C_3  and  C_4
REMARK    4  A    between atoms: C_4  and  C_5
REMARK    5  A    between atoms: C_5  and  C_6
REMARK    6  A    between atoms: C_6  and  C_7
REMARK    7  A    between atoms: C_7  and  C_8
REMARK    8  A    between atoms: C_8  and  C_9
REMARK    9  A    between atoms: C_8  and  O_21
REMARK   10  A    between atoms: C_9  and  C_10
REMARK   11  A    between atoms: C_11  and  C_12
REMARK   12  A    between atoms: C_12  and  C_13
REMARK   13  A    between atoms: C_13  and  C_14
REMARK   14  A    between atoms: N_16  and  C_17
REMARK   15  A    between atoms: C_17  and  C_18
REMARK   16  A    between atoms: C_18  and  C_19
REMARK   17  A    between atoms: C_18  and  C_20
REMARK   18  A    between atoms: O_21  and  C_22
REMARK                            x       y       z     vdW  Elec       q    Type
REMARK                         _______ _______ _______ _____ _____    ______ ____
ROOT
ATOM      1  C   UNL     1       4.650   5.263  18.435  0.00  0.00    +0.000 C 
ATOM      2  C   UNL     1       4.559   5.556  17.128  0.00  0.00    +0.000 C 
ENDROOT
BRANCH   1   3
ATOM      3  C   UNL     1       4.061   6.121  19.517  0.00  0.00    +0.000 C 
BRANCH   3   4
ATOM      4  C   UNL     1       2.528   6.269  19.438  0.00  0.00    +0.000 C 
BRANCH   4   5
ATOM      5  O   UNL     1       2.137   7.640  19.259  0.00  0.00    +0.000 OA
ATOM      6  C   UNL     1       2.261   8.154  17.939  0.00  0.00    +0.000 C 
ENDBRANCH   4   5
BRANCH   4   7
ATOM      7  C   UNL     1       1.803   5.627  20.633  0.00  0.00    +0.000 C 
BRANCH   7   8
ATOM      8  C   UNL     1       1.174   4.278  20.288  0.00  0.00    +0.000 C 
BRANCH   8   9
ATOM      9  C   UNL     1       1.288   4.003  18.789  0.00  0.00    +0.000 C 
BRANCH   9  10
ATOM     10  C   UNL     1       1.337   2.503  18.518  0.00  0.00    +0.000 C 
BRANCH  10  11
ATOM     11  C   UNL     1       2.348   2.169  17.425  0.00  0.00    +0.000 C 
BRANCH  11  13
ATOM     12  C   UNL     1       3.761   1.057  19.180  0.00  0.00    +0.000 C 
ATOM     13  C   UNL     1       3.751   2.024  18.010  0.00  0.00    +0.000 C 
ENDBRANCH  11  13
ENDBRANCH  10  11
ENDBRANCH   9  10
ENDBRANCH   8   9
ENDBRANCH   7   8
ENDBRANCH   4   7
ENDBRANCH   3   4
ENDBRANCH   1   3
BRANCH   2  14
ATOM     14  C   UNL     1       5.145   4.690  16.053  0.00  0.00    +0.000 C 
BRANCH  14  15
ATOM     15  C   UNL     1       6.611   5.030  15.809  0.00  0.00    +0.000 C 
BRANCH  15  16
ATOM     16  C   UNL     1       6.975   4.823  14.357  0.00  0.00    +0.000 C 
ATOM     17  O   UNL     1       7.799   5.511  13.759  0.00  0.00    +0.000 OA
ATOM     18  N   UNL     1       6.281   3.792  13.760  0.00  0.00    +0.000 N 
ATOM     19  H   UNL     1       5.677   3.210  14.323  0.00  0.00    +0.000 HD
BRANCH  18  20
ATOM     20  C   UNL     1       6.489   3.452  12.371  0.00  0.00    +0.000 C 
BRANCH  20  21
ATOM     21  C   UNL     1       5.497   2.399  11.853  0.00  0.00    +0.000 C 
ATOM     22  C   UNL     1       4.322   3.043  11.116  0.00  0.00    +0.000 C 
ATOM     23  C   UNL     1       6.218   1.421  10.926  0.00  0.00    +0.000 C 
ENDBRANCH  20  21
ENDBRANCH  18  20
ENDBRANCH  15  16
ENDBRANCH  14  15
ENDBRANCH   2  14
TORSDOF 14
ENDMDL
MODEL 2
REMARK VINA RESULT:      -5.9      3.805      7.545
REMARK  Name = 
REMARK  18 active torsions:
REMARK  status: ('A' for Active; 'I' for Inactive)
REMARK    1  A    between atoms: C_1  and  C_2
REMARK    2  A    between atoms: C_2  and  C_3
REMARK    3  A    between atoms: C_3  and  C_4
REMARK    4  A    between atoms: C_4  and  C_5
REMARK    5  A    between atoms: C_5  and  C_6
REMARK    6  A    between atoms: C_6  and  C_7
REMARK    7  A    between atoms: C_7  and  C_8
REMARK    8  A    between atoms: C_8  and  C_9
REMARK    9  A    between atoms: C_8  and  O_21
REMARK   10  A    between atoms: C_9  and  C_10
REMARK   11  A    between atoms: C_11  and  C_12
REMARK   12  A    between atoms: C_12  and  C_13
REMARK   13  A    between atoms: C_13  and  C_14
REMARK   14  A    between atoms: N_16  and  C_17
REMARK   15  A    between atoms: C_17  and  C_18
REMARK   16  A    between atoms: C_18  and  C_19
REMARK   17  A    between atoms: C_18  and  C_20
REMARK   18  A    between atoms: O_21  and  C_22
REMARK                            x       y       z     vdW  Elec       q    Type
REMARK                         _______ _______ _______ _____ _____    ______ ____
ROOT
ATOM      1  C   UNL     1       3.147   6.588  17.930  0.00  0.00    +0.000 C 
ATOM      2  C   UNL     1       2.667   7.748  18.404  0.00  0.00    +0.000 C 
ENDROOT
BRANCH   1   3
ATOM      3  C   UNL     1       4.170   5.760  18.652  0.00  0.00    +0.000 C 
BRANCH   3   4
ATOM      4  C   UNL     1       4.891   4.733  17.757  0.00  0.00    +0.000 C 
BRANCH   4   5
ATOM      5  O   UNL     1       5.808   5.368  16.853  0.00  0.00    +0.000 OA
ATOM      6  C   UNL     1       6.874   6.092  17.456  0.00  0.00    +0.000 C 
ENDBRANCH   4   5
BRANCH   4   7
ATOM      7  C   UNL     1       3.918   3.802  17.012  0.00  0.00    +0.000 C 
BRANCH   7   8
ATOM      8  C   UNL     1       3.155   2.869  17.952  0.00  0.00    +0.000 C 
BRANCH   8   9
ATOM      9  C   UNL     1       1.663   3.197  17.936  0.00  0.00    +0.000 C 
BRANCH   9  10
ATOM     10  C   UNL     1       1.033   2.907  19.294  0.00  0.00    +0.000 C 
BRANCH  10  11
ATOM     11  C   UNL     1       0.977   4.162  20.160  0.00  0.00    +0.000 C 
BRANCH  11  13
ATOM     12  C   UNL     1       2.396   2.711  21.642  0.00  0.00    +0.000 C 
ATOM     13  C   UNL     1       2.071   4.134  21.225  0.00  0.00    +0.000 C 
ENDBRANCH  11  13
ENDBRANCH  10  11
ENDBRANCH   9  10
ENDBRANCH   8   9
ENDBRANCH   7   8
ENDBRANCH   4   7
ENDBRANCH   3   4
ENDBRANCH   1   3
BRANCH   2  14
ATOM     14  C   UNL     1       1.639   8.566  17.678  0.00  0.00    +0.000 C 
BRANCH  14  15
ATOM     15  C   UNL     1       1.546   9.973  18.256  0.00  0.00    +0.000 C 
BRANCH  15  16
ATOM     16  C   UNL     1       0.171  10.226  18.834  0.00  0.00    +0.000 C 
ATOM     17  O   UNL     1      -0.112  10.042  20.015  0.00  0.00    +0.000 OA
ATOM     18  N   UNL     1      -0.740  10.672  17.901  0.00  0.00    +0.000 N 
ATOM     19  H   UNL     1      -0.428  10.881  16.963  0.00  0.00    +0.000 HD
BRANCH  18  20
ATOM     20  C   UNL     1      -2.109  10.958  18.266  0.00  0.00    +0.000 C 
BRANCH  20  21
ATOM     21  C   UNL     1      -3.134  10.250  17.365  0.00  0.00    +0.000 C 
ATOM     22  C   UNL     1      -4.377  11.110  17.139  0.00  0.00    +0.000 C 
ATOM     23  C   UNL     1      -2.490   9.902  16.023  0.00  0.00    +0.000 C 
ENDBRANCH  20  21
ENDBRANCH  18  20
ENDBRANCH  15  16
ENDBRANCH  14  15
ENDBRANCH   2  14
TORSDOF 14
ENDMDL
MODEL 3
REMARK VINA RESULT:      -5.9      1.122      1.698
REMARK  Name = 
REMARK  18 active torsions:
REMARK  status: ('A' for Active; 'I' for Inactive)
REMARK    1  A    between atoms: C_1  and  C_2
REMARK    2  A    between atoms: C_2  and  C_3
REMARK    3  A    between atoms: C_3  and  C_4
REMARK    4  A    between atoms: C_4  and  C_5
REMARK    5  A    between atoms: C_5  and  C_6
REMARK    6  A    between atoms: C_6  and  C_7
REMARK    7  A    between atoms: C_7  and  C_8
REMARK    8  A    between atoms: C_8  and  C_9
REMARK    9  A    between atoms: C_8  and  O_21
REMARK   10  A    between atoms: C_9  and  C_10
REMARK   11  A    between atoms: C_11  and  C_12
REMARK   12  A    between atoms: C_12  and  C_13
REMARK   13  A    between atoms: C_13  and  C_14
REMARK   14  A    between atoms: N_16  and  C_17
REMARK   15  A    between atoms: C_17  and  C_18
REMARK   16  A    between atoms: C_18  and  C_19
REMARK   17  A    between atoms: C_18  and  C_20
REMARK   18  A    between atoms: O_21  and  C_22
REMARK                            x       y       z     vdW  Elec       q    Type
REMARK                         _______ _______ _______ _____ _____    ______ ____
ROOT
ATOM      1  C   UNL     1       4.334   6.390  17.205  0.00  0.00    +0.000 C 
ATOM      2  C   UNL     1       5.429   5.849  17.762  0.00  0.00    +0.000 C 
ENDROOT
BRANCH   1   3
ATOM      3  C   UNL     1       3.652   7.614  17.743  0.00  0.00    +0.000 C 
BRANCH   3   4
ATOM      4  C   UNL     1       2.314   7.326  18.453  0.00  0.00    +0.000 C 
BRANCH   4   5
ATOM      5  O   UNL     1       1.729   8.524  18.988  0.00  0.00    +0.000 OA
ATOM      6  C   UNL     1       1.473   9.562  18.049  0.00  0.00    +0.000 C 
ENDBRANCH   4   5
BRANCH   4   7
ATOM      7  C   UNL     1       2.431   6.229  19.526  0.00  0.00    +0.000 C 
BRANCH   7   8
ATOM      8  C   UNL     1       1.715   4.937  19.130  0.00  0.00    +0.000 C 
BRANCH   8   9
ATOM      9  C   UNL     1       1.284   4.163  20.374  0.00  0.00    +0.000 C 
BRANCH   9  10
ATOM     10  C   UNL     1       1.761   2.716  20.301  0.00  0.00    +0.000 C 
BRANCH  10  11
ATOM     11  C   UNL     1       3.186   2.575  20.826  0.00  0.00    +0.000 C 
BRANCH  11  13
ATOM     12  C   UNL     1       3.518   1.739  18.479  0.00  0.00    +0.000 C 
ATOM     13  C   UNL     1       4.174   2.408  19.673  0.00  0.00    +0.000 C 
ENDBRANCH  11  13
ENDBRANCH  10  11
ENDBRANCH   9  10
ENDBRANCH   8   9
ENDBRANCH   7   8
ENDBRANCH   4   7
ENDBRANCH   3   4
ENDBRANCH   1   3
BRANCH   2  14
ATOM     14  C   UNL     1       6.108   4.629  17.214  0.00  0.00    +0.000 C 
BRANCH  14  15
ATOM     15  C   UNL     1       5.359   4.076  16.007  0.00  0.00    +0.000 C 
BRANCH  15  16
ATOM     16  C   UNL     1       6.084   4.414  14.724  0.00  0.00    +0.000 C 
ATOM     17  O   UNL     1       6.676   5.474  14.538  0.00  0.00    +0.000 OA
ATOM     18  N   UNL     1       6.007   3.419  13.774  0.00  0.00    +0.000 N 
ATOM     19  H   UNL     1       5.576   2.537  14.013  0.00  0.00    +0.000 HD
BRANCH  18  20
ATOM     20  C   UNL     1       6.632   3.566  12.479  0.00  0.00    +0.000 C 
BRANCH  20  21
ATOM     21  C   UNL     1       5.838   2.899  11.346  0.00  0.00    +0.000 C 
ATOM     22  C   UNL     1       6.068   1.388  11.307  0.00  0.00    +0.000 C 
ATOM     23  C   UNL     1       4.347   3.193  11.516  0.00  0.00    +0.000 C 
ENDBRANCH  20  21
ENDBRANCH  18  20
ENDBRANCH  15  16
ENDBRANCH  14  15
ENDBRANCH   2  14
TORSDOF 14
ENDMDL
MODEL 4
REMARK VINA RESULT:      -5.9      1.202      1.816
REMARK  Name = 
REMARK  18 active torsions:
REMARK  status: ('A' for Active; 'I' for Inactive)
REMARK    1  A    between atoms: C_1  and  C_2
REMARK    2  A    between atoms: C_2  and  C_3
REMARK    3  A    between atoms: C_3  and  C_4
REMARK    4  A    between atoms: C_4  and  C_5
REMARK    5  A    between atoms: C_5  and  C_6
REMARK    6  A    between atoms: C_6  and  C_7
REMARK    7  A    between atoms: C_7  and  C_8
REMARK    8  A    between atoms: C_8  and  C_9
REMARK    9  A    between atoms: C_8  and  O_21
REMARK   10  A    between atoms: C_9  and  C_10
REMARK   11  A    between atoms: C_11  and  C_12
REMARK   12  A    between atoms: C_12  and  C_13
REMARK   13  A    between atoms: C_13  and  C_14
REMARK   14  A    between atoms: N_16  and  C_17
REMARK   15  A    between atoms: C_17  and  C_18
REMARK   16  A    between atoms: C_18  and  C_19
REMARK   17  A    between atoms: C_18  and  C_20
REMARK   18  A    between atoms: O_21  and  C_22
REMARK                            x       y       z     vdW  Elec       q    Type
REMARK                         _______ _______ _______ _____ _____    ______ ____
ROOT
ATOM      1  C   UNL     1       5.032   5.078  18.775  0.00  0.00    +0.000 C 
ATOM      2  C   UNL     1       5.756   5.552  17.750  0.00  0.00    +0.000 C 
ENDROOT
BRANCH   1   3
ATOM      3  C   UNL     1       3.973   5.877  19.479  0.00  0.00    +0.000 C 
BRANCH   3   4
ATOM      4  C   UNL     1       2.863   6.406  18.549  0.00  0.00    +0.000 C 
BRANCH   4   5
ATOM      5  O   UNL     1       2.523   7.768  18.852  0.00  0.00    +0.000 OA
ATOM      6  C   UNL     1       2.037   8.543  17.763  0.00  0.00    +0.000 C 
ENDBRANCH   4   5
BRANCH   4   7
ATOM      7  C   UNL     1       1.617   5.504  18.531  0.00  0.00    +0.000 C 
BRANCH   7   8
ATOM      8  C   UNL     1       1.812   4.243  17.690  0.00  0.00    +0.000 C 
BRANCH   8   9
ATOM      9  C   UNL     1       1.300   3.015  18.441  0.00  0.00    +0.000 C 
BRANCH   9  10
ATOM     10  C   UNL     1       0.725   3.412  19.797  0.00  0.00    +0.000 C 
BRANCH  10  11
ATOM     11  C   UNL     1       1.278   2.532  20.913  0.00  0.00    +0.000 C 
BRANCH  11  13
ATOM     12  C   UNL     1       3.786   2.384  20.865  0.00  0.00    +0.000 C 
ATOM     13  C   UNL     1       2.587   3.103  21.455  0.00  0.00    +0.000 C 
ENDBRANCH  11  13
ENDBRANCH  10  11
ENDBRANCH   9  10
ENDBRANCH   8   9
ENDBRANCH   7   8
ENDBRANCH   4   7
ENDBRANCH   3   4
ENDBRANCH   1   3
BRANCH   2  14
ATOM     14  C   UNL     1       6.808   4.744  17.049  0.00  0.00    +0.000 C 
BRANCH  14  15
ATOM     15  C   UNL     1       6.194   3.844  15.984  0.00  0.00    +0.000 C 
BRANCH  15  16
ATOM     16  C   UNL     1       6.546   4.336  14.598  0.00  0.00    +0.000 C 
ATOM     17  O   UNL     1       6.922   5.480  14.360  0.00  0.00    +0.000 OA
ATOM     18  N   UNL     1       6.392   3.375  13.622  0.00  0.00    +0.000 N 
ATOM     19  H   UNL     1       6.158   2.430  13.889  0.00  0.00    +0.000 HD
BRANCH  18  20
ATOM     20  C   UNL     1       6.672   3.664  12.234  0.00  0.00    +0.000 C 
BRANCH  20  21
ATOM     21  C   UNL     1       5.751   2.908  11.262  0.00  0.00    +0.000 C 
ATOM     22  C   UNL     1       5.997   1.399  11.309  0.00  0.00    +0.000 C 
ATOM     23  C   UNL     1       4.290   3.207  11.596  0.00  0.00    +0.000 C 
ENDBRANCH  20  21
ENDBRANCH  18  20
ENDBRANCH  15  16
ENDBRANCH  14  15
ENDBRANCH   2  14
TORSDOF 14
ENDMDL
MODEL 5
REMARK VINA RESULT:      -5.9      3.353      7.749
REMARK  Name = 
REMARK  18 active torsions:
REMARK  status: ('A' for Active; 'I' for Inactive)
REMARK    1  A    between atoms: C_1  and  C_2
REMARK    2  A    between atoms: C_2  and  C_3
REMARK    3  A    between atoms: C_3  and  C_4
REMARK    4  A    between atoms: C_4  and  C_5
REMARK    5  A    between atoms: C_5  and  C_6
REMARK    6  A    between atoms: C_6  and  C_7
REMARK    7  A    between atoms: C_7  and  C_8
REMARK    8  A    between atoms: C_8  and  C_9
REMARK    9  A    between atoms: C_8  and  O_21
REMARK   10  A    between atoms: C_9  and  C_10
REMARK   11  A    between atoms: C_11  and  C_12
REMARK   12  A    between atoms: C_12  and  C_13
REMARK   13  A    between atoms: C_13  and  C_14
REMARK   14  A    between atoms: N_16  and  C_17
REMARK   15  A    between atoms: C_17  and  C_18
REMARK   16  A    between atoms: C_18  and  C_19
REMARK   17  A    between atoms: C_18  and  C_20
REMARK   18  A    between atoms: O_21  and  C_22
REMARK                            x       y       z     vdW  Elec       q    Type
REMARK                         _______ _______ _______ _____ _____    ______ ____
ROOT
ATOM      1  C   UNL     1       4.057   6.394  17.577  0.00  0.00    +0.000 C 
ATOM      2  C   UNL     1       3.289   7.048  18.463  0.00  0.00    +0.000 C 
ENDROOT
BRANCH   1   3
ATOM      3  C   UNL     1       5.440   5.899  17.888  0.00  0.00    +0.000 C 
BRANCH   3   4
ATOM      4  C   UNL     1       5.602   4.371  17.769  0.00  0.00    +0.000 C 
BRANCH   4   5
ATOM      5  O   UNL     1       5.767   3.960  16.403  0.00  0.00    +0.000 OA
ATOM      6  C   UNL     1       6.842   4.567  15.698  0.00  0.00    +0.000 C 
ENDBRANCH   4   5
BRANCH   4   7
ATOM      7  C   UNL     1       4.466   3.594  18.458  0.00  0.00    +0.000 C 
BRANCH   7   8
ATOM      8  C   UNL     1       3.637   2.765  17.477  0.00  0.00    +0.000 C 
BRANCH   8   9
ATOM      9  C   UNL     1       2.290   2.394  18.096  0.00  0.00    +0.000 C 
BRANCH   9  10
ATOM     10  C   UNL     1       1.422   3.635  18.281  0.00  0.00    +0.000 C 
BRANCH  10  11
ATOM     11  C   UNL     1       0.766   3.652  19.658  0.00  0.00    +0.000 C 
BRANCH  11  13
ATOM     12  C   UNL     1       2.213   3.486  21.706  0.00  0.00    +0.000 C 
ATOM     13  C   UNL     1       1.628   4.417  20.660  0.00  0.00    +0.000 C 
ENDBRANCH  11  13
ENDBRANCH  10  11
ENDBRANCH   9  10
ENDBRANCH   8   9
ENDBRANCH   7   8
ENDBRANCH   4   7
ENDBRANCH   3   4
ENDBRANCH   1   3
BRANCH   2  14
ATOM     14  C   UNL     1       1.906   7.534  18.144  0.00  0.00    +0.000 C 
BRANCH  14  15
ATOM     15  C   UNL     1       1.909   9.017  17.794  0.00  0.00    +0.000 C 
BRANCH  15  16
ATOM     16  C   UNL     1       0.851   9.757  18.581  0.00  0.00    +0.000 C 
ATOM     17  O   UNL     1      -0.155  10.244  18.072  0.00  0.00    +0.000 OA
ATOM     18  N   UNL     1       1.130   9.842  19.928  0.00  0.00    +0.000 N 
ATOM     19  H   UNL     1       1.931   9.352  20.300  0.00  0.00    +0.000 HD
BRANCH  18  20
ATOM     20  C   UNL     1       0.237  10.522  20.838  0.00  0.00    +0.000 C 
BRANCH  20  21
ATOM     21  C   UNL     1       0.055   9.779  22.171  0.00  0.00    +0.000 C 
ATOM     22  C   UNL     1      -0.964  10.476  23.073  0.00  0.00    +0.000 C 
ATOM     23  C   UNL     1      -0.385   8.339  21.905  0.00  0.00    +0.000 C 
ENDBRANCH  20  21
ENDBRANCH  18  20
ENDBRANCH  15  16
ENDBRANCH  14  15
ENDBRANCH   2  14
TORSDOF 14
ENDMDL
MODEL 6
REMARK VINA RESULT:      -5.9      0.948      1.641
REMARK  Name = 
REMARK  18 active torsions:
REMARK  status: ('A' for Active; 'I' for Inactive)
REMARK    1  A    between atoms: C_1  and  C_2
REMARK    2  A    between atoms: C_2  and  C_3
REMARK    3  A    between atoms: C_3  and  C_4
REMARK    4  A    between atoms: C_4  and  C_5
REMARK    5  A    between atoms: C_5  and  C_6
REMARK    6  A    between atoms: C_6  and  C_7
REMARK    7  A    between atoms: C_7  and  C_8
REMARK    8  A    between atoms: C_8  and  C_9
REMARK    9  A    between atoms: C_8  and  O_21
REMARK   10  A    between atoms: C_9  and  C_10
REMARK   11  A    between atoms: C_11  and  C_12
REMARK   12  A    between atoms: C_12  and  C_13
REMARK   13  A    between atoms: C_13  and  C_14
REMARK   14  A    between atoms: N_16  and  C_17
REMARK   15  A    between atoms: C_17  and  C_18
REMARK   16  A    between atoms: C_18  and  C_19
REMARK   17  A    between atoms: C_18  and  C_20
REMARK   18  A    between atoms: O_21  and  C_22
REMARK                            x       y       z     vdW  Elec       q    Type
REMARK                         _______ _______ _______ _____ _____    ______ ____
ROOT
ATOM      1  C   UNL     1       4.514   6.247  17.209  0.00  0.00    +0.000 C 
ATOM      2  C   UNL     1       5.814   6.570  17.141  0.00  0.00    +0.000 C 
ENDROOT
BRANCH   1   3
ATOM      3  C   UNL     1       3.449   7.196  17.680  0.00  0.00    +0.000 C 
BRANCH   3   4
ATOM      4  C   UNL     1       2.504   6.603  18.744  0.00  0.00    +0.000 C 
BRANCH   4   5
ATOM      5  O   UNL     1       1.658   7.609  19.321  0.00  0.00    +0.000 OA
ATOM      6  C   UNL     1       1.945   8.950  18.947  0.00  0.00    +0.000 C 
ENDBRANCH   4   5
BRANCH   4   7
ATOM      7  C   UNL     1       3.250   5.804  19.827  0.00  0.00    +0.000 C 
BRANCH   7   8
ATOM      8  C   UNL     1       2.309   5.195  20.867  0.00  0.00    +0.000 C 
BRANCH   8   9
ATOM      9  C   UNL     1       1.176   4.435  20.181  0.00  0.00    +0.000 C 
BRANCH   9  10
ATOM     10  C   UNL     1       1.293   2.937  20.446  0.00  0.00    +0.000 C 
BRANCH  10  11
ATOM     11  C   UNL     1       2.355   2.298  19.558  0.00  0.00    +0.000 C 
BRANCH  11  13
ATOM     12  C   UNL     1       2.808   3.059  17.206  0.00  0.00    +0.000 C 
ATOM     13  C   UNL     1       1.889   2.250  18.104  0.00  0.00    +0.000 C 
ENDBRANCH  11  13
ENDBRANCH  10  11
ENDBRANCH   9  10
ENDBRANCH   8   9
ENDBRANCH   7   8
ENDBRANCH   4   7
ENDBRANCH   3   4
ENDBRANCH   1   3
BRANCH   2  14
ATOM     14  C   UNL     1       6.870   5.616  16.663  0.00  0.00    +0.000 C 
BRANCH  14  15
ATOM     15  C   UNL     1       6.270   4.527  15.781  0.00  0.00    +0.000 C 
BRANCH  15  16
ATOM     16  C   UNL     1       6.832   4.603  14.380  0.00  0.00    +0.000 C 
ATOM     17  O   UNL     1       7.659   5.439  14.024  0.00  0.00    +0.000 OA
ATOM     18  N   UNL     1       6.315   3.647  13.531  0.00  0.00    +0.000 N 
ATOM     19  H   UNL     1       5.701   2.936  13.902  0.00  0.00    +0.000 HD
BRANCH  18  20
ATOM     20  C   UNL     1       6.727   3.569  12.148  0.00  0.00    +0.000 C 
BRANCH  20  21
ATOM     21  C   UNL     1       5.738   2.789  11.268  0.00  0.00    +0.000 C 
ATOM     22  C   UNL     1       5.994   1.283  11.327  0.00  0.00    +0.000 C 
ATOM     23  C   UNL     1       4.305   3.090  11.708  0.00  0.00    +0.000 C 
ENDBRANCH  20  21
ENDBRANCH  18  20
ENDBRANCH  15  16
ENDBRANCH  14  15
ENDBRANCH   2  14
TORSDOF 14
ENDMDL
MODEL 7
REMARK VINA RESULT:      -5.8      3.830      7.656
REMARK  Name = 
REMARK  18 active torsions:
REMARK  status: ('A' for Active; 'I' for Inactive)
REMARK    1  A    between atoms: C_1  and  C_2
REMARK    2  A    between atoms: C_2  and  C_3
REMARK    3  A    between atoms: C_3  and  C_4
REMARK    4  A    between atoms: C_4  and  C_5
REMARK    5  A    between atoms: C_5  and  C_6
REMARK    6  A    between atoms: C_6  and  C_7
REMARK    7  A    between atoms: C_7  and  C_8
REMARK    8  A    between atoms: C_8  and  C_9
REMARK    9  A    between atoms: C_8  and  O_21
REMARK   10  A    between atoms: C_9  and  C_10
REMARK   11  A    between atoms: C_11  and  C_12
REMARK   12  A    between atoms: C_12  and  C_13
REMARK   13  A    between atoms: C_13  and  C_14
REMARK   14  A    between atoms: N_16  and  C_17
REMARK   15  A    between atoms: C_17  and  C_18
REMARK   16  A    between atoms: C_18  and  C_19
REMARK   17  A    between atoms: C_18  and  C_20
REMARK   18  A    between atoms: O_21  and  C_22
REMARK                            x       y       z     vdW  Elec       q    Type
REMARK                         _______ _______ _______ _____ _____    ______ ____
ROOT
ATOM      1  C   UNL     1       3.511   6.789  17.890  0.00  0.00    +0.000 C 
ATOM      2  C   UNL     1       2.973   8.010  17.747  0.00  0.00    +0.000 C 
ENDROOT
BRANCH   1   3
ATOM      3  C   UNL     1       4.756   6.345  17.177  0.00  0.00    +0.000 C 
BRANCH   3   4
ATOM      4  C   UNL     1       4.759   4.854  16.788  0.00  0.00    +0.000 C 
BRANCH   4   5
ATOM      5  O   UNL     1       5.166   4.663  15.424  0.00  0.00    +0.000 OA
ATOM      6  C   UNL     1       6.435   4.049  15.235  0.00  0.00    +0.000 C 
ENDBRANCH   4   5
BRANCH   4   7
ATOM      7  C   UNL     1       3.418   4.157  17.079  0.00  0.00    +0.000 C 
BRANCH   7   8
ATOM      8  C   UNL     1       3.569   2.943  17.995  0.00  0.00    +0.000 C 
BRANCH   8   9
ATOM      9  C   UNL     1       2.248   2.182  18.097  0.00  0.00    +0.000 C 
BRANCH   9  10
ATOM     10  C   UNL     1       1.788   2.092  19.548  0.00  0.00    +0.000 C 
BRANCH  10  11
ATOM     11  C   UNL     1       2.771   2.786  20.485  0.00  0.00    +0.000 C 
BRANCH  11  13
ATOM     12  C   UNL     1       1.678   5.045  20.620  0.00  0.00    +0.000 C 
ATOM     13  C   UNL     1       2.048   3.787  21.384  0.00  0.00    +0.000 C 
ENDBRANCH  11  13
ENDBRANCH  10  11
ENDBRANCH   9  10
ENDBRANCH   8   9
ENDBRANCH   7   8
ENDBRANCH   4   7
ENDBRANCH   3   4
ENDBRANCH   1   3
BRANCH   2  14
ATOM     14  C   UNL     1       1.732   8.446  18.470  0.00  0.00    +0.000 C 
BRANCH  14  15
ATOM     15  C   UNL     1       1.417   9.911  18.188  0.00  0.00    +0.000 C 
BRANCH  15  16
ATOM     16  C   UNL     1      -0.013  10.233  18.561  0.00  0.00    +0.000 C 
ATOM     17  O   UNL     1      -0.381  10.445  19.714  0.00  0.00    +0.000 OA
ATOM     18  N   UNL     1      -0.869  10.253  17.481  0.00  0.00    +0.000 N 
ATOM     19  H   UNL     1      -0.493  10.151  16.549  0.00  0.00    +0.000 HD
BRANCH  18  20
ATOM     20  C   UNL     1      -2.277  10.534  17.645  0.00  0.00    +0.000 C 
BRANCH  20  21
ATOM     21  C   UNL     1      -2.957  10.983  16.342  0.00  0.00    +0.000 C 
ATOM     22  C   UNL     1      -2.849   9.918  15.250  0.00  0.00    +0.000 C 
ATOM     23  C   UNL     1      -4.427  11.305  16.610  0.00  0.00    +0.000 C 
ENDBRANCH  20  21
ENDBRANCH  18  20
ENDBRANCH  15  16
ENDBRANCH  14  15
ENDBRANCH   2  14
TORSDOF 14
ENDMDL
MODEL 8
REMARK VINA RESULT:      -5.8      1.211      1.713
REMARK  Name = 
REMARK  18 active torsions:
REMARK  status: ('A' for Active; 'I' for Inactive)
REMARK    1  A    between atoms: C_1  and  C_2
REMARK    2  A    between atoms: C_2  and  C_3
REMARK    3  A    between atoms: C_3  and  C_4
REMARK    4  A    between atoms: C_4  and  C_5
REMARK    5  A    between atoms: C_5  and  C_6
REMARK    6  A    between atoms: C_6  and  C_7
REMARK    7  A    between atoms: C_7  and  C_8
REMARK    8  A    between atoms: C_8  and  C_9
REMARK    9  A    between atoms: C_8  and  O_21
REMARK   10  A    between atoms: C_9  and  C_10
REMARK   11  A    between atoms: C_11  and  C_12
REMARK   12  A    between atoms: C_12  and  C_13
REMARK   13  A    between atoms: C_13  and  C_14
REMARK   14  A    between atoms: N_16  and  C_17
REMARK   15  A    between atoms: C_17  and  C_18
REMARK   16  A    between atoms: C_18  and  C_19
REMARK   17  A    between atoms: C_18  and  C_20
REMARK   18  A    between atoms: O_21  and  C_22
REMARK                            x       y       z     vdW  Elec       q    Type
REMARK                         _______ _______ _______ _____ _____    ______ ____
ROOT
ATOM      1  C   UNL     1       4.351   5.721  18.238  0.00  0.00    +0.000 C 
ATOM      2  C   UNL     1       4.434   6.767  17.402  0.00  0.00    +0.000 C 
ENDROOT
BRANCH   1   3
ATOM      3  C   UNL     1       3.775   5.811  19.622  0.00  0.00    +0.000 C 
BRANCH   3   4
ATOM      4  C   UNL     1       2.309   6.287  19.663  0.00  0.00    +0.000 C 
BRANCH   4   5
ATOM      5  O   UNL     1       2.209   7.657  20.081  0.00  0.00    +0.000 OA
ATOM      6  C   UNL     1       1.737   8.573  19.101  0.00  0.00    +0.000 C 
ENDBRANCH   4   5
BRANCH   4   7
ATOM      7  C   UNL     1       1.407   5.371  20.508  0.00  0.00    +0.000 C 
BRANCH   7   8
ATOM      8  C   UNL     1       2.197   4.327  21.297  0.00  0.00    +0.000 C 
BRANCH   8   9
ATOM      9  C   UNL     1       1.645   2.927  21.033  0.00  0.00    +0.000 C 
BRANCH   9  10
ATOM     10  C   UNL     1       0.719   2.932  19.821  0.00  0.00    +0.000 C 
BRANCH  10  11
ATOM     11  C   UNL     1       1.104   1.843  18.825  0.00  0.00    +0.000 C 
BRANCH  11  13
ATOM     12  C   UNL     1       2.433   3.201  17.181  0.00  0.00    +0.000 C 
ATOM     13  C   UNL     1       2.487   2.111  18.236  0.00  0.00    +0.000 C 
ENDBRANCH  11  13
ENDBRANCH  10  11
ENDBRANCH   9  10
ENDBRANCH   8   9
ENDBRANCH   7   8
ENDBRANCH   4   7
ENDBRANCH   3   4
ENDBRANCH   1   3
BRANCH   2  14
ATOM     14  C   UNL     1       5.005   6.666  16.019  0.00  0.00    +0.000 C 
BRANCH  14  15
ATOM     15  C   UNL     1       6.508   6.415  16.061  0.00  0.00    +0.000 C 
BRANCH  15  16
ATOM     16  C   UNL     1       6.839   5.043  15.517  0.00  0.00    +0.000 C 
ATOM     17  O   UNL     1       7.675   4.298  16.020  0.00  0.00    +0.000 OA
ATOM     18  N   UNL     1       6.118   4.714  14.389  0.00  0.00    +0.000 N 
ATOM     19  H   UNL     1       5.387   5.334  14.069  0.00  0.00    +0.000 HD
BRANCH  18  20
ATOM     20  C   UNL     1       6.305   3.446  13.722  0.00  0.00    +0.000 C 
BRANCH  20  21
ATOM     21  C   UNL     1       6.129   3.534  12.198  0.00  0.00    +0.000 C 
ATOM     22  C   UNL     1       6.970   2.486  11.469  0.00  0.00    +0.000 C 
ATOM     23  C   UNL     1       4.654   3.359  11.837  0.00  0.00    +0.000 C 
ENDBRANCH  20  21
ENDBRANCH  18  20
ENDBRANCH  15  16
ENDBRANCH  14  15
ENDBRANCH   2  14
TORSDOF 14
ENDMDL
MODEL 9
REMARK VINA RESULT:      -5.7      3.987      7.573
REMARK  Name = 
REMARK  18 active torsions:
REMARK  status: ('A' for Active; 'I' for Inactive)
REMARK    1  A    between atoms: C_1  and  C_2
REMARK    2  A    between atoms: C_2  and  C_3
REMARK    3  A    between atoms: C_3  and  C_4
REMARK    4  A    between atoms: C_4  and  C_5
REMARK    5  A    between atoms: C_5  and  C_6
REMARK    6  A    between atoms: C_6  and  C_7
REMARK    7  A    between atoms: C_7  and  C_8
REMARK    8  A    between atoms: C_8  and  C_9
REMARK    9  A    between atoms: C_8  and  O_21
REMARK   10  A    between atoms: C_9  and  C_10
REMARK   11  A    between atoms: C_11  and  C_12
REMARK   12  A    between atoms: C_12  and  C_13
REMARK   13  A    between atoms: C_13  and  C_14
REMARK   14  A    between atoms: N_16  and  C_17
REMARK   15  A    between atoms: C_17  and  C_18
REMARK   16  A    between atoms: C_18  and  C_19
REMARK   17  A    between atoms: C_18  and  C_20
REMARK   18  A    between atoms: O_21  and  C_22
REMARK                            x       y       z     vdW  Elec       q    Type
REMARK                         _______ _______ _______ _____ _____    ______ ____
ROOT
ATOM      1  C   UNL     1       3.513   7.556  17.441  0.00  0.00    +0.000 C 
ATOM      2  C   UNL     1       2.750   7.229  18.495  0.00  0.00    +0.000 C 
ENDROOT
BRANCH   1   3
ATOM      3  C   UNL     1       4.430   6.587  16.752  0.00  0.00    +0.000 C 
BRANCH   3   4
ATOM      4  C   UNL     1       5.755   6.337  17.498  0.00  0.00    +0.000 C 
BRANCH   4   5
ATOM      5  O   UNL     1       6.868   6.940  16.819  0.00  0.00    +0.000 OA
ATOM      6  C   UNL     1       7.676   7.810  17.603  0.00  0.00    +0.000 C 
ENDBRANCH   4   5
BRANCH   4   7
ATOM      7  C   UNL     1       6.009   4.846  17.782  0.00  0.00    +0.000 C 
BRANCH   7   8
ATOM      8  C   UNL     1       4.993   4.248  18.755  0.00  0.00    +0.000 C 
BRANCH   8   9
ATOM      9  C   UNL     1       4.166   3.164  18.065  0.00  0.00    +0.000 C 
BRANCH   9  10
ATOM     10  C   UNL     1       2.690   3.545  18.042  0.00  0.00    +0.000 C 
BRANCH  10  11
ATOM     11  C   UNL     1       1.823   2.440  18.636  0.00  0.00    +0.000 C 
BRANCH  11  13
ATOM     12  C   UNL     1       1.310   3.888  20.625  0.00  0.00    +0.000 C 
ATOM     13  C   UNL     1       0.724   3.028  19.519  0.00  0.00    +0.000 C 
ENDBRANCH  11  13
ENDBRANCH  10  11
ENDBRANCH   9  10
ENDBRANCH   8   9
ENDBRANCH   7   8
ENDBRANCH   4   7
ENDBRANCH   3   4
ENDBRANCH   1   3
BRANCH   2  14
ATOM     14  C   UNL     1       1.832   8.203  19.173  0.00  0.00    +0.000 C 
BRANCH  14  15
ATOM     15  C   UNL     1       1.501   9.377  18.259  0.00  0.00    +0.000 C 
BRANCH  15  16
ATOM     16  C   UNL     1       0.182  10.005  18.648  0.00  0.00    +0.000 C 
ATOM     17  O   UNL     1      -0.206  10.104  19.809  0.00  0.00    +0.000 OA
ATOM     18  N   UNL     1      -0.553  10.445  17.569  0.00  0.00    +0.000 N 
ATOM     19  H   UNL     1      -0.147  10.410  16.645  0.00  0.00    +0.000 HD
BRANCH  18  20
ATOM     20  C   UNL     1      -1.847  11.064  17.744  0.00  0.00    +0.000 C 
BRANCH  20  21
ATOM     21  C   UNL     1      -3.014  10.144  17.353  0.00  0.00    +0.000 C 
ATOM     22  C   UNL     1      -4.367  10.770  17.693  0.00  0.00    +0.000 C 
ATOM     23  C   UNL     1      -2.947   9.829  15.859  0.00  0.00    +0.000 C 
ENDBRANCH  20  21
ENDBRANCH  18  20
ENDBRANCH  15  16
ENDBRANCH  14  15
ENDBRANCH   2  14
TORSDOF 14
ENDMDL
