MODEL 1
REMARK VINA RESULT:      -7.0      0.000      0.000
REMARK  Name = 
REMARK  20 active torsions:
REMARK  status: ('A' for Active; 'I' for Inactive)
REMARK    1  A    between atoms: C_1  and  C_2
REMARK    2  A    between atoms: C_2  and  C_3
REMARK    3  A    between atoms: C_3  and  C_4
REMARK    4  A    between atoms: C_4  and  C_5
REMARK    5  A    between atoms: C_5  and  C_6
REMARK    6  A    between atoms: C_6  and  C_7
REMARK    7  A    between atoms: C_7  and  C_8
REMARK    8  A    between atoms: C_8  and  C_9
REMARK    9  A    between atoms: C_9  and  C_10
REMARK   10  A    between atoms: C_9  and  C_15
REMARK   11  A    between atoms: C_10  and  N_11
REMARK   12  A    between atoms: N_11  and  O_12
REMARK   13  A    between atoms: N_17  and  C_18
REMARK   14  A    between atoms: C_18  and  C_19
REMARK   15  A    between atoms: C_18  and  C_24
REMARK   16  A    between atoms: N_21  and  C_22
REMARK   17  A    between atoms: N_21  and  C_23
REMARK   18  A    between atoms: C_24  and  C_25
REMARK   19  A    between atoms: C_24  and  C_26
REMARK   20  A    between atoms: C_24  and  C_27
REMARK                            x       y       z     vdW  Elec       q    Type
REMARK                         _______ _______ _______ _____ _____    ______ ____
ROOT
ATOM      1  C   UNL     1       6.723   6.059  17.757  0.00  0.00    +0.000 C 
ENDROOT
BRANCH   1   2
ATOM      2  C   UNL     1       5.182   6.048  17.730  0.00  0.00    +0.000 C 
ATOM      3  O   UNL     1       4.555   6.628  16.844  0.00  0.00    +0.000 OA
ATOM      4  N   UNL     1       4.512   5.465  18.791  0.00  0.00    +0.000 N 
ATOM      5  H   UNL     1       4.997   4.889  19.469  0.00  0.00    +0.000 HD
BRANCH   4   6
ATOM      6  C   UNL     1       3.036   5.367  18.801  0.00  0.00    +0.000 C 
BRANCH   6   7
ATOM      7  C   UNL     1       2.386   6.133  20.016  0.00  0.00    +0.000 C 
ATOM      8  O   UNL     1       2.167   5.542  21.079  0.00  0.00    +0.000 OA
ATOM      9  N   UNL     1       1.944   7.447  19.877  0.00  0.00    +0.000 N 
ATOM     10  C   UNL     1       2.088   8.294  18.709  0.00  0.00    +0.000 C 
ATOM     11  C   UNL     1       1.110   8.006  20.938  0.00  0.00    +0.000 C 
ENDBRANCH   6   7
BRANCH   6  12
ATOM     12  C   UNL     1       2.556   3.861  18.657  0.00  0.00    +0.000 C 
ATOM     13  C   UNL     1       2.634   3.402  17.185  0.00  0.00    +0.000 C 
ATOM     14  C   UNL     1       3.473   2.897  19.452  0.00  0.00    +0.000 C 
ATOM     15  C   UNL     1       1.121   3.633  19.169  0.00  0.00    +0.000 C 
ENDBRANCH   6  12
ENDBRANCH   4   6
ENDBRANCH   1   2
BRANCH   1  16
ATOM     16  C   UNL     1       7.323   7.445  17.396  0.00  0.00    +0.000 C 
BRANCH  16  17
ATOM     17  C   UNL     1       8.371   7.985  18.368  0.00  0.00    +0.000 C 
BRANCH  17  18
ATOM     18  C   UNL     1       8.521   9.504  18.226  0.00  0.00    +0.000 C 
BRANCH  18  19
ATOM     19  C   UNL     1       9.209  10.074  19.462  0.00  0.00    +0.000 C 
BRANCH  19  20
ATOM     20  C   UNL     1      10.246  11.136  19.109  0.00  0.00    +0.000 C 
BRANCH  20  21
ATOM     21  C   UNL     1      10.671  11.887  20.369  0.00  0.00    +0.000 C 
BRANCH  21  23
ATOM     22  C   UNL     1      12.333  13.381  19.232  0.00  0.00    +0.000 C 
ATOM     23  C   UNL     1      11.061  13.329  20.062  0.00  0.00    +0.000 C 
ENDBRANCH  21  23
ENDBRANCH  20  21
ENDBRANCH  19  20
ENDBRANCH  18  19
ENDBRANCH  17  18
ENDBRANCH  16  17
ENDBRANCH   1  16
BRANCH   1  24
ATOM     24  C   UNL     1       7.361   4.989  16.859  0.00  0.00    +0.000 C 
BRANCH  24  25
ATOM     25  N   UNL     1       6.930   5.061  15.465  0.00  0.00    +0.000 N 
ATOM     26  C   UNL     1       6.259   4.008  14.881  0.00  0.00    +0.000 C 
ATOM     27  O   UNL     1       5.688   3.112  15.493  0.00  0.00    +0.000 OA
BRANCH  25  28
ATOM     28  O   UNL     1       7.906   5.625  14.609  0.00  0.00    +0.000 OA
ATOM     29  H   UNL     1       7.372   6.233  14.063  0.00  0.00    +0.000 HD
ENDBRANCH  25  28
ENDBRANCH  24  25
ENDBRANCH   1  24
TORSDOF 14
ENDMDL
MODEL 2
REMARK VINA RESULT:      -6.9      1.734      2.926
REMARK  Name = 
REMARK  20 active torsions:
REMARK  status: ('A' for Active; 'I' for Inactive)
REMARK    1  A    between atoms: C_1  and  C_2
REMARK    2  A    between atoms: C_2  and  C_3
REMARK    3  A    between atoms: C_3  and  C_4
REMARK    4  A    between atoms: C_4  and  C_5
REMARK    5  A    between atoms: C_5  and  C_6
REMARK    6  A    between atoms: C_6  and  C_7
REMARK    7  A    between atoms: C_7  and  C_8
REMARK    8  A    between atoms: C_8  and  C_9
REMARK    9  A    between atoms: C_9  and  C_10
REMARK   10  A    between atoms: C_9  and  C_15
REMARK   11  A    between atoms: C_10  and  N_11
REMARK   12  A    between atoms: N_11  and  O_12
REMARK   13  A    between atoms: N_17  and  C_18
REMARK   14  A    between atoms: C_18  and  C_19
REMARK   15  A    between atoms: C_18  and  C_24
REMARK   16  A    between atoms: N_21  and  C_22
REMARK   17  A    between atoms: N_21  and  C_23
REMARK   18  A    between atoms: C_24  and  C_25
REMARK   19  A    between atoms: C_24  and  C_26
REMARK   20  A    between atoms: C_24  and  C_27
REMARK                            x       y       z     vdW  Elec       q    Type
REMARK                         _______ _______ _______ _____ _____    ______ ____
ROOT
ATOM      1  C   UNL     1       7.480   5.883  17.983  0.00  0.00    +0.000 C 
ENDROOT
BRANCH   1   2
ATOM      2  C   UNL     1       6.274   5.510  18.869  0.00  0.00    +0.000 C 
ATOM      3  O   UNL     1       6.430   5.068  20.006  0.00  0.00    +0.000 OA
ATOM      4  N   UNL     1       5.008   5.574  18.313  0.00  0.00    +0.000 N 
ATOM      5  H   UNL     1       4.844   6.036  17.426  0.00  0.00    +0.000 HD
BRANCH   4   6
ATOM      6  C   UNL     1       3.803   5.287  19.123  0.00  0.00    +0.000 C 
BRANCH   6   7
ATOM      7  C   UNL     1       3.376   3.772  19.056  0.00  0.00    +0.000 C 
ATOM      8  O   UNL     1       3.576   3.113  18.030  0.00  0.00    +0.000 OA
ATOM      9  N   UNL     1       2.665   3.184  20.101  0.00  0.00    +0.000 N 
ATOM     10  C   UNL     1       2.315   3.797  21.368  0.00  0.00    +0.000 C 
ATOM     11  C   UNL     1       2.062   1.874  19.869  0.00  0.00    +0.000 C 
ENDBRANCH   6   7
BRANCH   6  12
ATOM     12  C   UNL     1       2.630   6.304  18.792  0.00  0.00    +0.000 C 
ATOM     13  C   UNL     1       1.458   5.579  18.096  0.00  0.00    +0.000 C 
ATOM     14  C   UNL     1       2.040   6.926  20.083  0.00  0.00    +0.000 C 
ATOM     15  C   UNL     1       3.082   7.477  17.901  0.00  0.00    +0.000 C 
ENDBRANCH   6  12
ENDBRANCH   4   6
ENDBRANCH   1   2
BRANCH   1  16
ATOM     16  C   UNL     1       8.168   7.201  18.425  0.00  0.00    +0.000 C 
BRANCH  16  17
ATOM     17  C   UNL     1       7.645   8.475  17.764  0.00  0.00    +0.000 C 
BRANCH  17  18
ATOM     18  C   UNL     1       8.711   9.577  17.770  0.00  0.00    +0.000 C 
BRANCH  18  19
ATOM     19  C   UNL     1       8.995  10.013  19.203  0.00  0.00    +0.000 C 
BRANCH  19  20
ATOM     20  C   UNL     1      10.207  10.936  19.297  0.00  0.00    +0.000 C 
BRANCH  20  21
ATOM     21  C   UNL     1      10.250  11.863  18.083  0.00  0.00    +0.000 C 
BRANCH  21  23
ATOM     22  C   UNL     1       9.313  14.186  17.984  0.00  0.00    +0.000 C 
ATOM     23  C   UNL     1      10.452  13.318  18.492  0.00  0.00    +0.000 C 
ENDBRANCH  21  23
ENDBRANCH  20  21
ENDBRANCH  19  20
ENDBRANCH  18  19
ENDBRANCH  17  18
ENDBRANCH  16  17
ENDBRANCH   1  16
BRANCH   1  24
ATOM     24  C   UNL     1       7.138   5.973  16.489  0.00  0.00    +0.000 C 
BRANCH  24  25
ATOM     25  N   UNL     1       7.140   4.682  15.807  0.00  0.00    +0.000 N 
ATOM     26  C   UNL     1       7.271   4.610  14.437  0.00  0.00    +0.000 C 
ATOM     27  O   UNL     1       7.709   5.505  13.724  0.00  0.00    +0.000 OA
BRANCH  25  28
ATOM     28  O   UNL     1       6.165   3.786  16.308  0.00  0.00    +0.000 OA
ATOM     29  H   UNL     1       6.241   3.919  17.272  0.00  0.00    +0.000 HD
ENDBRANCH  25  28
ENDBRANCH  24  25
ENDBRANCH   1  24
TORSDOF 14
ENDMDL
MODEL 3
REMARK VINA RESULT:      -6.8      3.512      6.841
REMARK  Name = 
REMARK  20 active torsions:
REMARK  status: ('A' for Active; 'I' for Inactive)
REMARK    1  A    between atoms: C_1  and  C_2
REMARK    2  A    between atoms: C_2  and  C_3
REMARK    3  A    between atoms: C_3  and  C_4
REMARK    4  A    between atoms: C_4  and  C_5
REMARK    5  A    between atoms: C_5  and  C_6
REMARK    6  A    between atoms: C_6  and  C_7
REMARK    7  A    between atoms: C_7  and  C_8
REMARK    8  A    between atoms: C_8  and  C_9
REMARK    9  A    between atoms: C_9  and  C_10
REMARK   10  A    between atoms: C_9  and  C_15
REMARK   11  A    between atoms: C_10  and  N_11
REMARK   12  A    between atoms: N_11  and  O_12
REMARK   13  A    between atoms: N_17  and  C_18
REMARK   14  A    between atoms: C_18  and  C_19
REMARK   15  A    between atoms: C_18  and  C_24
REMARK   16  A    between atoms: N_21  and  C_22
REMARK   17  A    between atoms: N_21  and  C_23
REMARK   18  A    between atoms: C_24  and  C_25
REMARK   19  A    between atoms: C_24  and  C_26
REMARK   20  A    between atoms: C_24  and  C_27
REMARK                            x       y       z     vdW  Elec       q    Type
REMARK                         _______ _______ _______ _____ _____    ______ ____
ROOT
ATOM      1  C   UNL     1       6.732   5.226  16.183  0.00  0.00    +0.000 C 
ENDROOT
BRANCH   1   2
ATOM      2  C   UNL     1       5.234   5.425  16.490  0.00  0.00    +0.000 C 
ATOM      3  O   UNL     1       4.538   6.180  15.813  0.00  0.00    +0.000 OA
ATOM      4  N   UNL     1       4.712   4.821  17.621  0.00  0.00    +0.000 N 
ATOM      5  H   UNL     1       5.229   4.112  18.127  0.00  0.00    +0.000 HD
BRANCH   4   6
ATOM      6  C   UNL     1       3.271   4.921  17.944  0.00  0.00    +0.000 C 
BRANCH   6   7
ATOM      7  C   UNL     1       2.996   5.810  19.216  0.00  0.00    +0.000 C 
ATOM      8  O   UNL     1       3.140   5.337  20.348  0.00  0.00    +0.000 OA
ATOM      9  N   UNL     1       2.479   7.097  19.088  0.00  0.00    +0.000 N 
ATOM     10  C   UNL     1       2.220   7.813  17.853  0.00  0.00    +0.000 C 
ATOM     11  C   UNL     1       1.989   7.763  20.293  0.00  0.00    +0.000 C 
ENDBRANCH   6   7
BRANCH   6  12
ATOM     12  C   UNL     1       2.591   3.488  17.998  0.00  0.00    +0.000 C 
ATOM     13  C   UNL     1       1.105   3.603  18.399  0.00  0.00    +0.000 C 
ATOM     14  C   UNL     1       2.605   2.802  16.609  0.00  0.00    +0.000 C 
ATOM     15  C   UNL     1       3.292   2.524  18.976  0.00  0.00    +0.000 C 
ENDBRANCH   6  12
ENDBRANCH   4   6
ENDBRANCH   1   2
BRANCH   1  16
ATOM     16  C   UNL     1       6.982   4.229  15.020  0.00  0.00    +0.000 C 
BRANCH  16  17
ATOM     17  C   UNL     1       5.875   4.146  13.970  0.00  0.00    +0.000 C 
BRANCH  17  18
ATOM     18  C   UNL     1       6.452   3.817  12.588  0.00  0.00    +0.000 C 
BRANCH  18  19
ATOM     19  C   UNL     1       5.473   2.939  11.815  0.00  0.00    +0.000 C 
BRANCH  19  20
ATOM     20  C   UNL     1       4.044   3.472  11.879  0.00  0.00    +0.000 C 
BRANCH  20  21
ATOM     21  C   UNL     1       3.306   3.136  10.583  0.00  0.00    +0.000 C 
BRANCH  21  23
ATOM     22  C   UNL     1       2.140   4.819   9.136  0.00  0.00    +0.000 C 
ATOM     23  C   UNL     1       3.483   4.230   9.535  0.00  0.00    +0.000 C 
ENDBRANCH  21  23
ENDBRANCH  20  21
ENDBRANCH  19  20
ENDBRANCH  18  19
ENDBRANCH  17  18
ENDBRANCH  16  17
ENDBRANCH   1  16
BRANCH   1  24
ATOM     24  C   UNL     1       7.556   4.789  17.402  0.00  0.00    +0.000 C 
BRANCH  24  25
ATOM     25  N   UNL     1       7.869   5.881  18.321  0.00  0.00    +0.000 N 
ATOM     26  C   UNL     1       7.294   5.935  19.572  0.00  0.00    +0.000 C 
ATOM     27  O   UNL     1       6.772   4.987  20.147  0.00  0.00    +0.000 OA
BRANCH  25  28
ATOM     28  O   UNL     1       7.913   7.146  17.687  0.00  0.00    +0.000 OA
ATOM     29  H   UNL     1       7.586   7.739  18.390  0.00  0.00    +0.000 HD
ENDBRANCH  25  28
ENDBRANCH  24  25
ENDBRANCH   1  24
TORSDOF 14
ENDMDL
MODEL 4
REMARK VINA RESULT:      -6.7      1.673      2.929
REMARK  Name = 
REMARK  20 active torsions:
REMARK  status: ('A' for Active; 'I' for Inactive)
REMARK    1  A    between atoms: C_1  and  C_2
REMARK    2  A    between atoms: C_2  and  C_3
REMARK    3  A    between atoms: C_3  and  C_4
REMARK    4  A    between atoms: C_4  and  C_5
REMARK    5  A    between atoms: C_5  and  C_6
REMARK    6  A    between atoms: C_6  and  C_7
REMARK    7  A    between atoms: C_7  and  C_8
REMARK    8  A    between atoms: C_8  and  C_9
REMARK    9  A    between atoms: C_9  and  C_10
REMARK   10  A    between atoms: C_9  and  C_15
REMARK   11  A    between atoms: C_10  and  N_11
REMARK   12  A    between atoms: N_11  and  O_12
REMARK   13  A    between atoms: N_17  and  C_18
REMARK   14  A    between atoms: C_18  and  C_19
REMARK   15  A    between atoms: C_18  and  C_24
REMARK   16  A    between atoms: N_21  and  C_22
REMARK   17  A    between atoms: N_21  and  C_23
REMARK   18  A    between atoms: C_24  and  C_25
REMARK   19  A    between atoms: C_24  and  C_26
REMARK   20  A    between atoms: C_24  and  C_27
REMARK                            x       y       z     vdW  Elec       q    Type
REMARK                         _______ _______ _______ _____ _____    ______ ____
ROOT
ATOM      1  C   UNL     1       6.995   5.853  17.668  0.00  0.00    +0.000 C 
ENDROOT
BRANCH   1   2
ATOM      2  C   UNL     1       6.099   5.324  18.806  0.00  0.00    +0.000 C 
ATOM      3  O   UNL     1       6.578   4.960  19.879  0.00  0.00    +0.000 OA
ATOM      4  N   UNL     1       4.749   5.156  18.553  0.00  0.00    +0.000 N 
ATOM      5  H   UNL     1       4.315   5.548  17.726  0.00  0.00    +0.000 HD
BRANCH   4   6
ATOM      6  C   UNL     1       3.823   4.708  19.616  0.00  0.00    +0.000 C 
BRANCH   6   7
ATOM      7  C   UNL     1       3.761   3.139  19.744  0.00  0.00    +0.000 C 
ATOM      8  O   UNL     1       4.164   2.581  20.770  0.00  0.00    +0.000 OA
ATOM      9  N   UNL     1       3.364   2.350  18.666  0.00  0.00    +0.000 N 
ATOM     10  C   UNL     1       2.884   2.815  17.378  0.00  0.00    +0.000 C 
ATOM     11  C   UNL     1       3.589   0.909  18.749  0.00  0.00    +0.000 C 
ENDBRANCH   6   7
BRANCH   6  12
ATOM     12  C   UNL     1       2.401   5.400  19.472  0.00  0.00    +0.000 C 
ATOM     13  C   UNL     1       1.311   4.561  20.175  0.00  0.00    +0.000 C 
ATOM     14  C   UNL     1       2.376   6.790  20.157  0.00  0.00    +0.000 C 
ATOM     15  C   UNL     1       1.983   5.620  18.005  0.00  0.00    +0.000 C 
ENDBRANCH   6  12
ENDBRANCH   4   6
ENDBRANCH   1   2
BRANCH   1  16
ATOM     16  C   UNL     1       7.825   7.097  18.083  0.00  0.00    +0.000 C 
BRANCH  16  17
ATOM     17  C   UNL     1       7.290   8.442  17.597  0.00  0.00    +0.000 C 
BRANCH  17  18
ATOM     18  C   UNL     1       8.380   9.519  17.646  0.00  0.00    +0.000 C 
BRANCH  18  19
ATOM     19  C   UNL     1       8.971   9.594  19.050  0.00  0.00    +0.000 C 
BRANCH  19  20
ATOM     20  C   UNL     1       9.820  10.845  19.254  0.00  0.00    +0.000 C 
BRANCH  20  21
ATOM     21  C   UNL     1      10.254  11.405  17.900  0.00  0.00    +0.000 C 
BRANCH  21  23
ATOM     22  C   UNL     1      11.338  13.346  16.740  0.00  0.00    +0.000 C 
ATOM     23  C   UNL     1      10.602  12.888  17.988  0.00  0.00    +0.000 C 
ENDBRANCH  21  23
ENDBRANCH  20  21
ENDBRANCH  19  20
ENDBRANCH  18  19
ENDBRANCH  17  18
ENDBRANCH  16  17
ENDBRANCH   1  16
BRANCH   1  24
ATOM     24  C   UNL     1       6.224   6.174  16.379  0.00  0.00    +0.000 C 
BRANCH  24  25
ATOM     25  N   UNL     1       6.609   5.342  15.243  0.00  0.00    +0.000 N 
ATOM     26  C   UNL     1       6.387   3.982  15.259  0.00  0.00    +0.000 C 
ATOM     27  O   UNL     1       5.601   3.407  16.003  0.00  0.00    +0.000 OA
BRANCH  25  28
ATOM     28  O   UNL     1       7.876   5.680  14.709  0.00  0.00    +0.000 OA
ATOM     29  H   UNL     1       8.430   5.730  15.512  0.00  0.00    +0.000 HD
ENDBRANCH  25  28
ENDBRANCH  24  25
ENDBRANCH   1  24
TORSDOF 14
ENDMDL
MODEL 5
REMARK VINA RESULT:      -6.6      3.653      6.980
REMARK  Name = 
REMARK  20 active torsions:
REMARK  status: ('A' for Active; 'I' for Inactive)
REMARK    1  A    between atoms: C_1  and  C_2
REMARK    2  A    between atoms: C_2  and  C_3
REMARK    3  A    between atoms: C_3  and  C_4
REMARK    4  A    between atoms: C_4  and  C_5
REMARK    5  A    between atoms: C_5  and  C_6
REMARK    6  A    between atoms: C_6  and  C_7
REMARK    7  A    between atoms: C_7  and  C_8
REMARK    8  A    between atoms: C_8  and  C_9
REMARK    9  A    between atoms: C_9  and  C_10
REMARK   10  A    between atoms: C_9  and  C_15
REMARK   11  A    between atoms: C_10  and  N_11
REMARK   12  A    between atoms: N_11  and  O_12
REMARK   13  A    between atoms: N_17  and  C_18
REMARK   14  A    between atoms: C_18  and  C_19
REMARK   15  A    between atoms: C_18  and  C_24
REMARK   16  A    between atoms: N_21  and  C_22
REMARK   17  A    between atoms: N_21  and  C_23
REMARK   18  A    between atoms: C_24  and  C_25
REMARK   19  A    between atoms: C_24  and  C_26
REMARK   20  A    between atoms: C_24  and  C_27
REMARK                            x       y       z     vdW  Elec       q    Type
REMARK                         _______ _______ _______ _____ _____    ______ ____
ROOT
ATOM      1  C   UNL     1       5.587   6.264  16.352  0.00  0.00    +0.000 C 
ENDROOT
BRANCH   1   2
ATOM      2  C   UNL     1       4.537   5.840  17.398  0.00  0.00    +0.000 C 
ATOM      3  O   UNL     1       3.918   6.675  18.057  0.00  0.00    +0.000 OA
ATOM      4  N   UNL     1       4.385   4.490  17.665  0.00  0.00    +0.000 N 
ATOM      5  H   UNL     1       4.796   3.785  17.066  0.00  0.00    +0.000 HD
BRANCH   4   6
ATOM      6  C   UNL     1       3.356   4.011  18.614  0.00  0.00    +0.000 C 
BRANCH   6   7
ATOM      7  C   UNL     1       3.944   3.033  19.701  0.00  0.00    +0.000 C 
ATOM      8  O   UNL     1       4.890   2.289  19.423  0.00  0.00    +0.000 OA
ATOM      9  N   UNL     1       3.337   2.906  20.949  0.00  0.00    +0.000 N 
ATOM     10  C   UNL     1       2.208   3.668  21.450  0.00  0.00    +0.000 C 
ATOM     11  C   UNL     1       3.752   1.797  21.805  0.00  0.00    +0.000 C 
ENDBRANCH   6   7
BRANCH   6  12
ATOM     12  C   UNL     1       2.088   3.438  17.848  0.00  0.00    +0.000 C 
ATOM     13  C   UNL     1       1.114   4.577  17.477  0.00  0.00    +0.000 C 
ATOM     14  C   UNL     1       2.490   2.768  16.511  0.00  0.00    +0.000 C 
ATOM     15  C   UNL     1       1.320   2.379  18.662  0.00  0.00    +0.000 C 
ENDBRANCH   6  12
ENDBRANCH   4   6
ENDBRANCH   1   2
BRANCH   1  16
ATOM     16  C   UNL     1       5.402   5.548  14.988  0.00  0.00    +0.000 C 
BRANCH  16  17
ATOM     17  C   UNL     1       6.639   4.841  14.438  0.00  0.00    +0.000 C 
BRANCH  17  18
ATOM     18  C   UNL     1       6.270   3.491  13.813  0.00  0.00    +0.000 C 
BRANCH  18  19
ATOM     19  C   UNL     1       6.487   3.543  12.304  0.00  0.00    +0.000 C 
BRANCH  19  20
ATOM     20  C   UNL     1       5.415   2.773  11.539  0.00  0.00    +0.000 C 
BRANCH  20  21
ATOM     21  C   UNL     1       4.105   3.559  11.546  0.00  0.00    +0.000 C 
BRANCH  21  23
ATOM     22  C   UNL     1       2.872   4.337   9.507  0.00  0.00    +0.000 C 
ATOM     23  C   UNL     1       3.193   3.147  10.395  0.00  0.00    +0.000 C 
ENDBRANCH  21  23
ENDBRANCH  20  21
ENDBRANCH  19  20
ENDBRANCH  18  19
ENDBRANCH  17  18
ENDBRANCH  16  17
ENDBRANCH   1  16
BRANCH   1  24
ATOM     24  C   UNL     1       7.035   6.073  16.825  0.00  0.00    +0.000 C 
BRANCH  24  25
ATOM     25  N   UNL     1       7.145   5.584  18.197  0.00  0.00    +0.000 N 
ATOM     26  C   UNL     1       7.990   6.196  19.096  0.00  0.00    +0.000 C 
ATOM     27  O   UNL     1       8.446   7.328  18.975  0.00  0.00    +0.000 OA
BRANCH  25  28
ATOM     28  O   UNL     1       7.192   4.171  18.282  0.00  0.00    +0.000 OA
ATOM     29  H   UNL     1       7.752   3.938  17.518  0.00  0.00    +0.000 HD
ENDBRANCH  25  28
ENDBRANCH  24  25
ENDBRANCH   1  24
TORSDOF 14
ENDMDL
MODEL 6
REMARK VINA RESULT:      -6.5      1.695      2.711
REMARK  Name = 
REMARK  20 active torsions:
REMARK  status: ('A' for Active; 'I' for Inactive)
REMARK    1  A    between atoms: C_1  and  C_2
REMARK    2  A    between atoms: C_2  and  C_3
REMARK    3  A    between atoms: C_3  and  C_4
REMARK    4  A    between atoms: C_4  and  C_5
REMARK    5  A    between atoms: C_5  and  C_6
REMARK    6  A    between atoms: C_6  and  C_7
REMARK    7  A    between atoms: C_7  and  C_8
REMARK    8  A    between atoms: C_8  and  C_9
REMARK    9  A    between atoms: C_9  and  C_10
REMARK   10  A    between atoms: C_9  and  C_15
REMARK   11  A    between atoms: C_10  and  N_11
REMARK   12  A    between atoms: N_11  and  O_12
REMARK   13  A    between atoms: N_17  and  C_18
REMARK   14  A    between atoms: C_18  and  C_19
REMARK   15  A    between atoms: C_18  and  C_24
REMARK   16  A    between atoms: N_21  and  C_22
REMARK   17  A    between atoms: N_21  and  C_23
REMARK   18  A    between atoms: C_24  and  C_25
REMARK   19  A    between atoms: C_24  and  C_26
REMARK   20  A    between atoms: C_24  and  C_27
REMARK                            x       y       z     vdW  Elec       q    Type
REMARK                         _______ _______ _______ _____ _____    ______ ____
ROOT
ATOM      1  C   UNL     1       7.437   5.648  17.925  0.00  0.00    +0.000 C 
ENDROOT
BRANCH   1   2
ATOM      2  C   UNL     1       6.213   5.361  18.817  0.00  0.00    +0.000 C 
ATOM      3  O   UNL     1       6.336   4.825  19.918  0.00  0.00    +0.000 OA
ATOM      4  N   UNL     1       4.953   5.616  18.303  0.00  0.00    +0.000 N 
ATOM      5  H   UNL     1       4.829   6.155  17.455  0.00  0.00    +0.000 HD
BRANCH   4   6
ATOM      6  C   UNL     1       3.739   5.418  19.125  0.00  0.00    +0.000 C 
BRANCH   6   7
ATOM      7  C   UNL     1       3.234   3.925  19.111  0.00  0.00    +0.000 C 
ATOM      8  O   UNL     1       3.367   3.233  18.097  0.00  0.00    +0.000 OA
ATOM      9  N   UNL     1       2.530   3.400  20.194  0.00  0.00    +0.000 N 
ATOM     10  C   UNL     1       2.253   4.061  21.455  0.00  0.00    +0.000 C 
ATOM     11  C   UNL     1       1.854   2.117  20.015  0.00  0.00    +0.000 C 
ENDBRANCH   6   7
BRANCH   6  12
ATOM     12  C   UNL     1       2.617   6.482  18.763  0.00  0.00    +0.000 C 
ATOM     13  C   UNL     1       1.436   5.804  18.035  0.00  0.00    +0.000 C 
ATOM     14  C   UNL     1       2.018   7.129  20.037  0.00  0.00    +0.000 C 
ATOM     15  C   UNL     1       3.141   7.635  17.884  0.00  0.00    +0.000 C 
ENDBRANCH   6  12
ENDBRANCH   4   6
ENDBRANCH   1   2
BRANCH   1  16
ATOM     16  C   UNL     1       7.517   7.130  17.471  0.00  0.00    +0.000 C 
BRANCH  16  17
ATOM     17  C   UNL     1       8.269   8.070  18.411  0.00  0.00    +0.000 C 
BRANCH  17  18
ATOM     18  C   UNL     1       8.771   9.311  17.663  0.00  0.00    +0.000 C 
BRANCH  18  19
ATOM     19  C   UNL     1       8.153  10.566  18.270  0.00  0.00    +0.000 C 
BRANCH  19  20
ATOM     20  C   UNL     1       8.887  11.835  17.845  0.00  0.00    +0.000 C 
BRANCH  20  21
ATOM     21  C   UNL     1       9.837  12.282  18.955  0.00  0.00    +0.000 C 
BRANCH  21  23
ATOM     22  C   UNL     1      12.204  11.588  19.402  0.00  0.00    +0.000 C 
ATOM     23  C   UNL     1      11.281  12.351  18.468  0.00  0.00    +0.000 C 
ENDBRANCH  21  23
ENDBRANCH  20  21
ENDBRANCH  19  20
ENDBRANCH  18  19
ENDBRANCH  17  18
ENDBRANCH  16  17
ENDBRANCH   1  16
BRANCH   1  24
ATOM     24  C   UNL     1       7.521   4.741  16.689  0.00  0.00    +0.000 C 
BRANCH  24  25
ATOM     25  N   UNL     1       6.995   5.355  15.473  0.00  0.00    +0.000 N 
ATOM     26  C   UNL     1       5.768   4.979  14.970  0.00  0.00    +0.000 C 
ATOM     27  O   UNL     1       4.896   4.396  15.604  0.00  0.00    +0.000 OA
BRANCH  25  28
ATOM     28  O   UNL     1       7.972   5.515  14.462  0.00  0.00    +0.000 OA
ATOM     29  H   UNL     1       7.717   4.825  13.820  0.00  0.00    +0.000 HD
ENDBRANCH  25  28
ENDBRANCH  24  25
ENDBRANCH   1  24
TORSDOF 14
ENDMDL
MODEL 7
REMARK VINA RESULT:      -6.4      1.689      2.903
REMARK  Name = 
REMARK  20 active torsions:
REMARK  status: ('A' for Active; 'I' for Inactive)
REMARK    1  A    between atoms: C_1  and  C_2
REMARK    2  A    between atoms: C_2  and  C_3
REMARK    3  A    between atoms: C_3  and  C_4
REMARK    4  A    between atoms: C_4  and  C_5
REMARK    5  A    between atoms: C_5  and  C_6
REMARK    6  A    between atoms: C_6  and  C_7
REMARK    7  A    between atoms: C_7  and  C_8
REMARK    8  A    between atoms: C_8  and  C_9
REMARK    9  A    between atoms: C_9  and  C_10
REMARK   10  A    between atoms: C_9  and  C_15
REMARK   11  A    between atoms: C_10  and  N_11
REMARK   12  A    between atoms: N_11  and  O_12
REMARK   13  A    between atoms: N_17  and  C_18
REMARK   14  A    between atoms: C_18  and  C_19
REMARK   15  A    between atoms: C_18  and  C_24
REMARK   16  A    between atoms: N_21  and  C_22
REMARK   17  A    between atoms: N_21  and  C_23
REMARK   18  A    between atoms: C_24  and  C_25
REMARK   19  A    between atoms: C_24  and  C_26
REMARK   20  A    between atoms: C_24  and  C_27
REMARK                            x       y       z     vdW  Elec       q    Type
REMARK                         _______ _______ _______ _____ _____    ______ ____
ROOT
ATOM      1  C   UNL     1       6.948   6.286  17.598  0.00  0.00    +0.000 C 
ENDROOT
BRANCH   1   2
ATOM      2  C   UNL     1       6.086   5.702  18.735  0.00  0.00    +0.000 C 
ATOM      3  O   UNL     1       6.585   5.370  19.809  0.00  0.00    +0.000 OA
ATOM      4  N   UNL     1       4.749   5.450  18.479  0.00  0.00    +0.000 N 
ATOM      5  H   UNL     1       4.293   5.813  17.651  0.00  0.00    +0.000 HD
BRANCH   4   6
ATOM      6  C   UNL     1       3.851   4.945  19.542  0.00  0.00    +0.000 C 
BRANCH   6   7
ATOM      7  C   UNL     1       3.778   3.372  19.576  0.00  0.00    +0.000 C 
ATOM      8  O   UNL     1       3.972   2.762  20.633  0.00  0.00    +0.000 OA
ATOM      9  N   UNL     1       3.612   2.639  18.402  0.00  0.00    +0.000 N 
ATOM     10  C   UNL     1       3.396   3.169  17.069  0.00  0.00    +0.000 C 
ATOM     11  C   UNL     1       3.828   1.195  18.457  0.00  0.00    +0.000 C 
ENDBRANCH   6   7
BRANCH   6  12
ATOM     12  C   UNL     1       2.432   5.656  19.483  0.00  0.00    +0.000 C 
ATOM     13  C   UNL     1       1.332   4.725  20.037  0.00  0.00    +0.000 C 
ATOM     14  C   UNL     1       2.399   6.928  20.367  0.00  0.00    +0.000 C 
ATOM     15  C   UNL     1       2.036   6.094  18.060  0.00  0.00    +0.000 C 
ENDBRANCH   6  12
ENDBRANCH   4   6
ENDBRANCH   1   2
BRANCH   1  16
ATOM     16  C   UNL     1       7.117   7.825  17.698  0.00  0.00    +0.000 C 
BRANCH  16  17
ATOM     17  C   UNL     1       8.462   8.310  18.236  0.00  0.00    +0.000 C 
BRANCH  17  18
ATOM     18  C   UNL     1       8.406   9.799  18.598  0.00  0.00    +0.000 C 
BRANCH  18  19
ATOM     19  C   UNL     1       9.473  10.561  17.821  0.00  0.00    +0.000 C 
BRANCH  19  20
ATOM     20  C   UNL     1       9.455  12.056  18.128  0.00  0.00    +0.000 C 
BRANCH  20  21
ATOM     21  C   UNL     1      10.852  12.644  17.931  0.00  0.00    +0.000 C 
BRANCH  21  23
ATOM     22  C   UNL     1      12.333  11.965  19.837  0.00  0.00    +0.000 C 
ATOM     23  C   UNL     1      11.474  13.075  19.256  0.00  0.00    +0.000 C 
ENDBRANCH  21  23
ENDBRANCH  20  21
ENDBRANCH  19  20
ENDBRANCH  18  19
ENDBRANCH  17  18
ENDBRANCH  16  17
ENDBRANCH   1  16
BRANCH   1  24
ATOM     24  C   UNL     1       6.437   5.929  16.195  0.00  0.00    +0.000 C 
BRANCH  24  25
ATOM     25  N   UNL     1       7.070   4.743  15.624  0.00  0.00    +0.000 N 
ATOM     26  C   UNL     1       6.380   3.927  14.754  0.00  0.00    +0.000 C 
ATOM     27  O   UNL     1       5.371   4.250  14.138  0.00  0.00    +0.000 OA
BRANCH  25  28
ATOM     28  O   UNL     1       7.834   4.011  16.565  0.00  0.00    +0.000 OA
ATOM     29  H   UNL     1       8.314   4.720  17.034  0.00  0.00    +0.000 HD
ENDBRANCH  25  28
ENDBRANCH  24  25
ENDBRANCH   1  24
TORSDOF 14
ENDMDL
MODEL 8
REMARK VINA RESULT:      -6.4      1.614      2.984
REMARK  Name = 
REMARK  20 active torsions:
REMARK  status: ('A' for Active; 'I' for Inactive)
REMARK    1  A    between atoms: C_1  and  C_2
REMARK    2  A    between atoms: C_2  and  C_3
REMARK    3  A    between atoms: C_3  and  C_4
REMARK    4  A    between atoms: C_4  and  C_5
REMARK    5  A    between atoms: C_5  and  C_6
REMARK    6  A    between atoms: C_6  and  C_7
REMARK    7  A    between atoms: C_7  and  C_8
REMARK    8  A    between atoms: C_8  and  C_9
REMARK    9  A    between atoms: C_9  and  C_10
REMARK   10  A    between atoms: C_9  and  C_15
REMARK   11  A    between atoms: C_10  and  N_11
REMARK   12  A    between atoms: N_11  and  O_12
REMARK   13  A    between atoms: N_17  and  C_18
REMARK   14  A    between atoms: C_18  and  C_19
REMARK   15  A    between atoms: C_18  and  C_24
REMARK   16  A    between atoms: N_21  and  C_22
REMARK   17  A    between atoms: N_21  and  C_23
REMARK   18  A    between atoms: C_24  and  C_25
REMARK   19  A    between atoms: C_24  and  C_26
REMARK   20  A    between atoms: C_24  and  C_27
REMARK                            x       y       z     vdW  Elec       q    Type
REMARK                         _______ _______ _______ _____ _____    ______ ____
ROOT
ATOM      1  C   UNL     1       7.239   5.613  17.945  0.00  0.00    +0.000 C 
ENDROOT
BRANCH   1   2
ATOM      2  C   UNL     1       6.243   5.175  19.036  0.00  0.00    +0.000 C 
ATOM      3  O   UNL     1       6.619   4.924  20.181  0.00  0.00    +0.000 OA
ATOM      4  N   UNL     1       4.925   4.957  18.672  0.00  0.00    +0.000 N 
ATOM      5  H   UNL     1       4.570   5.261  17.774  0.00  0.00    +0.000 HD
BRANCH   4   6
ATOM      6  C   UNL     1       3.905   4.592  19.680  0.00  0.00    +0.000 C 
BRANCH   6   7
ATOM      7  C   UNL     1       3.809   3.036  19.908  0.00  0.00    +0.000 C 
ATOM      8  O   UNL     1       3.968   2.562  21.038  0.00  0.00    +0.000 OA
ATOM      9  N   UNL     1       3.662   2.164  18.831  0.00  0.00    +0.000 N 
ATOM     10  C   UNL     1       3.486   2.526  17.437  0.00  0.00    +0.000 C 
ATOM     11  C   UNL     1       3.855   0.737  19.071  0.00  0.00    +0.000 C 
ENDBRANCH   6   7
BRANCH   6  12
ATOM     12  C   UNL     1       2.511   5.286  19.366  0.00  0.00    +0.000 C 
ATOM     13  C   UNL     1       1.348   4.471  19.971  0.00  0.00    +0.000 C 
ATOM     14  C   UNL     1       2.423   6.694  20.007  0.00  0.00    +0.000 C 
ATOM     15  C   UNL     1       2.253   5.467  17.858  0.00  0.00    +0.000 C 
ENDBRANCH   6  12
ENDBRANCH   4   6
ENDBRANCH   1   2
BRANCH   1  16
ATOM     16  C   UNL     1       7.022   7.079  17.483  0.00  0.00    +0.000 C 
BRANCH  16  17
ATOM     17  C   UNL     1       8.253   7.982  17.547  0.00  0.00    +0.000 C 
BRANCH  17  18
ATOM     18  C   UNL     1       7.865   9.416  17.926  0.00  0.00    +0.000 C 
BRANCH  18  19
ATOM     19  C   UNL     1       8.992  10.063  18.724  0.00  0.00    +0.000 C 
BRANCH  19  20
ATOM     20  C   UNL     1       9.401  11.417  18.152  0.00  0.00    +0.000 C 
BRANCH  20  21
ATOM     21  C   UNL     1      10.662  11.918  18.854  0.00  0.00    +0.000 C 
BRANCH  21  23
ATOM     22  C   UNL     1      10.010  12.790  21.112  0.00  0.00    +0.000 C 
ATOM     23  C   UNL     1      10.627  11.628  20.351  0.00  0.00    +0.000 C 
ENDBRANCH  21  23
ENDBRANCH  20  21
ENDBRANCH  19  20
ENDBRANCH  18  19
ENDBRANCH  17  18
ENDBRANCH  16  17
ENDBRANCH   1  16
BRANCH   1  24
ATOM     24  C   UNL     1       7.242   4.696  16.713  0.00  0.00    +0.000 C 
BRANCH  24  25
ATOM     25  N   UNL     1       6.850   5.371  15.478  0.00  0.00    +0.000 N 
ATOM     26  C   UNL     1       5.623   5.124  14.901  0.00  0.00    +0.000 C 
ATOM     27  O   UNL     1       4.662   4.626  15.477  0.00  0.00    +0.000 OA
BRANCH  25  28
ATOM     28  O   UNL     1       7.894   5.441  14.526  0.00  0.00    +0.000 OA
ATOM     29  H   UNL     1       8.477   6.124  14.910  0.00  0.00    +0.000 HD
ENDBRANCH  25  28
ENDBRANCH  24  25
ENDBRANCH   1  24
TORSDOF 14
ENDMDL
MODEL 9
REMARK VINA RESULT:      -6.4      1.231      1.450
REMARK  Name = 
REMARK  20 active torsions:
REMARK  status: ('A' for Active; 'I' for Inactive)
REMARK    1  A    between atoms: C_1  and  C_2
REMARK    2  A    between atoms: C_2  and  C_3
REMARK    3  A    between atoms: C_3  and  C_4
REMARK    4  A    between atoms: C_4  and  C_5
REMARK    5  A    between atoms: C_5  and  C_6
REMARK    6  A    between atoms: C_6  and  C_7
REMARK    7  A    between atoms: C_7  and  C_8
REMARK    8  A    between atoms: C_8  and  C_9
REMARK    9  A    between atoms: C_9  and  C_10
REMARK   10  A    between atoms: C_9  and  C_15
REMARK   11  A    between atoms: C_10  and  N_11
REMARK   12  A    between atoms: N_11  and  O_12
REMARK   13  A    between atoms: N_17  and  C_18
REMARK   14  A    between atoms: C_18  and  C_19
REMARK   15  A    between atoms: C_18  and  C_24
REMARK   16  A    between atoms: N_21  and  C_22
REMARK   17  A    between atoms: N_21  and  C_23
REMARK   18  A    between atoms: C_24  and  C_25
REMARK   19  A    between atoms: C_24  and  C_26
REMARK   20  A    between atoms: C_24  and  C_27
REMARK                            x       y       z     vdW  Elec       q    Type
REMARK                         _______ _______ _______ _____ _____    ______ ____
ROOT
ATOM      1  C   UNL     1       6.822   5.432  17.947  0.00  0.00    +0.000 C 
ENDROOT
BRANCH   1   2
ATOM      2  C   UNL     1       5.448   5.188  18.601  0.00  0.00    +0.000 C 
ATOM      3  O   UNL     1       5.303   5.240  19.822  0.00  0.00    +0.000 OA
ATOM      4  N   UNL     1       4.398   4.791  17.791  0.00  0.00    +0.000 N 
ATOM      5  H   UNL     1       4.460   4.849  16.782  0.00  0.00    +0.000 HD
BRANCH   4   6
ATOM      6  C   UNL     1       3.039   4.596  18.343  0.00  0.00    +0.000 C 
BRANCH   6   7
ATOM      7  C   UNL     1       2.692   5.634  19.478  0.00  0.00    +0.000 C 
ATOM      8  O   UNL     1       2.486   5.248  20.633  0.00  0.00    +0.000 OA
ATOM      9  N   UNL     1       2.498   6.981  19.177  0.00  0.00    +0.000 N 
ATOM     10  C   UNL     1       2.668   7.617  17.885  0.00  0.00    +0.000 C 
ATOM     11  C   UNL     1       1.914   7.837  20.207  0.00  0.00    +0.000 C 
ENDBRANCH   6   7
BRANCH   6  12
ATOM     12  C   UNL     1       2.796   3.083  18.757  0.00  0.00    +0.000 C 
ATOM     13  C   UNL     1       1.288   2.751  18.756  0.00  0.00    +0.000 C 
ATOM     14  C   UNL     1       3.447   2.108  17.743  0.00  0.00    +0.000 C 
ATOM     15  C   UNL     1       3.376   2.735  20.142  0.00  0.00    +0.000 C 
ENDBRANCH   6  12
ENDBRANCH   4   6
ENDBRANCH   1   2
BRANCH   1  16
ATOM     16  C   UNL     1       7.051   6.918  17.562  0.00  0.00    +0.000 C 
BRANCH  16  17
ATOM     17  C   UNL     1       8.142   7.645  18.347  0.00  0.00    +0.000 C 
BRANCH  17  18
ATOM     18  C   UNL     1       8.252   9.110  17.909  0.00  0.00    +0.000 C 
BRANCH  18  19
ATOM     19  C   UNL     1       8.991   9.914  18.973  0.00  0.00    +0.000 C 
BRANCH  19  20
ATOM     20  C   UNL     1       9.569  11.213  18.419  0.00  0.00    +0.000 C 
BRANCH  20  21
ATOM     21  C   UNL     1      11.068  11.281  18.709  0.00  0.00    +0.000 C 
BRANCH  21  23
ATOM     22  C   UNL     1      10.797  13.139  17.048  0.00  0.00    +0.000 C 
ATOM     23  C   UNL     1      11.703  12.529  18.105  0.00  0.00    +0.000 C 
ENDBRANCH  21  23
ENDBRANCH  20  21
ENDBRANCH  19  20
ENDBRANCH  18  19
ENDBRANCH  17  18
ENDBRANCH  16  17
ENDBRANCH   1  16
BRANCH   1  24
ATOM     24  C   UNL     1       7.082   4.551  16.717  0.00  0.00    +0.000 C 
BRANCH  24  25
ATOM     25  N   UNL     1       6.754   5.201  15.450  0.00  0.00    +0.000 N 
ATOM     26  C   UNL     1       5.690   4.765  14.691  0.00  0.00    +0.000 C 
ATOM     27  O   UNL     1       4.765   4.077  15.107  0.00  0.00    +0.000 OA
BRANCH  25  28
ATOM     28  O   UNL     1       7.894   5.501  14.667  0.00  0.00    +0.000 OA
ATOM     29  H   UNL     1       8.167   6.367  15.024  0.00  0.00    +0.000 HD
ENDBRANCH  25  28
ENDBRANCH  24  25
ENDBRANCH   1  24
TORSDOF 14
ENDMDL
