MODEL 1
REMARK VINA RESULT:      -7.8      0.000      0.000
REMARK  Name = 
REMARK  18 active torsions:
REMARK  status: ('A' for Active; 'I' for Inactive)
REMARK    1  A    between atoms: C_1  and  O_2
REMARK    2  A    between atoms: O_2  and  C_3
REMARK    3  A    between atoms: C_5  and  C_6
REMARK    4  A    between atoms: C_7  and  C_8
REMARK    5  A    between atoms: C_8  and  C_10
REMARK    6  A    between atoms: C_10  and  C_11
REMARK    7  A    between atoms: C_11  and  C_13
REMARK    8  A    between atoms: C_14  and  C_15
REMARK    9  A    between atoms: C_18  and  O_19
REMARK   10  A    between atoms: O_19  and  C_20
REMARK   11  A    between atoms: C_20  and  C_21
REMARK   12  A    between atoms: C_22  and  C_23
REMARK   13  A    between atoms: C_22  and  C_24
REMARK   14  A    between atoms: C_29  and  O_30
REMARK   15  A    between atoms: O_30  and  C_31
REMARK   16  A    between atoms: C_31  and  C_32
REMARK   17  A    between atoms: C_33  and  C_34
REMARK   18  A    between atoms: C_33  and  C_35
REMARK                            x       y       z     vdW  Elec       q    Type
REMARK                         _______ _______ _______ _____ _____    ______ ____
ROOT
ATOM      1  C   UNL     1       2.106   2.487  18.744  0.00  0.00    +0.000 C 
ATOM      2  O   UNL     1       1.535   2.092  17.730  0.00  0.00    +0.000 OA
ENDROOT
BRANCH   1   4
ATOM      3  C   UNL     1       3.526   4.118  17.606  0.00  0.00    +0.000 C 
ATOM      4  C   UNL     1       3.348   3.305  18.656  0.00  0.00    +0.000 C 
BRANCH   3   7
ATOM      5  C   UNL     1       6.925   5.692  18.057  0.00  0.00    +0.000 A 
ATOM      6  C   UNL     1       5.782   4.891  18.251  0.00  0.00    +0.000 A 
ATOM      7  C   UNL     1       4.615   5.093  17.507  0.00  0.00    +0.000 A 
ATOM      8  C   UNL     1       4.583   6.133  16.583  0.00  0.00    +0.000 A 
ATOM      9  C   UNL     1       5.682   6.980  16.439  0.00  0.00    +0.000 A 
ATOM     10  C   UNL     1       6.851   6.801  17.197  0.00  0.00    +0.000 A 
BRANCH   5  12
ATOM     11  C   UNL     1       8.082   5.407  20.107  0.00  0.00    +0.000 C 
ATOM     12  O   UNL     1       8.120   5.408  18.675  0.00  0.00    +0.000 OA
ENDBRANCH   5  12
BRANCH  10  13
ATOM     13  O   UNL     1       7.929   7.666  17.116  0.00  0.00    +0.000 OA
BRANCH  13  14
ATOM     14  C   UNL     1       7.867   8.748  18.053  0.00  0.00    +0.000 C 
BRANCH  14  15
ATOM     15  C   UNL     1       8.769   9.903  17.727  0.00  0.00    +0.000 C 
ATOM     16  C   UNL     1       9.367  10.669  18.670  0.00  0.00    +0.000 C 
ATOM     17  C   UNL     1       9.199  10.468  20.158  0.00  0.00    +0.000 C 
ATOM     18  C   UNL     1      10.294  11.797  18.311  0.00  0.00    +0.000 C 
ENDBRANCH  14  15
ENDBRANCH  13  14
ENDBRANCH  10  13
ENDBRANCH   3   7
ENDBRANCH   1   4
BRANCH   1  19
ATOM     19  C   UNL     1       1.513   2.293  20.114  0.00  0.00    +0.000 C 
BRANCH  19  20
ATOM     20  C   UNL     1       1.761   3.452  21.033  0.00  0.00    +0.000 C 
ATOM     21  O   UNL     1       2.375   3.322  22.089  0.00  0.00    +0.000 OA
BRANCH  20  22
ATOM     22  C   UNL     1       1.298   4.793  20.581  0.00  0.00    +0.000 C 
ATOM     23  C   UNL     1       2.185   5.794  20.511  0.00  0.00    +0.000 C 
BRANCH  23  24
ATOM     24  C   UNL     1       1.799   7.133  20.094  0.00  0.00    +0.000 A 
ATOM     25  C   UNL     1       1.140   7.953  21.012  0.00  0.00    +0.000 A 
ATOM     26  C   UNL     1       0.820   9.267  20.671  0.00  0.00    +0.000 A 
ATOM     27  C   UNL     1       1.182   9.780  19.422  0.00  0.00    +0.000 A 
ATOM     28  C   UNL     1       1.776   8.939  18.481  0.00  0.00    +0.000 A 
ATOM     29  C   UNL     1       2.089   7.616  18.815  0.00  0.00    +0.000 A 
BRANCH  27  30
ATOM     30  O   UNL     1       1.023  11.095  19.050  0.00  0.00    +0.000 OA
BRANCH  30  31
ATOM     31  C   UNL     1       1.105  12.009  20.147  0.00  0.00    +0.000 C 
BRANCH  31  32
ATOM     32  C   UNL     1       0.529  13.341  19.778  0.00  0.00    +0.000 C 
ATOM     33  C   UNL     1       1.159  14.233  18.984  0.00  0.00    +0.000 C 
ATOM     34  C   UNL     1       2.535  14.022  18.405  0.00  0.00    +0.000 C 
ATOM     35  C   UNL     1       0.518  15.537  18.603  0.00  0.00    +0.000 C 
ENDBRANCH  31  32
ENDBRANCH  30  31
ENDBRANCH  27  30
ENDBRANCH  23  24
ENDBRANCH  20  22
ENDBRANCH  19  20
ENDBRANCH   1  19
TORSDOF 13
ENDMDL
MODEL 2
REMARK VINA RESULT:      -7.7      1.147      6.727
REMARK  Name = 
REMARK  18 active torsions:
REMARK  status: ('A' for Active; 'I' for Inactive)
REMARK    1  A    between atoms: C_1  and  O_2
REMARK    2  A    between atoms: O_2  and  C_3
REMARK    3  A    between atoms: C_5  and  C_6
REMARK    4  A    between atoms: C_7  and  C_8
REMARK    5  A    between atoms: C_8  and  C_10
REMARK    6  A    between atoms: C_10  and  C_11
REMARK    7  A    between atoms: C_11  and  C_13
REMARK    8  A    between atoms: C_14  and  C_15
REMARK    9  A    between atoms: C_18  and  O_19
REMARK   10  A    between atoms: O_19  and  C_20
REMARK   11  A    between atoms: C_20  and  C_21
REMARK   12  A    between atoms: C_22  and  C_23
REMARK   13  A    between atoms: C_22  and  C_24
REMARK   14  A    between atoms: C_29  and  O_30
REMARK   15  A    between atoms: O_30  and  C_31
REMARK   16  A    between atoms: C_31  and  C_32
REMARK   17  A    between atoms: C_33  and  C_34
REMARK   18  A    between atoms: C_33  and  C_35
REMARK                            x       y       z     vdW  Elec       q    Type
REMARK                         _______ _______ _______ _____ _____    ______ ____
ROOT
ATOM      1  C   UNL     1       1.977   3.239  20.305  0.00  0.00    +0.000 C 
ATOM      2  O   UNL     1       2.320   2.839  21.416  0.00  0.00    +0.000 OA
ENDROOT
BRANCH   1   4
ATOM      3  C   UNL     1       2.359   5.622  19.919  0.00  0.00    +0.000 C 
ATOM      4  C   UNL     1       1.479   4.630  20.111  0.00  0.00    +0.000 C 
BRANCH   3   7
ATOM      5  C   UNL     1       1.088   9.161  20.229  0.00  0.00    +0.000 A 
ATOM      6  C   UNL     1       1.314   7.792  20.472  0.00  0.00    +0.000 A 
ATOM      7  C   UNL     1       1.979   6.986  19.542  0.00  0.00    +0.000 A 
ATOM      8  C   UNL     1       2.391   7.554  18.340  0.00  0.00    +0.000 A 
ATOM      9  C   UNL     1       2.105   8.889  18.058  0.00  0.00    +0.000 A 
ATOM     10  C   UNL     1       1.417   9.701  18.974  0.00  0.00    +0.000 A 
BRANCH   5  12
ATOM     11  C   UNL     1       0.594   9.465  22.528  0.00  0.00    +0.000 C 
ATOM     12  O   UNL     1       0.569   9.990  21.195  0.00  0.00    +0.000 OA
ENDBRANCH   5  12
BRANCH  10  13
ATOM     13  O   UNL     1       1.067  11.011  18.691  0.00  0.00    +0.000 OA
BRANCH  13  14
ATOM     14  C   UNL     1       2.191  11.864  18.445  0.00  0.00    +0.000 C 
BRANCH  14  15
ATOM     15  C   UNL     1       1.933  13.320  18.705  0.00  0.00    +0.000 C 
ATOM     16  C   UNL     1       0.703  13.882  18.635  0.00  0.00    +0.000 C 
ATOM     17  C   UNL     1      -0.556  13.126  18.281  0.00  0.00    +0.000 C 
ATOM     18  C   UNL     1       0.472  15.337  18.935  0.00  0.00    +0.000 C 
ENDBRANCH  14  15
ENDBRANCH  13  14
ENDBRANCH  10  13
ENDBRANCH   3   7
ENDBRANCH   1   4
BRANCH   1  19
ATOM     19  C   UNL     1       2.174   2.407  19.066  0.00  0.00    +0.000 C 
BRANCH  19  20
ATOM     20  C   UNL     1       3.615   2.095  18.790  0.00  0.00    +0.000 C 
ATOM     21  O   UNL     1       3.982   0.972  18.451  0.00  0.00    +0.000 OA
BRANCH  20  22
ATOM     22  C   UNL     1       4.585   3.221  18.869  0.00  0.00    +0.000 C 
ATOM     23  C   UNL     1       4.611   4.123  17.881  0.00  0.00    +0.000 C 
BRANCH  23  24
ATOM     24  C   UNL     1       5.544   5.240  17.886  0.00  0.00    +0.000 A 
ATOM     25  C   UNL     1       6.685   5.151  18.687  0.00  0.00    +0.000 A 
ATOM     26  C   UNL     1       7.637   6.170  18.661  0.00  0.00    +0.000 A 
ATOM     27  C   UNL     1       7.472   7.269  17.814  0.00  0.00    +0.000 A 
ATOM     28  C   UNL     1       6.300   7.390  17.069  0.00  0.00    +0.000 A 
ATOM     29  C   UNL     1       5.336   6.376  17.099  0.00  0.00    +0.000 A 
BRANCH  27  30
ATOM     30  O   UNL     1       8.416   8.252  17.628  0.00  0.00    +0.000 OA
BRANCH  30  31
ATOM     31  C   UNL     1       8.021   9.524  18.152  0.00  0.00    +0.000 C 
BRANCH  31  32
ATOM     32  C   UNL     1       9.001  10.010  19.174  0.00  0.00    +0.000 C 
ATOM     33  C   UNL     1       9.845  11.043  18.968  0.00  0.00    +0.000 C 
ATOM     34  C   UNL     1       9.939  11.809  17.672  0.00  0.00    +0.000 C 
ATOM     35  C   UNL     1      10.777  11.525  20.042  0.00  0.00    +0.000 C 
ENDBRANCH  31  32
ENDBRANCH  30  31
ENDBRANCH  27  30
ENDBRANCH  23  24
ENDBRANCH  20  22
ENDBRANCH  19  20
ENDBRANCH   1  19
TORSDOF 13
ENDMDL
MODEL 3
REMARK VINA RESULT:      -7.5      2.376      4.198
REMARK  Name = 
REMARK  18 active torsions:
REMARK  status: ('A' for Active; 'I' for Inactive)
REMARK    1  A    between atoms: C_1  and  O_2
REMARK    2  A    between atoms: O_2  and  C_3
REMARK    3  A    between atoms: C_5  and  C_6
REMARK    4  A    between atoms: C_7  and  C_8
REMARK    5  A    between atoms: C_8  and  C_10
REMARK    6  A    between atoms: C_10  and  C_11
REMARK    7  A    between atoms: C_11  and  C_13
REMARK    8  A    between atoms: C_14  and  C_15
REMARK    9  A    between atoms: C_18  and  O_19
REMARK   10  A    between atoms: O_19  and  C_20
REMARK   11  A    between atoms: C_20  and  C_21
REMARK   12  A    between atoms: C_22  and  C_23
REMARK   13  A    between atoms: C_22  and  C_24
REMARK   14  A    between atoms: C_29  and  O_30
REMARK   15  A    between atoms: O_30  and  C_31
REMARK   16  A    between atoms: C_31  and  C_32
REMARK   17  A    between atoms: C_33  and  C_34
REMARK   18  A    between atoms: C_33  and  C_35
REMARK                            x       y       z     vdW  Elec       q    Type
REMARK                         _______ _______ _______ _____ _____    ______ ____
ROOT
ATOM      1  C   UNL     1       1.164   2.687  18.929  0.00  0.00    +0.000 C 
ATOM      2  O   UNL     1       0.051   3.004  18.512  0.00  0.00    +0.000 OA
ENDROOT
BRANCH   1   4
ATOM      3  C   UNL     1       2.726   3.948  17.535  0.00  0.00    +0.000 C 
ATOM      4  C   UNL     1       2.364   2.765  18.050  0.00  0.00    +0.000 C 
BRANCH   3   7
ATOM      5  C   UNL     1       5.771   5.720  16.186  0.00  0.00    +0.000 A 
ATOM      6  C   UNL     1       4.486   5.472  16.709  0.00  0.00    +0.000 A 
ATOM      7  C   UNL     1       3.979   4.172  16.811  0.00  0.00    +0.000 A 
ATOM      8  C   UNL     1       4.758   3.113  16.352  0.00  0.00    +0.000 A 
ATOM      9  C   UNL     1       5.998   3.356  15.763  0.00  0.00    +0.000 A 
ATOM     10  C   UNL     1       6.507   4.658  15.633  0.00  0.00    +0.000 A 
BRANCH   5  12
ATOM     11  C   UNL     1       6.330   7.613  17.501  0.00  0.00    +0.000 C 
ATOM     12  O   UNL     1       6.333   6.974  16.218  0.00  0.00    +0.000 OA
ENDBRANCH   5  12
BRANCH  10  13
ATOM     13  O   UNL     1       7.706   4.929  14.996  0.00  0.00    +0.000 OA
BRANCH  13  14
ATOM     14  C   UNL     1       7.641   4.794  13.571  0.00  0.00    +0.000 C 
BRANCH  14  15
ATOM     15  C   UNL     1       6.279   4.446  13.043  0.00  0.00    +0.000 C 
ATOM     16  C   UNL     1       6.064   3.484  12.115  0.00  0.00    +0.000 C 
ATOM     17  C   UNL     1       7.157   2.649  11.489  0.00  0.00    +0.000 C 
ATOM     18  C   UNL     1       4.683   3.136  11.632  0.00  0.00    +0.000 C 
ENDBRANCH  14  15
ENDBRANCH  13  14
ENDBRANCH  10  13
ENDBRANCH   3   7
ENDBRANCH   1   4
BRANCH   1  19
ATOM     19  C   UNL     1       1.400   2.346  20.376  0.00  0.00    +0.000 C 
BRANCH  19  20
ATOM     20  C   UNL     1       1.782   3.534  21.207  0.00  0.00    +0.000 C 
ATOM     21  O   UNL     1       2.451   3.422  22.231  0.00  0.00    +0.000 OA
BRANCH  20  22
ATOM     22  C   UNL     1       1.382   4.877  20.703  0.00  0.00    +0.000 C 
ATOM     23  C   UNL     1       2.330   5.799  20.495  0.00  0.00    +0.000 C 
BRANCH  23  24
ATOM     24  C   UNL     1       2.009   7.136  20.019  0.00  0.00    +0.000 A 
ATOM     25  C   UNL     1       2.388   7.490  18.722  0.00  0.00    +0.000 A 
ATOM     26  C   UNL     1       2.032   8.737  18.208  0.00  0.00    +0.000 A 
ATOM     27  C   UNL     1       1.272   9.625  18.972  0.00  0.00    +0.000 A 
ATOM     28  C   UNL     1       0.956   9.299  20.291  0.00  0.00    +0.000 A 
ATOM     29  C   UNL     1       1.320   8.053  20.816  0.00  0.00    +0.000 A 
BRANCH  27  30
ATOM     30  O   UNL     1       0.769  10.817  18.503  0.00  0.00    +0.000 OA
BRANCH  30  31
ATOM     31  C   UNL     1       1.748  11.857  18.433  0.00  0.00    +0.000 C 
BRANCH  31  32
ATOM     32  C   UNL     1       1.104  13.206  18.523  0.00  0.00    +0.000 C 
ATOM     33  C   UNL     1       1.034  13.926  19.662  0.00  0.00    +0.000 C 
ATOM     34  C   UNL     1       1.554  13.448  20.995  0.00  0.00    +0.000 C 
ATOM     35  C   UNL     1       0.420  15.297  19.691  0.00  0.00    +0.000 C 
ENDBRANCH  31  32
ENDBRANCH  30  31
ENDBRANCH  27  30
ENDBRANCH  23  24
ENDBRANCH  20  22
ENDBRANCH  19  20
ENDBRANCH   1  19
TORSDOF 13
ENDMDL
MODEL 4
REMARK VINA RESULT:      -7.2      2.659      4.390
REMARK  Name = 
REMARK  18 active torsions:
REMARK  status: ('A' for Active; 'I' for Inactive)
REMARK    1  A    between atoms: C_1  and  O_2
REMARK    2  A    between atoms: O_2  and  C_3
REMARK    3  A    between atoms: C_5  and  C_6
REMARK    4  A    between atoms: C_7  and  C_8
REMARK    5  A    between atoms: C_8  and  C_10
REMARK    6  A    between atoms: C_10  and  C_11
REMARK    7  A    between atoms: C_11  and  C_13
REMARK    8  A    between atoms: C_14  and  C_15
REMARK    9  A    between atoms: C_18  and  O_19
REMARK   10  A    between atoms: O_19  and  C_20
REMARK   11  A    between atoms: C_20  and  C_21
REMARK   12  A    between atoms: C_22  and  C_23
REMARK   13  A    between atoms: C_22  and  C_24
REMARK   14  A    between atoms: C_29  and  O_30
REMARK   15  A    between atoms: O_30  and  C_31
REMARK   16  A    between atoms: C_31  and  C_32
REMARK   17  A    between atoms: C_33  and  C_34
REMARK   18  A    between atoms: C_33  and  C_35
REMARK                            x       y       z     vdW  Elec       q    Type
REMARK                         _______ _______ _______ _____ _____    ______ ____
ROOT
ATOM      1  C   UNL     1       1.876   3.064  19.449  0.00  0.00    +0.000 C 
ATOM      2  O   UNL     1       1.832   1.891  19.815  0.00  0.00    +0.000 OA
ENDROOT
BRANCH   1   4
ATOM      3  C   UNL     1       3.764   4.194  18.384  0.00  0.00    +0.000 C 
ATOM      4  C   UNL     1       2.650   3.463  18.240  0.00  0.00    +0.000 C 
BRANCH   3   7
ATOM      5  C   UNL     1       6.704   5.658  16.528  0.00  0.00    +0.000 A 
ATOM      6  C   UNL     1       5.676   5.465  17.472  0.00  0.00    +0.000 A 
ATOM      7  C   UNL     1       4.693   4.487  17.290  0.00  0.00    +0.000 A 
ATOM      8  C   UNL     1       4.723   3.718  16.130  0.00  0.00    +0.000 A 
ATOM      9  C   UNL     1       5.690   3.954  15.154  0.00  0.00    +0.000 A 
ATOM     10  C   UNL     1       6.668   4.949  15.316  0.00  0.00    +0.000 A 
BRANCH   5  12
ATOM     11  C   UNL     1       7.403   7.751  17.398  0.00  0.00    +0.000 C 
ATOM     12  O   UNL     1       7.754   6.513  16.769  0.00  0.00    +0.000 OA
ENDBRANCH   5  12
BRANCH  10  13
ATOM     13  O   UNL     1       7.599   5.244  14.334  0.00  0.00    +0.000 OA
BRANCH  13  14
ATOM     14  C   UNL     1       7.089   5.111  13.002  0.00  0.00    +0.000 C 
BRANCH  14  15
ATOM     15  C   UNL     1       7.468   3.830  12.318  0.00  0.00    +0.000 C 
ATOM     16  C   UNL     1       6.565   2.984  11.770  0.00  0.00    +0.000 C 
ATOM     17  C   UNL     1       5.072   3.212  11.783  0.00  0.00    +0.000 C 
ATOM     18  C   UNL     1       6.980   1.725  11.060  0.00  0.00    +0.000 C 
ENDBRANCH  14  15
ENDBRANCH  13  14
ENDBRANCH  10  13
ENDBRANCH   3   7
ENDBRANCH   1   4
BRANCH   1  19
ATOM     19  C   UNL     1       1.044   4.132  20.108  0.00  0.00    +0.000 C 
BRANCH  19  20
ATOM     20  C   UNL     1       1.867   5.226  20.719  0.00  0.00    +0.000 C 
ATOM     21  O   UNL     1       2.673   5.007  21.620  0.00  0.00    +0.000 OA
BRANCH  20  22
ATOM     22  C   UNL     1       1.726   6.591  20.141  0.00  0.00    +0.000 C 
ATOM     23  C   UNL     1       1.309   7.589  20.931  0.00  0.00    +0.000 C 
BRANCH  23  24
ATOM     24  C   UNL     1       1.134   8.943  20.429  0.00  0.00    +0.000 A 
ATOM     25  C   UNL     1       0.798   9.951  21.334  0.00  0.00    +0.000 A 
ATOM     26  C   UNL     1       0.694  11.273  20.901  0.00  0.00    +0.000 A 
ATOM     27  C   UNL     1       0.954  11.601  19.568  0.00  0.00    +0.000 A 
ATOM     28  C   UNL     1       1.219  10.584  18.651  0.00  0.00    +0.000 A 
ATOM     29  C   UNL     1       1.314   9.255  19.078  0.00  0.00    +0.000 A 
BRANCH  27  30
ATOM     30  O   UNL     1       1.001  12.887  19.082  0.00  0.00    +0.000 OA
BRANCH  30  31
ATOM     31  C   UNL     1       2.220  13.189  18.396  0.00  0.00    +0.000 C 
BRANCH  31  32
ATOM     32  C   UNL     1       3.123  14.024  19.252  0.00  0.00    +0.000 C 
ATOM     33  C   UNL     1       3.178  15.371  19.188  0.00  0.00    +0.000 C 
ATOM     34  C   UNL     1       2.375  16.202  18.220  0.00  0.00    +0.000 C 
ATOM     35  C   UNL     1       4.066  16.166  20.102  0.00  0.00    +0.000 C 
ENDBRANCH  31  32
ENDBRANCH  30  31
ENDBRANCH  27  30
ENDBRANCH  23  24
ENDBRANCH  20  22
ENDBRANCH  19  20
ENDBRANCH   1  19
TORSDOF 13
ENDMDL
MODEL 5
REMARK VINA RESULT:      -7.2      0.869      1.123
REMARK  Name = 
REMARK  18 active torsions:
REMARK  status: ('A' for Active; 'I' for Inactive)
REMARK    1  A    between atoms: C_1  and  O_2
REMARK    2  A    between atoms: O_2  and  C_3
REMARK    3  A    between atoms: C_5  and  C_6
REMARK    4  A    between atoms: C_7  and  C_8
REMARK    5  A    between atoms: C_8  and  C_10
REMARK    6  A    between atoms: C_10  and  C_11
REMARK    7  A    between atoms: C_11  and  C_13
REMARK    8  A    between atoms: C_14  and  C_15
REMARK    9  A    between atoms: C_18  and  O_19
REMARK   10  A    between atoms: O_19  and  C_20
REMARK   11  A    between atoms: C_20  and  C_21
REMARK   12  A    between atoms: C_22  and  C_23
REMARK   13  A    between atoms: C_22  and  C_24
REMARK   14  A    between atoms: C_29  and  O_30
REMARK   15  A    between atoms: O_30  and  C_31
REMARK   16  A    between atoms: C_31  and  C_32
REMARK   17  A    between atoms: C_33  and  C_34
REMARK   18  A    between atoms: C_33  and  C_35
REMARK                            x       y       z     vdW  Elec       q    Type
REMARK                         _______ _______ _______ _____ _____    ______ ____
ROOT
ATOM      1  C   UNL     1       1.770   2.653  18.512  0.00  0.00    +0.000 C 
ATOM      2  O   UNL     1       0.717   2.431  17.917  0.00  0.00    +0.000 OA
ENDROOT
BRANCH   1   4
ATOM      3  C   UNL     1       3.396   4.467  18.704  0.00  0.00    +0.000 C 
ATOM      4  C   UNL     1       2.808   3.547  17.928  0.00  0.00    +0.000 C 
BRANCH   3   7
ATOM      5  C   UNL     1       6.961   5.663  18.402  0.00  0.00    +0.000 A 
ATOM      6  C   UNL     1       5.789   5.052  18.890  0.00  0.00    +0.000 A 
ATOM      7  C   UNL     1       4.547   5.271  18.286  0.00  0.00    +0.000 A 
ATOM      8  C   UNL     1       4.476   6.142  17.202  0.00  0.00    +0.000 A 
ATOM      9  C   UNL     1       5.616   6.811  16.761  0.00  0.00    +0.000 A 
ATOM     10  C   UNL     1       6.865   6.616  17.374  0.00  0.00    +0.000 A 
BRANCH   5  12
ATOM     11  C   UNL     1       8.364   5.511  20.309  0.00  0.00    +0.000 C 
ATOM     12  O   UNL     1       8.203   5.339  18.895  0.00  0.00    +0.000 OA
ENDBRANCH   5  12
BRANCH  10  13
ATOM     13  O   UNL     1       7.998   7.316  16.995  0.00  0.00    +0.000 OA
BRANCH  13  14
ATOM     14  C   UNL     1       7.946   8.710  17.323  0.00  0.00    +0.000 C 
BRANCH  14  15
ATOM     15  C   UNL     1       8.638   9.072  18.605  0.00  0.00    +0.000 C 
ATOM     16  C   UNL     1       9.069  10.324  18.890  0.00  0.00    +0.000 C 
ATOM     17  C   UNL     1       8.919  11.505  17.961  0.00  0.00    +0.000 C 
ATOM     18  C   UNL     1       9.727  10.661  20.199  0.00  0.00    +0.000 C 
ENDBRANCH  14  15
ENDBRANCH  13  14
ENDBRANCH  10  13
ENDBRANCH   3   7
ENDBRANCH   1   4
BRANCH   1  19
ATOM     19  C   UNL     1       2.008   2.157  19.914  0.00  0.00    +0.000 C 
BRANCH  19  20
ATOM     20  C   UNL     1       1.373   3.023  20.960  0.00  0.00    +0.000 C 
ATOM     21  O   UNL     1       1.212   2.634  22.114  0.00  0.00    +0.000 OA
BRANCH  20  22
ATOM     22  C   UNL     1       1.008   4.413  20.568  0.00  0.00    +0.000 C 
ATOM     23  C   UNL     1       1.750   5.430  21.025  0.00  0.00    +0.000 C 
BRANCH  23  24
ATOM     24  C   UNL     1       1.441   6.813  20.695  0.00  0.00    +0.000 A 
ATOM     25  C   UNL     1       0.585   7.524  21.538  0.00  0.00    +0.000 A 
ATOM     26  C   UNL     1       0.324   8.872  21.293  0.00  0.00    +0.000 A 
ATOM     27  C   UNL     1       0.940   9.526  20.223  0.00  0.00    +0.000 A 
ATOM     28  C   UNL     1       1.739   8.798  19.341  0.00  0.00    +0.000 A 
ATOM     29  C   UNL     1       1.995   7.442  19.576  0.00  0.00    +0.000 A 
BRANCH  27  30
ATOM     30  O   UNL     1       0.845  10.878  19.983  0.00  0.00    +0.000 OA
BRANCH  30  31
ATOM     31  C   UNL     1       1.291  11.255  18.677  0.00  0.00    +0.000 C 
BRANCH  31  32
ATOM     32  C   UNL     1       1.944  12.602  18.702  0.00  0.00    +0.000 C 
ATOM     33  C   UNL     1       1.260  13.765  18.670  0.00  0.00    +0.000 C 
ATOM     34  C   UNL     1      -0.241  13.857  18.560  0.00  0.00    +0.000 C 
ATOM     35  C   UNL     1       1.959  15.092  18.746  0.00  0.00    +0.000 C 
ENDBRANCH  31  32
ENDBRANCH  30  31
ENDBRANCH  27  30
ENDBRANCH  23  24
ENDBRANCH  20  22
ENDBRANCH  19  20
ENDBRANCH   1  19
TORSDOF 13
ENDMDL
MODEL 6
REMARK VINA RESULT:      -7.1      3.132      6.506
REMARK  Name = 
REMARK  18 active torsions:
REMARK  status: ('A' for Active; 'I' for Inactive)
REMARK    1  A    between atoms: C_1  and  O_2
REMARK    2  A    between atoms: O_2  and  C_3
REMARK    3  A    between atoms: C_5  and  C_6
REMARK    4  A    between atoms: C_7  and  C_8
REMARK    5  A    between atoms: C_8  and  C_10
REMARK    6  A    between atoms: C_10  and  C_11
REMARK    7  A    between atoms: C_11  and  C_13
REMARK    8  A    between atoms: C_14  and  C_15
REMARK    9  A    between atoms: C_18  and  O_19
REMARK   10  A    between atoms: O_19  and  C_20
REMARK   11  A    between atoms: C_20  and  C_21
REMARK   12  A    between atoms: C_22  and  C_23
REMARK   13  A    between atoms: C_22  and  C_24
REMARK   14  A    between atoms: C_29  and  O_30
REMARK   15  A    between atoms: O_30  and  C_31
REMARK   16  A    between atoms: C_31  and  C_32
REMARK   17  A    between atoms: C_33  and  C_34
REMARK   18  A    between atoms: C_33  and  C_35
REMARK                            x       y       z     vdW  Elec       q    Type
REMARK                         _______ _______ _______ _____ _____    ______ ____
ROOT
ATOM      1  C   UNL     1      -0.211   9.725  22.689  0.00  0.00    +0.000 C 
ATOM      2  O   UNL     1       0.403   9.641  23.751  0.00  0.00    +0.000 OA
ENDROOT
BRANCH   1   4
ATOM      3  C   UNL     1       1.426   8.512  21.341  0.00  0.00    +0.000 C 
ATOM      4  C   UNL     1       0.148   8.868  21.525  0.00  0.00    +0.000 C 
BRANCH   3   7
ATOM      5  C   UNL     1       1.993   5.189  19.647  0.00  0.00    +0.000 A 
ATOM      6  C   UNL     1       1.761   6.169  20.632  0.00  0.00    +0.000 A 
ATOM      7  C   UNL     1       1.863   7.533  20.342  0.00  0.00    +0.000 A 
ATOM      8  C   UNL     1       2.236   7.917  19.057  0.00  0.00    +0.000 A 
ATOM      9  C   UNL     1       2.542   6.953  18.096  0.00  0.00    +0.000 A 
ATOM     10  C   UNL     1       2.466   5.581  18.383  0.00  0.00    +0.000 A 
BRANCH   5  12
ATOM     11  C   UNL     1       1.516   3.511  21.254  0.00  0.00    +0.000 C 
ATOM     12  O   UNL     1       1.752   3.856  19.883  0.00  0.00    +0.000 OA
ENDBRANCH   5  12
BRANCH  10  13
ATOM     13  O   UNL     1       2.825   4.607  17.466  0.00  0.00    +0.000 OA
BRANCH  13  14
ATOM     14  C   UNL     1       4.222   4.287  17.490  0.00  0.00    +0.000 C 
BRANCH  14  15
ATOM     15  C   UNL     1       4.807   3.969  16.144  0.00  0.00    +0.000 C 
ATOM     16  C   UNL     1       5.865   4.631  15.618  0.00  0.00    +0.000 C 
ATOM     17  C   UNL     1       6.581   5.769  16.306  0.00  0.00    +0.000 C 
ATOM     18  C   UNL     1       6.450   4.265  14.282  0.00  0.00    +0.000 C 
ENDBRANCH  14  15
ENDBRANCH  13  14
ENDBRANCH  10  13
ENDBRANCH   3   7
ENDBRANCH   1   4
BRANCH   1  19
ATOM     19  C   UNL     1      -1.440  10.583  22.551  0.00  0.00    +0.000 C 
BRANCH  19  20
ATOM     20  C   UNL     1      -1.174  12.037  22.803  0.00  0.00    +0.000 C 
ATOM     21  O   UNL     1      -1.839  12.689  23.604  0.00  0.00    +0.000 OA
BRANCH  20  22
ATOM     22  C   UNL     1      -0.016  12.652  22.097  0.00  0.00    +0.000 C 
ATOM     23  C   UNL     1       0.105  12.473  20.776  0.00  0.00    +0.000 C 
BRANCH  23  24
ATOM     24  C   UNL     1       1.219  13.032  20.025  0.00  0.00    +0.000 A 
ATOM     25  C   UNL     1       1.182  12.969  18.631  0.00  0.00    +0.000 A 
ATOM     26  C   UNL     1       2.197  13.559  17.877  0.00  0.00    +0.000 A 
ATOM     27  C   UNL     1       3.239  14.241  18.510  0.00  0.00    +0.000 A 
ATOM     28  C   UNL     1       3.313  14.243  19.902  0.00  0.00    +0.000 A 
ATOM     29  C   UNL     1       2.303  13.643  20.663  0.00  0.00    +0.000 A 
BRANCH  27  30
ATOM     30  O   UNL     1       4.208  14.960  17.848  0.00  0.00    +0.000 OA
BRANCH  30  31
ATOM     31  C   UNL     1       4.084  16.374  18.023  0.00  0.00    +0.000 C 
BRANCH  31  32
ATOM     32  C   UNL     1       2.881  16.900  17.303  0.00  0.00    +0.000 C 
ATOM     33  C   UNL     1       1.820  17.453  17.926  0.00  0.00    +0.000 C 
ATOM     34  C   UNL     1       1.689  17.571  19.424  0.00  0.00    +0.000 C 
ATOM     35  C   UNL     1       0.657  18.010  17.156  0.00  0.00    +0.000 C 
ENDBRANCH  31  32
ENDBRANCH  30  31
ENDBRANCH  27  30
ENDBRANCH  23  24
ENDBRANCH  20  22
ENDBRANCH  19  20
ENDBRANCH   1  19
TORSDOF 13
ENDMDL
MODEL 7
REMARK VINA RESULT:      -7.1      3.075      4.799
REMARK  Name = 
REMARK  18 active torsions:
REMARK  status: ('A' for Active; 'I' for Inactive)
REMARK    1  A    between atoms: C_1  and  O_2
REMARK    2  A    between atoms: O_2  and  C_3
REMARK    3  A    between atoms: C_5  and  C_6
REMARK    4  A    between atoms: C_7  and  C_8
REMARK    5  A    between atoms: C_8  and  C_10
REMARK    6  A    between atoms: C_10  and  C_11
REMARK    7  A    between atoms: C_11  and  C_13
REMARK    8  A    between atoms: C_14  and  C_15
REMARK    9  A    between atoms: C_18  and  O_19
REMARK   10  A    between atoms: O_19  and  C_20
REMARK   11  A    between atoms: C_20  and  C_21
REMARK   12  A    between atoms: C_22  and  C_23
REMARK   13  A    between atoms: C_22  and  C_24
REMARK   14  A    between atoms: C_29  and  O_30
REMARK   15  A    between atoms: O_30  and  C_31
REMARK   16  A    between atoms: C_31  and  C_32
REMARK   17  A    between atoms: C_33  and  C_34
REMARK   18  A    between atoms: C_33  and  C_35
REMARK                            x       y       z     vdW  Elec       q    Type
REMARK                         _______ _______ _______ _____ _____    ______ ____
ROOT
ATOM      1  C   UNL     1       1.231   3.014  19.334  0.00  0.00    +0.000 C 
ATOM      2  O   UNL     1       0.209   2.428  18.982  0.00  0.00    +0.000 OA
ENDROOT
BRANCH   1   4
ATOM      3  C   UNL     1       2.573   4.064  17.582  0.00  0.00    +0.000 C 
ATOM      4  C   UNL     1       2.433   3.056  18.454  0.00  0.00    +0.000 C 
BRANCH   3   7
ATOM      5  C   UNL     1       5.613   5.825  16.205  0.00  0.00    +0.000 A 
ATOM      6  C   UNL     1       4.352   5.583  16.785  0.00  0.00    +0.000 A 
ATOM      7  C   UNL     1       3.790   4.302  16.802  0.00  0.00    +0.000 A 
ATOM      8  C   UNL     1       4.488   3.259  16.198  0.00  0.00    +0.000 A 
ATOM      9  C   UNL     1       5.700   3.503  15.555  0.00  0.00    +0.000 A 
ATOM     10  C   UNL     1       6.262   4.789  15.511  0.00  0.00    +0.000 A 
BRANCH   5  12
ATOM     11  C   UNL     1       7.051   7.214  17.480  0.00  0.00    +0.000 C 
ATOM     12  O   UNL     1       6.235   7.046  16.314  0.00  0.00    +0.000 OA
ENDBRANCH   5  12
BRANCH  10  13
ATOM     13  O   UNL     1       7.432   5.068  14.825  0.00  0.00    +0.000 OA
BRANCH  13  14
ATOM     14  C   UNL     1       7.244   5.221  13.413  0.00  0.00    +0.000 C 
BRANCH  14  15
ATOM     15  C   UNL     1       7.485   3.972  12.616  0.00  0.00    +0.000 C 
ATOM     16  C   UNL     1       6.491   3.244  12.054  0.00  0.00    +0.000 C 
ATOM     17  C   UNL     1       5.024   3.587  12.162  0.00  0.00    +0.000 C 
ATOM     18  C   UNL     1       6.768   2.016  11.232  0.00  0.00    +0.000 C 
ENDBRANCH  14  15
ENDBRANCH  13  14
ENDBRANCH  10  13
ENDBRANCH   3   7
ENDBRANCH   1   4
BRANCH   1  19
ATOM     19  C   UNL     1       1.280   3.835  20.594  0.00  0.00    +0.000 C 
BRANCH  19  20
ATOM     20  C   UNL     1       2.238   4.986  20.510  0.00  0.00    +0.000 C 
ATOM     21  O   UNL     1       3.437   4.851  20.744  0.00  0.00    +0.000 OA
BRANCH  20  22
ATOM     22  C   UNL     1       1.694   6.296  20.058  0.00  0.00    +0.000 C 
ATOM     23  C   UNL     1       1.592   7.295  20.944  0.00  0.00    +0.000 C 
BRANCH  23  24
ATOM     24  C   UNL     1       1.056   8.596  20.574  0.00  0.00    +0.000 A 
ATOM     25  C   UNL     1       1.430   9.147  19.347  0.00  0.00    +0.000 A 
ATOM     26  C   UNL     1       0.878  10.357  18.928  0.00  0.00    +0.000 A 
ATOM     27  C   UNL     1      -0.072  11.010  19.717  0.00  0.00    +0.000 A 
ATOM     28  C   UNL     1      -0.392  10.496  20.973  0.00  0.00    +0.000 A 
ATOM     29  C   UNL     1       0.167   9.286  21.403  0.00  0.00    +0.000 A 
BRANCH  27  30
ATOM     30  O   UNL     1      -0.762  12.136  19.327  0.00  0.00    +0.000 OA
BRANCH  30  31
ATOM     31  C   UNL     1      -1.451  11.976  18.084  0.00  0.00    +0.000 C 
BRANCH  31  32
ATOM     32  C   UNL     1      -2.932  11.908  18.297  0.00  0.00    +0.000 C 
ATOM     33  C   UNL     1      -3.698  10.876  17.887  0.00  0.00    +0.000 C 
ATOM     34  C   UNL     1      -3.173   9.685  17.126  0.00  0.00    +0.000 C 
ATOM     35  C   UNL     1      -5.174  10.832  18.167  0.00  0.00    +0.000 C 
ENDBRANCH  31  32
ENDBRANCH  30  31
ENDBRANCH  27  30
ENDBRANCH  23  24
ENDBRANCH  20  22
ENDBRANCH  19  20
ENDBRANCH   1  19
TORSDOF 13
ENDMDL
MODEL 8
REMARK VINA RESULT:      -7.0      2.715      8.043
REMARK  Name = 
REMARK  18 active torsions:
REMARK  status: ('A' for Active; 'I' for Inactive)
REMARK    1  A    between atoms: C_1  and  O_2
REMARK    2  A    between atoms: O_2  and  C_3
REMARK    3  A    between atoms: C_5  and  C_6
REMARK    4  A    between atoms: C_7  and  C_8
REMARK    5  A    between atoms: C_8  and  C_10
REMARK    6  A    between atoms: C_10  and  C_11
REMARK    7  A    between atoms: C_11  and  C_13
REMARK    8  A    between atoms: C_14  and  C_15
REMARK    9  A    between atoms: C_18  and  O_19
REMARK   10  A    between atoms: O_19  and  C_20
REMARK   11  A    between atoms: C_20  and  C_21
REMARK   12  A    between atoms: C_22  and  C_23
REMARK   13  A    between atoms: C_22  and  C_24
REMARK   14  A    between atoms: C_29  and  O_30
REMARK   15  A    between atoms: O_30  and  C_31
REMARK   16  A    between atoms: C_31  and  C_32
REMARK   17  A    between atoms: C_33  and  C_34
REMARK   18  A    between atoms: C_33  and  C_35
REMARK                            x       y       z     vdW  Elec       q    Type
REMARK                         _______ _______ _______ _____ _____    ______ ____
ROOT
ATOM      1  C   UNL     1       4.347   5.752  17.145  0.00  0.00    +0.000 C 
ATOM      2  O   UNL     1       4.140   4.548  17.003  0.00  0.00    +0.000 OA
ENDROOT
BRANCH   1   4
ATOM      3  C   UNL     1       2.956   7.652  17.799  0.00  0.00    +0.000 C 
ATOM      4  C   UNL     1       3.609   6.543  18.169  0.00  0.00    +0.000 C 
BRANCH   3   7
ATOM      5  C   UNL     1       0.199   9.981  18.897  0.00  0.00    +0.000 A 
ATOM      6  C   UNL     1       1.206   9.365  18.129  0.00  0.00    +0.000 A 
ATOM      7  C   UNL     1       2.057   8.401  18.680  0.00  0.00    +0.000 A 
ATOM      8  C   UNL     1       1.916   8.078  20.027  0.00  0.00    +0.000 A 
ATOM      9  C   UNL     1       0.973   8.737  20.814  0.00  0.00    +0.000 A 
ATOM     10  C   UNL     1       0.130   9.724  20.277  0.00  0.00    +0.000 A 
BRANCH   5  12
ATOM     11  C   UNL     1      -1.666  10.183  17.445  0.00  0.00    +0.000 C 
ATOM     12  O   UNL     1      -0.733  10.818  18.329  0.00  0.00    +0.000 OA
ENDBRANCH   5  12
BRANCH  10  13
ATOM     13  O   UNL     1      -0.770  10.436  21.052  0.00  0.00    +0.000 OA
BRANCH  13  14
ATOM     14  C   UNL     1      -0.229  11.651  21.585  0.00  0.00    +0.000 C 
BRANCH  14  15
ATOM     15  C   UNL     1      -1.100  12.321  22.609  0.00  0.00    +0.000 C 
ATOM     16  C   UNL     1      -0.976  13.624  22.954  0.00  0.00    +0.000 C 
ATOM     17  C   UNL     1       0.051  14.563  22.365  0.00  0.00    +0.000 C 
ATOM     18  C   UNL     1      -1.887  14.274  23.958  0.00  0.00    +0.000 C 
ENDBRANCH  14  15
ENDBRANCH  13  14
ENDBRANCH  10  13
ENDBRANCH   3   7
ENDBRANCH   1   4
BRANCH   1  19
ATOM     19  C   UNL     1       5.447   6.460  16.400  0.00  0.00    +0.000 C 
BRANCH  19  20
ATOM     20  C   UNL     1       6.675   6.680  17.232  0.00  0.00    +0.000 C 
ATOM     21  O   UNL     1       7.407   5.752  17.565  0.00  0.00    +0.000 OA
BRANCH  20  22
ATOM     22  C   UNL     1       7.020   8.085  17.583  0.00  0.00    +0.000 C 
ATOM     23  C   UNL     1       8.262   8.361  18.001  0.00  0.00    +0.000 C 
BRANCH  23  24
ATOM     24  C   UNL     1       8.663   9.708  18.376  0.00  0.00    +0.000 A 
ATOM     25  C   UNL     1       8.421  10.749  17.477  0.00  0.00    +0.000 A 
ATOM     26  C   UNL     1       8.726  12.063  17.833  0.00  0.00    +0.000 A 
ATOM     27  C   UNL     1       9.247  12.349  19.097  0.00  0.00    +0.000 A 
ATOM     28  C   UNL     1       9.554  11.303  19.965  0.00  0.00    +0.000 A 
ATOM     29  C   UNL     1       9.260   9.981  19.610  0.00  0.00    +0.000 A 
BRANCH  27  30
ATOM     30  O   UNL     1       9.456  13.621  19.579  0.00  0.00    +0.000 OA
BRANCH  30  31
ATOM     31  C   UNL     1       9.525  14.613  18.550  0.00  0.00    +0.000 C 
BRANCH  31  32
ATOM     32  C   UNL     1       8.650  15.784  18.876  0.00  0.00    +0.000 C 
ATOM     33  C   UNL     1       7.346  15.861  18.533  0.00  0.00    +0.000 C 
ATOM     34  C   UNL     1       6.619  14.802  17.744  0.00  0.00    +0.000 C 
ATOM     35  C   UNL     1       6.497  17.036  18.925  0.00  0.00    +0.000 C 
ENDBRANCH  31  32
ENDBRANCH  30  31
ENDBRANCH  27  30
ENDBRANCH  23  24
ENDBRANCH  20  22
ENDBRANCH  19  20
ENDBRANCH   1  19
TORSDOF 13
ENDMDL
MODEL 9
REMARK VINA RESULT:      -7.0      2.422      7.167
REMARK  Name = 
REMARK  18 active torsions:
REMARK  status: ('A' for Active; 'I' for Inactive)
REMARK    1  A    between atoms: C_1  and  O_2
REMARK    2  A    between atoms: O_2  and  C_3
REMARK    3  A    between atoms: C_5  and  C_6
REMARK    4  A    between atoms: C_7  and  C_8
REMARK    5  A    between atoms: C_8  and  C_10
REMARK    6  A    between atoms: C_10  and  C_11
REMARK    7  A    between atoms: C_11  and  C_13
REMARK    8  A    between atoms: C_14  and  C_15
REMARK    9  A    between atoms: C_18  and  O_19
REMARK   10  A    between atoms: O_19  and  C_20
REMARK   11  A    between atoms: C_20  and  C_21
REMARK   12  A    between atoms: C_22  and  C_23
REMARK   13  A    between atoms: C_22  and  C_24
REMARK   14  A    between atoms: C_29  and  O_30
REMARK   15  A    between atoms: O_30  and  C_31
REMARK   16  A    between atoms: C_31  and  C_32
REMARK   17  A    between atoms: C_33  and  C_34
REMARK   18  A    between atoms: C_33  and  C_35
REMARK                            x       y       z     vdW  Elec       q    Type
REMARK                         _______ _______ _______ _____ _____    ______ ____
ROOT
ATOM      1  C   UNL     1       0.145  10.967  19.300  0.00  0.00    +0.000 C 
ATOM      2  O   UNL     1      -0.678  11.558  18.603  0.00  0.00    +0.000 OA
ENDROOT
BRANCH   1   4
ATOM      3  C   UNL     1       1.530   8.966  19.524  0.00  0.00    +0.000 C 
ATOM      4  C   UNL     1       1.026   9.914  18.722  0.00  0.00    +0.000 C 
BRANCH   3   7
ATOM      5  C   UNL     1       2.669   5.383  19.221  0.00  0.00    +0.000 A 
ATOM      6  C   UNL     1       2.147   6.584  19.740  0.00  0.00    +0.000 A 
ATOM      7  C   UNL     1       2.254   7.789  19.039  0.00  0.00    +0.000 A 
ATOM      8  C   UNL     1       2.925   7.794  17.819  0.00  0.00    +0.000 A 
ATOM      9  C   UNL     1       3.512   6.627  17.333  0.00  0.00    +0.000 A 
ATOM     10  C   UNL     1       3.431   5.416  18.040  0.00  0.00    +0.000 A 
BRANCH   5  12
ATOM     11  C   UNL     1       1.139   3.613  19.611  0.00  0.00    +0.000 C 
ATOM     12  O   UNL     1       2.440   4.172  19.831  0.00  0.00    +0.000 OA
ENDBRANCH   5  12
BRANCH  10  13
ATOM     13  O   UNL     1       4.059   4.259  17.610  0.00  0.00    +0.000 OA
BRANCH  13  14
ATOM     14  C   UNL     1       5.396   4.473  17.145  0.00  0.00    +0.000 C 
BRANCH  14  15
ATOM     15  C   UNL     1       6.410   4.663  18.236  0.00  0.00    +0.000 C 
ATOM     16  C   UNL     1       7.200   5.759  18.335  0.00  0.00    +0.000 C 
ATOM     17  C   UNL     1       7.170   6.917  17.366  0.00  0.00    +0.000 C 
ATOM     18  C   UNL     1       8.181   5.934  19.461  0.00  0.00    +0.000 C 
ENDBRANCH  14  15
ENDBRANCH  13  14
ENDBRANCH  10  13
ENDBRANCH   3   7
ENDBRANCH   1   4
BRANCH   1  19
ATOM     19  C   UNL     1       0.410  11.369  20.727  0.00  0.00    +0.000 C 
BRANCH  19  20
ATOM     20  C   UNL     1       0.930  12.770  20.857  0.00  0.00    +0.000 C 
ATOM     21  O   UNL     1       0.407  13.589  21.609  0.00  0.00    +0.000 OA
BRANCH  20  22
ATOM     22  C   UNL     1       2.160  13.116  20.092  0.00  0.00    +0.000 C 
ATOM     23  C   UNL     1       2.892  14.166  20.485  0.00  0.00    +0.000 C 
BRANCH  23  24
ATOM     24  C   UNL     1       4.096  14.570  19.775  0.00  0.00    +0.000 A 
ATOM     25  C   UNL     1       5.210  14.959  20.521  0.00  0.00    +0.000 A 
ATOM     26  C   UNL     1       6.404  15.282  19.876  0.00  0.00    +0.000 A 
ATOM     27  C   UNL     1       6.502  15.191  18.485  0.00  0.00    +0.000 A 
ATOM     28  C   UNL     1       5.369  14.872  17.737  0.00  0.00    +0.000 A 
ATOM     29  C   UNL     1       4.165  14.557  18.379  0.00  0.00    +0.000 A 
BRANCH  27  30
ATOM     30  O   UNL     1       7.669  15.364  17.778  0.00  0.00    +0.000 OA
BRANCH  30  31
ATOM     31  C   UNL     1       8.804  14.754  18.398  0.00  0.00    +0.000 C 
BRANCH  31  32
ATOM     32  C   UNL     1       8.953  13.330  17.959  0.00  0.00    +0.000 C 
ATOM     33  C   UNL     1       9.128  12.299  18.813  0.00  0.00    +0.000 C 
ATOM     34  C   UNL     1       9.239  12.453  20.309  0.00  0.00    +0.000 C 
ATOM     35  C   UNL     1       9.224  10.881  18.326  0.00  0.00    +0.000 C 
ENDBRANCH  31  32
ENDBRANCH  30  31
ENDBRANCH  27  30
ENDBRANCH  23  24
ENDBRANCH  20  22
ENDBRANCH  19  20
ENDBRANCH   1  19
TORSDOF 13
ENDMDL
