MODEL 1
REMARK VINA RESULT:      -9.2      0.000      0.000
REMARK  Name = 
REMARK  8 active torsions:
REMARK  status: ('A' for Active; 'I' for Inactive)
REMARK    1  A    between atoms: C_1  and  C_2
REMARK    2  A    between atoms: C_3  and  N_4
REMARK    3  A    between atoms: N_4  and  C_5
REMARK    4  A    between atoms: C_6  and  C_7
REMARK    5  A    between atoms: C_12  and  C_13
REMARK    6  A    between atoms: C_17  and  C_18
REMARK    7  A    between atoms: C_18  and  N_19
REMARK    8  A    between atoms: N_22  and  C_23
REMARK                            x       y       z     vdW  Elec       q    Type
REMARK                         _______ _______ _______ _____ _____    ______ ____
ROOT
ATOM      1  C   UNL     1       3.519   4.188  19.752  0.00  0.00    +0.000 A 
ATOM      2  C   UNL     1       3.414   2.847  20.201  0.00  0.00    +0.000 A 
ATOM      3  C   UNL     1       2.173   2.228  20.199  0.00  0.00    +0.000 A 
ATOM      4  N   UNL     1       1.028   2.845  19.857  0.00  0.00    +0.000 NA
ATOM      5  C   UNL     1       1.129   4.159  19.559  0.00  0.00    +0.000 A 
ATOM      6  C   UNL     1       2.317   4.912  19.500  0.00  0.00    +0.000 A 
ENDROOT
BRANCH   6   7
ATOM      7  C   UNL     1       2.218   6.364  19.185  0.00  0.00    +0.000 A 
ATOM      8  C   UNL     1       2.727   6.928  18.014  0.00  0.00    +0.000 A 
ATOM      9  N   UNL     1       2.639   8.240  17.674  0.00  0.00    +0.000 NA
ATOM     10  C   UNL     1       2.066   9.071  18.572  0.00  0.00    +0.000 A 
ATOM     11  C   UNL     1       1.599   8.660  19.808  0.00  0.00    +0.000 A 
ATOM     12  C   UNL     1       1.663   7.282  20.090  0.00  0.00    +0.000 A 
BRANCH  11  13
ATOM     13  C   UNL     1       1.031   9.638  20.803  0.00  0.00    +0.000 C 
BRANCH  13  14
ATOM     14  N   UNL     1       0.416  10.825  20.194  0.00  0.00    +0.000 NA
ATOM     15  C   UNL     1       0.291  11.909  21.194  0.00  0.00    +0.000 C 
ATOM     16  C   UNL     1      -0.386  13.176  20.615  0.00  0.00    +0.000 C 
ATOM     17  N   UNL     1      -1.689  12.948  19.958  0.00  0.00    +0.000 NA
ATOM     18  C   UNL     1      -2.759  12.722  20.926  0.00  0.00    +0.000 C 
ATOM     19  C   UNL     1      -1.561  11.822  19.016  0.00  0.00    +0.000 C 
ATOM     20  C   UNL     1      -0.912  10.552  19.610  0.00  0.00    +0.000 C 
ENDBRANCH  13  14
ENDBRANCH  11  13
ENDBRANCH   6   7
BRANCH   1  21
ATOM     21  N   UNL     1       4.809   4.803  19.592  0.00  0.00    +0.000 N 
ATOM     22  H   UNL     1       4.857   5.693  20.086  0.00  0.00    +0.000 HD
BRANCH  21  25
ATOM     23  C   UNL     1       4.049   3.249  17.201  0.00  0.00    +0.000 C 
ATOM     24  C   UNL     1       5.144   4.283  17.190  0.00  0.00    +0.000 A 
ATOM     25  C   UNL     1       5.447   5.071  18.330  0.00  0.00    +0.000 A 
ATOM     26  C   UNL     1       6.476   6.030  18.271  0.00  0.00    +0.000 A 
ATOM     27  C   UNL     1       7.173   6.298  17.094  0.00  0.00    +0.000 A 
ATOM     28  C   UNL     1       6.885   5.497  15.992  0.00  0.00    +0.000 A 
ATOM     29  N   UNL     1       7.438   5.511  14.732  0.00  0.00    +0.000 N 
ATOM     30  C   UNL     1       6.910   4.506  13.974  0.00  0.00    +0.000 A 
ATOM     31  C   UNL     1       5.960   3.863  14.734  0.00  0.00    +0.000 A 
ATOM     32  C   UNL     1       5.918   4.491  16.016  0.00  0.00    +0.000 A 
ATOM     33  H   UNL     1       8.153   6.158  14.432  0.00  0.00    +0.000 HD
ENDBRANCH  21  25
ENDBRANCH   1  21
BRANCH   2  34
ATOM     34  C   UNL     1       4.517   2.068  20.686  0.00  0.00    +0.000 C 
ATOM     35  N   UNL     1       5.360   1.423  21.152  0.00  0.00    +0.000 NA
ENDBRANCH   2  34
TORSDOF 6
ENDMDL
MODEL 2
REMARK VINA RESULT:      -9.1      1.047      1.273
REMARK  Name = 
REMARK  8 active torsions:
REMARK  status: ('A' for Active; 'I' for Inactive)
REMARK    1  A    between atoms: C_1  and  C_2
REMARK    2  A    between atoms: C_3  and  N_4
REMARK    3  A    between atoms: N_4  and  C_5
REMARK    4  A    between atoms: C_6  and  C_7
REMARK    5  A    between atoms: C_12  and  C_13
REMARK    6  A    between atoms: C_17  and  C_18
REMARK    7  A    between atoms: C_18  and  N_19
REMARK    8  A    between atoms: N_22  and  C_23
REMARK                            x       y       z     vdW  Elec       q    Type
REMARK                         _______ _______ _______ _____ _____    ______ ____
ROOT
ATOM      1  C   UNL     1       3.300   4.321  19.857  0.00  0.00    +0.000 A 
ATOM      2  C   UNL     1       3.262   2.924  20.100  0.00  0.00    +0.000 A 
ATOM      3  C   UNL     1       2.044   2.263  20.052  0.00  0.00    +0.000 A 
ATOM      4  N   UNL     1       0.863   2.878  19.855  0.00  0.00    +0.000 NA
ATOM      5  C   UNL     1       0.907   4.225  19.757  0.00  0.00    +0.000 A 
ATOM      6  C   UNL     1       2.065   5.026  19.767  0.00  0.00    +0.000 A 
ENDROOT
BRANCH   6   7
ATOM      7  C   UNL     1       1.903   6.503  19.682  0.00  0.00    +0.000 A 
ATOM      8  C   UNL     1       2.156   7.234  18.519  0.00  0.00    +0.000 A 
ATOM      9  N   UNL     1       1.999   8.577  18.389  0.00  0.00    +0.000 NA
ATOM     10  C   UNL     1       1.627   9.263  19.491  0.00  0.00    +0.000 A 
ATOM     11  C   UNL     1       1.428   8.676  20.729  0.00  0.00    +0.000 A 
ATOM     12  C   UNL     1       1.549   7.276  20.799  0.00  0.00    +0.000 A 
BRANCH  11  13
ATOM     13  C   UNL     1       1.080   9.495  21.945  0.00  0.00    +0.000 C 
BRANCH  13  14
ATOM     14  N   UNL     1      -0.090  10.365  21.768  0.00  0.00    +0.000 NA
ATOM     15  C   UNL     1       0.317  11.661  21.181  0.00  0.00    +0.000 C 
ATOM     16  C   UNL     1      -0.875  12.634  21.004  0.00  0.00    +0.000 C 
ATOM     17  N   UNL     1      -1.681  12.867  22.219  0.00  0.00    +0.000 NA
ATOM     18  C   UNL     1      -1.002  13.744  23.168  0.00  0.00    +0.000 C 
ATOM     19  C   UNL     1      -2.020  11.567  22.826  0.00  0.00    +0.000 C 
ATOM     20  C   UNL     1      -0.820  10.614  23.026  0.00  0.00    +0.000 C 
ENDBRANCH  13  14
ENDBRANCH  11  13
ENDBRANCH   6   7
BRANCH   1  21
ATOM     21  N   UNL     1       4.561   5.005  19.742  0.00  0.00    +0.000 N 
ATOM     22  H   UNL     1       4.508   5.943  20.135  0.00  0.00    +0.000 HD
BRANCH  21  25
ATOM     23  C   UNL     1       3.459   3.982  17.203  0.00  0.00    +0.000 C 
ATOM     24  C   UNL     1       4.814   4.630  17.304  0.00  0.00    +0.000 A 
ATOM     25  C   UNL     1       5.297   5.181  18.518  0.00  0.00    +0.000 A 
ATOM     26  C   UNL     1       6.569   5.782  18.563  0.00  0.00    +0.000 A 
ATOM     27  C   UNL     1       7.359   5.932  17.424  0.00  0.00    +0.000 A 
ATOM     28  C   UNL     1       6.884   5.362  16.246  0.00  0.00    +0.000 A 
ATOM     29  N   UNL     1       7.464   5.322  14.999  0.00  0.00    +0.000 N 
ATOM     30  C   UNL     1       6.686   4.600  14.140  0.00  0.00    +0.000 A 
ATOM     31  C   UNL     1       5.558   4.209  14.825  0.00  0.00    +0.000 A 
ATOM     32  C   UNL     1       5.659   4.700  16.162  0.00  0.00    +0.000 A 
ATOM     33  H   UNL     1       8.351   5.746  14.770  0.00  0.00    +0.000 HD
ENDBRANCH  21  25
ENDBRANCH   1  21
BRANCH   2  34
ATOM     34  C   UNL     1       4.411   2.126  20.416  0.00  0.00    +0.000 C 
ATOM     35  N   UNL     1       5.285   1.426  20.718  0.00  0.00    +0.000 NA
ENDBRANCH   2  34
TORSDOF 6
ENDMDL
MODEL 3
REMARK VINA RESULT:      -9.0      0.688      1.426
REMARK  Name = 
REMARK  8 active torsions:
REMARK  status: ('A' for Active; 'I' for Inactive)
REMARK    1  A    between atoms: C_1  and  C_2
REMARK    2  A    between atoms: C_3  and  N_4
REMARK    3  A    between atoms: N_4  and  C_5
REMARK    4  A    between atoms: C_6  and  C_7
REMARK    5  A    between atoms: C_12  and  C_13
REMARK    6  A    between atoms: C_17  and  C_18
REMARK    7  A    between atoms: C_18  and  N_19
REMARK    8  A    between atoms: N_22  and  C_23
REMARK                            x       y       z     vdW  Elec       q    Type
REMARK                         _______ _______ _______ _____ _____    ______ ____
ROOT
ATOM      1  C   UNL     1       3.373   4.231  19.983  0.00  0.00    +0.000 A 
ATOM      2  C   UNL     1       3.319   2.961  20.612  0.00  0.00    +0.000 A 
ATOM      3  C   UNL     1       2.093   2.468  21.034  0.00  0.00    +0.000 A 
ATOM      4  N   UNL     1       0.938   3.153  20.949  0.00  0.00    +0.000 NA
ATOM      5  C   UNL     1       1.032   4.413  20.469  0.00  0.00    +0.000 A 
ATOM      6  C   UNL     1       2.197   5.038  19.985  0.00  0.00    +0.000 A 
ENDROOT
BRANCH   6   7
ATOM      7  C   UNL     1       2.103   6.451  19.527  0.00  0.00    +0.000 A 
ATOM      8  C   UNL     1       2.563   6.883  18.282  0.00  0.00    +0.000 A 
ATOM      9  N   UNL     1       2.476   8.155  17.813  0.00  0.00    +0.000 NA
ATOM     10  C   UNL     1       1.958   9.084  18.646  0.00  0.00    +0.000 A 
ATOM     11  C   UNL     1       1.544   8.810  19.938  0.00  0.00    +0.000 A 
ATOM     12  C   UNL     1       1.603   7.467  20.357  0.00  0.00    +0.000 A 
BRANCH  11  13
ATOM     13  C   UNL     1       1.037   9.895  20.852  0.00  0.00    +0.000 C 
BRANCH  13  14
ATOM     14  N   UNL     1       0.359  10.997  20.156  0.00  0.00    +0.000 NA
ATOM     15  C   UNL     1       0.279  12.186  21.034  0.00  0.00    +0.000 C 
ATOM     16  C   UNL     1      -0.460  13.371  20.363  0.00  0.00    +0.000 C 
ATOM     17  N   UNL     1      -1.798  13.054  19.827  0.00  0.00    +0.000 NA
ATOM     18  C   UNL     1      -2.796  12.926  20.885  0.00  0.00    +0.000 C 
ATOM     19  C   UNL     1      -1.710  11.830  19.011  0.00  0.00    +0.000 C 
ATOM     20  C   UNL     1      -0.998  10.643  19.699  0.00  0.00    +0.000 C 
ENDBRANCH  13  14
ENDBRANCH  11  13
ENDBRANCH   6   7
BRANCH   1  21
ATOM     21  N   UNL     1       4.598   4.699  19.393  0.00  0.00    +0.000 N 
ATOM     22  H   UNL     1       4.687   5.711  19.480  0.00  0.00    +0.000 HD
BRANCH  21  25
ATOM     23  C   UNL     1       7.154   5.798  18.407  0.00  0.00    +0.000 C 
ATOM     24  C   UNL     1       6.212   5.010  17.535  0.00  0.00    +0.000 A 
ATOM     25  C   UNL     1       5.023   4.428  18.045  0.00  0.00    +0.000 A 
ATOM     26  C   UNL     1       4.175   3.696  17.193  0.00  0.00    +0.000 A 
ATOM     27  C   UNL     1       4.499   3.446  15.860  0.00  0.00    +0.000 A 
ATOM     28  C   UNL     1       5.655   4.046  15.367  0.00  0.00    +0.000 A 
ATOM     29  N   UNL     1       6.188   4.007  14.099  0.00  0.00    +0.000 N 
ATOM     30  C   UNL     1       7.301   4.796  14.030  0.00  0.00    +0.000 A 
ATOM     31  C   UNL     1       7.524   5.314  15.285  0.00  0.00    +0.000 A 
ATOM     32  C   UNL     1       6.496   4.834  16.153  0.00  0.00    +0.000 A 
ATOM     33  H   UNL     1       5.790   3.487  13.330  0.00  0.00    +0.000 HD
ENDBRANCH  21  25
ENDBRANCH   1  21
BRANCH   2  34
ATOM     34  C   UNL     1       4.463   2.135  20.866  0.00  0.00    +0.000 C 
ATOM     35  N   UNL     1       5.345   1.400  21.028  0.00  0.00    +0.000 NA
ENDBRANCH   2  34
TORSDOF 6
ENDMDL
MODEL 4
REMARK VINA RESULT:      -8.9      5.122      9.175
REMARK  Name = 
REMARK  8 active torsions:
REMARK  status: ('A' for Active; 'I' for Inactive)
REMARK    1  A    between atoms: C_1  and  C_2
REMARK    2  A    between atoms: C_3  and  N_4
REMARK    3  A    between atoms: N_4  and  C_5
REMARK    4  A    between atoms: C_6  and  C_7
REMARK    5  A    between atoms: C_12  and  C_13
REMARK    6  A    between atoms: C_17  and  C_18
REMARK    7  A    between atoms: C_18  and  N_19
REMARK    8  A    between atoms: N_22  and  C_23
REMARK                            x       y       z     vdW  Elec       q    Type
REMARK                         _______ _______ _______ _____ _____    ______ ____
ROOT
ATOM      1  C   UNL     1       0.108  10.547  20.336  0.00  0.00    +0.000 A 
ATOM      2  C   UNL     1       0.960   9.500  19.900  0.00  0.00    +0.000 A 
ATOM      3  C   UNL     1       1.392   8.554  20.817  0.00  0.00    +0.000 A 
ATOM      4  N   UNL     1       1.110   8.600  22.132  0.00  0.00    +0.000 NA
ATOM      5  C   UNL     1       0.407   9.676  22.549  0.00  0.00    +0.000 A 
ATOM      6  C   UNL     1      -0.113  10.700  21.736  0.00  0.00    +0.000 A 
ENDROOT
BRANCH   6   7
ATOM      7  C   UNL     1      -0.834  11.826  22.391  0.00  0.00    +0.000 A 
ATOM      8  C   UNL     1      -0.324  13.124  22.458  0.00  0.00    +0.000 A 
ATOM      9  N   UNL     1      -0.956  14.185  23.024  0.00  0.00    +0.000 NA
ATOM     10  C   UNL     1      -2.144  13.947  23.620  0.00  0.00    +0.000 A 
ATOM     11  C   UNL     1      -2.724  12.693  23.703  0.00  0.00    +0.000 A 
ATOM     12  C   UNL     1      -2.056  11.637  23.054  0.00  0.00    +0.000 A 
BRANCH  11  13
ATOM     13  C   UNL     1      -4.018  12.468  24.440  0.00  0.00    +0.000 C 
BRANCH  13  14
ATOM     14  N   UNL     1      -5.160  13.208  23.887  0.00  0.00    +0.000 NA
ATOM     15  C   UNL     1      -6.431  12.559  24.278  0.00  0.00    +0.000 C 
ATOM     16  C   UNL     1      -7.671  13.278  23.691  0.00  0.00    +0.000 C 
ATOM     17  N   UNL     1      -7.644  13.485  22.230  0.00  0.00    +0.000 NA
ATOM     18  C   UNL     1      -7.913  12.251  21.496  0.00  0.00    +0.000 C 
ATOM     19  C   UNL     1      -6.345  14.070  21.852  0.00  0.00    +0.000 C 
ATOM     20  C   UNL     1      -5.113  13.329  22.417  0.00  0.00    +0.000 C 
ENDBRANCH  13  14
ENDBRANCH  11  13
ENDBRANCH   6   7
BRANCH   1  21
ATOM     21  N   UNL     1      -0.484  11.447  19.383  0.00  0.00    +0.000 N 
ATOM     22  H   UNL     1      -0.488  12.404  19.733  0.00  0.00    +0.000 HD
BRANCH  21  25
ATOM     23  C   UNL     1      -2.587  13.453  19.897  0.00  0.00    +0.000 C 
ATOM     24  C   UNL     1      -2.828  12.204  19.092  0.00  0.00    +0.000 A 
ATOM     25  C   UNL     1      -1.787  11.287  18.794  0.00  0.00    +0.000 A 
ATOM     26  C   UNL     1      -2.059  10.135  18.032  0.00  0.00    +0.000 A 
ATOM     27  C   UNL     1      -3.316   9.890  17.481  0.00  0.00    +0.000 A 
ATOM     28  C   UNL     1      -4.334  10.784  17.805  0.00  0.00    +0.000 A 
ATOM     29  N   UNL     1      -5.661  10.767  17.441  0.00  0.00    +0.000 N 
ATOM     30  C   UNL     1      -6.327  11.799  18.038  0.00  0.00    +0.000 A 
ATOM     31  C   UNL     1      -5.409  12.529  18.758  0.00  0.00    +0.000 A 
ATOM     32  C   UNL     1      -4.132  11.906  18.608  0.00  0.00    +0.000 A 
ATOM     33  H   UNL     1      -6.078  10.071  16.841  0.00  0.00    +0.000 HD
ENDBRANCH  21  25
ENDBRANCH   1  21
BRANCH   2  34
ATOM     34  C   UNL     1       1.434   9.350  18.554  0.00  0.00    +0.000 C 
ATOM     35  N   UNL     1       1.899   9.251  17.496  0.00  0.00    +0.000 NA
ENDBRANCH   2  34
TORSDOF 6
ENDMDL
MODEL 5
REMARK VINA RESULT:      -8.8      1.670      4.938
REMARK  Name = 
REMARK  8 active torsions:
REMARK  status: ('A' for Active; 'I' for Inactive)
REMARK    1  A    between atoms: C_1  and  C_2
REMARK    2  A    between atoms: C_3  and  N_4
REMARK    3  A    between atoms: N_4  and  C_5
REMARK    4  A    between atoms: C_6  and  C_7
REMARK    5  A    between atoms: C_12  and  C_13
REMARK    6  A    between atoms: C_17  and  C_18
REMARK    7  A    between atoms: C_18  and  N_19
REMARK    8  A    between atoms: N_22  and  C_23
REMARK                            x       y       z     vdW  Elec       q    Type
REMARK                         _______ _______ _______ _____ _____    ______ ____
ROOT
ATOM      1  C   UNL     1       5.071   5.179  16.515  0.00  0.00    +0.000 A 
ATOM      2  C   UNL     1       6.125   4.941  15.597  0.00  0.00    +0.000 A 
ATOM      3  C   UNL     1       7.216   5.796  15.584  0.00  0.00    +0.000 A 
ATOM      4  N   UNL     1       7.315   6.898  16.350  0.00  0.00    +0.000 NA
ATOM      5  C   UNL     1       6.242   7.180  17.123  0.00  0.00    +0.000 A 
ATOM      6  C   UNL     1       5.080   6.398  17.254  0.00  0.00    +0.000 A 
ENDROOT
BRANCH   6   7
ATOM      7  C   UNL     1       3.987   6.898  18.133  0.00  0.00    +0.000 A 
ATOM      8  C   UNL     1       3.706   6.353  19.388  0.00  0.00    +0.000 A 
ATOM      9  N   UNL     1       2.738   6.792  20.232  0.00  0.00    +0.000 NA
ATOM     10  C   UNL     1       1.947   7.795  19.794  0.00  0.00    +0.000 A 
ATOM     11  C   UNL     1       2.058   8.367  18.539  0.00  0.00    +0.000 A 
ATOM     12  C   UNL     1       3.112   7.916  17.722  0.00  0.00    +0.000 A 
BRANCH  11  13
ATOM     13  C   UNL     1       1.106   9.437  18.071  0.00  0.00    +0.000 C 
BRANCH  13  14
ATOM     14  N   UNL     1       0.940  10.548  19.017  0.00  0.00    +0.000 NA
ATOM     15  C   UNL     1      -0.486  10.935  19.109  0.00  0.00    +0.000 C 
ATOM     16  C   UNL     1      -0.717  12.128  20.068  0.00  0.00    +0.000 C 
ATOM     17  N   UNL     1       0.108  13.322  19.797  0.00  0.00    +0.000 NA
ATOM     18  C   UNL     1      -0.366  14.063  18.633  0.00  0.00    +0.000 C 
ATOM     19  C   UNL     1       1.514  12.907  19.643  0.00  0.00    +0.000 C 
ATOM     20  C   UNL     1       1.739  11.736  18.661  0.00  0.00    +0.000 C 
ENDBRANCH  13  14
ENDBRANCH  11  13
ENDBRANCH   6   7
BRANCH   1  21
ATOM     21  N   UNL     1       4.006   4.223  16.664  0.00  0.00    +0.000 N 
ATOM     22  H   UNL     1       3.132   4.583  16.281  0.00  0.00    +0.000 HD
BRANCH  21  25
ATOM     23  C   UNL     1       1.209   4.418  17.584  0.00  0.00    +0.000 C 
ATOM     24  C   UNL     1       2.292   3.755  18.394  0.00  0.00    +0.000 A 
ATOM     25  C   UNL     1       3.614   3.607  17.904  0.00  0.00    +0.000 A 
ATOM     26  C   UNL     1       4.593   2.976  18.695  0.00  0.00    +0.000 A 
ATOM     27  C   UNL     1       4.293   2.409  19.933  0.00  0.00    +0.000 A 
ATOM     28  C   UNL     1       2.998   2.587  20.414  0.00  0.00    +0.000 A 
ATOM     29  N   UNL     1       2.443   2.177  21.603  0.00  0.00    +0.000 N 
ATOM     30  C   UNL     1       1.156   2.623  21.702  0.00  0.00    +0.000 A 
ATOM     31  C   UNL     1       0.853   3.287  20.536  0.00  0.00    +0.000 A 
ATOM     32  C   UNL     1       2.008   3.260  19.697  0.00  0.00    +0.000 A 
ATOM     33  H   UNL     1       2.935   1.646  22.308  0.00  0.00    +0.000 HD
ENDBRANCH  21  25
ENDBRANCH   1  21
BRANCH   2  34
ATOM     34  C   UNL     1       6.143   3.867  14.646  0.00  0.00    +0.000 C 
ATOM     35  N   UNL     1       6.238   3.029  13.850  0.00  0.00    +0.000 NA
ENDBRANCH   2  34
TORSDOF 6
ENDMDL
MODEL 6
REMARK VINA RESULT:      -8.7      0.513      1.005
REMARK  Name = 
REMARK  8 active torsions:
REMARK  status: ('A' for Active; 'I' for Inactive)
REMARK    1  A    between atoms: C_1  and  C_2
REMARK    2  A    between atoms: C_3  and  N_4
REMARK    3  A    between atoms: N_4  and  C_5
REMARK    4  A    between atoms: C_6  and  C_7
REMARK    5  A    between atoms: C_12  and  C_13
REMARK    6  A    between atoms: C_17  and  C_18
REMARK    7  A    between atoms: C_18  and  N_19
REMARK    8  A    between atoms: N_22  and  C_23
REMARK                            x       y       z     vdW  Elec       q    Type
REMARK                         _______ _______ _______ _____ _____    ______ ____
ROOT
ATOM      1  C   UNL     1       3.464   4.095  19.808  0.00  0.00    +0.000 A 
ATOM      2  C   UNL     1       3.386   2.729  20.178  0.00  0.00    +0.000 A 
ATOM      3  C   UNL     1       2.157   2.087  20.138  0.00  0.00    +0.000 A 
ATOM      4  N   UNL     1       0.999   2.701  19.833  0.00  0.00    +0.000 NA
ATOM      5  C   UNL     1       1.076   4.033  19.611  0.00  0.00    +0.000 A 
ATOM      6  C   UNL     1       2.249   4.810  19.598  0.00  0.00    +0.000 A 
ENDROOT
BRANCH   6   7
ATOM      7  C   UNL     1       2.122   6.276  19.368  0.00  0.00    +0.000 A 
ATOM      8  C   UNL     1       2.508   6.899  18.180  0.00  0.00    +0.000 A 
ATOM      9  N   UNL     1       2.388   8.226  17.918  0.00  0.00    +0.000 NA
ATOM     10  C   UNL     1       1.915   9.010  18.910  0.00  0.00    +0.000 A 
ATOM     11  C   UNL     1       1.578   8.536  20.167  0.00  0.00    +0.000 A 
ATOM     12  C   UNL     1       1.667   7.146  20.371  0.00  0.00    +0.000 A 
BRANCH  11  13
ATOM     13  C   UNL     1       1.120   9.462  21.264  0.00  0.00    +0.000 C 
BRANCH  13  14
ATOM     14  N   UNL     1      -0.163  10.124  20.993  0.00  0.00    +0.000 NA
ATOM     15  C   UNL     1      -0.320  10.366  19.542  0.00  0.00    +0.000 C 
ATOM     16  C   UNL     1      -1.642  11.096  19.200  0.00  0.00    +0.000 C 
ATOM     17  N   UNL     1      -1.878  12.349  19.945  0.00  0.00    +0.000 NA
ATOM     18  C   UNL     1      -1.052  13.446  19.448  0.00  0.00    +0.000 C 
ATOM     19  C   UNL     1      -1.652  12.105  21.380  0.00  0.00    +0.000 C 
ATOM     20  C   UNL     1      -0.316  11.403  21.714  0.00  0.00    +0.000 C 
ENDBRANCH  13  14
ENDBRANCH  11  13
ENDBRANCH   6   7
BRANCH   1  21
ATOM     21  N   UNL     1       4.743   4.744  19.685  0.00  0.00    +0.000 N 
ATOM     22  H   UNL     1       4.754   5.634  20.181  0.00  0.00    +0.000 HD
BRANCH  21  25
ATOM     23  C   UNL     1       3.929   3.334  17.223  0.00  0.00    +0.000 C 
ATOM     24  C   UNL     1       5.078   4.308  17.267  0.00  0.00    +0.000 A 
ATOM     25  C   UNL     1       5.408   5.030  18.441  0.00  0.00    +0.000 A 
ATOM     26  C   UNL     1       6.488   5.933  18.433  0.00  0.00    +0.000 A 
ATOM     27  C   UNL     1       7.213   6.212  17.275  0.00  0.00    +0.000 A 
ATOM     28  C   UNL     1       6.895   5.476  16.137  0.00  0.00    +0.000 A 
ATOM     29  N   UNL     1       7.464   5.512  14.885  0.00  0.00    +0.000 N 
ATOM     30  C   UNL     1       6.892   4.569  14.079  0.00  0.00    +0.000 A 
ATOM     31  C   UNL     1       5.899   3.948  14.803  0.00  0.00    +0.000 A 
ATOM     32  C   UNL     1       5.876   4.523  16.110  0.00  0.00    +0.000 A 
ATOM     33  H   UNL     1       8.215   6.132  14.619  0.00  0.00    +0.000 HD
ENDBRANCH  21  25
ENDBRANCH   1  21
BRANCH   2  34
ATOM     34  C   UNL     1       4.503   1.944  20.617  0.00  0.00    +0.000 C 
ATOM     35  N   UNL     1       5.382   1.328  21.056  0.00  0.00    +0.000 NA
ENDBRANCH   2  34
TORSDOF 6
ENDMDL
MODEL 7
REMARK VINA RESULT:      -8.7      1.221      1.875
REMARK  Name = 
REMARK  8 active torsions:
REMARK  status: ('A' for Active; 'I' for Inactive)
REMARK    1  A    between atoms: C_1  and  C_2
REMARK    2  A    between atoms: C_3  and  N_4
REMARK    3  A    between atoms: N_4  and  C_5
REMARK    4  A    between atoms: C_6  and  C_7
REMARK    5  A    between atoms: C_12  and  C_13
REMARK    6  A    between atoms: C_17  and  C_18
REMARK    7  A    between atoms: C_18  and  N_19
REMARK    8  A    between atoms: N_22  and  C_23
REMARK                            x       y       z     vdW  Elec       q    Type
REMARK                         _______ _______ _______ _____ _____    ______ ____
ROOT
ATOM      1  C   UNL     1       3.316   4.217  20.001  0.00  0.00    +0.000 A 
ATOM      2  C   UNL     1       3.292   2.933  20.603  0.00  0.00    +0.000 A 
ATOM      3  C   UNL     1       2.080   2.410  21.031  0.00  0.00    +0.000 A 
ATOM      4  N   UNL     1       0.913   3.077  20.976  0.00  0.00    +0.000 NA
ATOM      5  C   UNL     1       0.979   4.348  20.521  0.00  0.00    +0.000 A 
ATOM      6  C   UNL     1       2.127   5.003  20.036  0.00  0.00    +0.000 A 
ENDROOT
BRANCH   6   7
ATOM      7  C   UNL     1       2.003   6.423  19.609  0.00  0.00    +0.000 A 
ATOM      8  C   UNL     1       2.139   6.838  18.283  0.00  0.00    +0.000 A 
ATOM      9  N   UNL     1       2.010   8.117  17.846  0.00  0.00    +0.000 NA
ATOM     10  C   UNL     1       1.793   9.068  18.779  0.00  0.00    +0.000 A 
ATOM     11  C   UNL     1       1.724   8.809  20.137  0.00  0.00    +0.000 A 
ATOM     12  C   UNL     1       1.809   7.461  20.535  0.00  0.00    +0.000 A 
BRANCH  11  13
ATOM     13  C   UNL     1       1.550   9.914  21.146  0.00  0.00    +0.000 C 
BRANCH  13  14
ATOM     14  N   UNL     1       0.151  10.285  21.393  0.00  0.00    +0.000 NA
ATOM     15  C   UNL     1      -0.146  11.603  20.788  0.00  0.00    +0.000 C 
ATOM     16  C   UNL     1      -1.601  12.063  21.049  0.00  0.00    +0.000 C 
ATOM     17  N   UNL     1      -2.018  12.057  22.466  0.00  0.00    +0.000 NA
ATOM     18  C   UNL     1      -1.447  13.177  23.209  0.00  0.00    +0.000 C 
ATOM     19  C   UNL     1      -1.654  10.762  23.068  0.00  0.00    +0.000 C 
ATOM     20  C   UNL     1      -0.191  10.326  22.828  0.00  0.00    +0.000 C 
ENDBRANCH  13  14
ENDBRANCH  11  13
ENDBRANCH   6   7
BRANCH   1  21
ATOM     21  N   UNL     1       4.525   4.718  19.405  0.00  0.00    +0.000 N 
ATOM     22  H   UNL     1       4.589   5.731  19.496  0.00  0.00    +0.000 HD
BRANCH  21  25
ATOM     23  C   UNL     1       7.119   5.755  18.454  0.00  0.00    +0.000 C 
ATOM     24  C   UNL     1       6.157   5.018  17.561  0.00  0.00    +0.000 A 
ATOM     25  C   UNL     1       4.947   4.463  18.053  0.00  0.00    +0.000 A 
ATOM     26  C   UNL     1       4.081   3.778  17.181  0.00  0.00    +0.000 A 
ATOM     27  C   UNL     1       4.403   3.548  15.844  0.00  0.00    +0.000 A 
ATOM     28  C   UNL     1       5.580   4.122  15.369  0.00  0.00    +0.000 A 
ATOM     29  N   UNL     1       6.118   4.093  14.103  0.00  0.00    +0.000 N 
ATOM     30  C   UNL     1       7.255   4.848  14.057  0.00  0.00    +0.000 A 
ATOM     31  C   UNL     1       7.489   5.330  15.324  0.00  0.00    +0.000 A 
ATOM     32  C   UNL     1       6.442   4.864  16.177  0.00  0.00    +0.000 A 
ATOM     33  H   UNL     1       5.707   3.604  13.321  0.00  0.00    +0.000 HD
ENDBRANCH  21  25
ENDBRANCH   1  21
BRANCH   2  34
ATOM     34  C   UNL     1       4.453   2.121  20.824  0.00  0.00    +0.000 C 
ATOM     35  N   UNL     1       5.339   1.392  20.995  0.00  0.00    +0.000 NA
ENDBRANCH   2  34
TORSDOF 6
ENDMDL
MODEL 8
REMARK VINA RESULT:      -8.7      1.304      1.649
REMARK  Name = 
REMARK  8 active torsions:
REMARK  status: ('A' for Active; 'I' for Inactive)
REMARK    1  A    between atoms: C_1  and  C_2
REMARK    2  A    between atoms: C_3  and  N_4
REMARK    3  A    between atoms: N_4  and  C_5
REMARK    4  A    between atoms: C_6  and  C_7
REMARK    5  A    between atoms: C_12  and  C_13
REMARK    6  A    between atoms: C_17  and  C_18
REMARK    7  A    between atoms: C_18  and  N_19
REMARK    8  A    between atoms: N_22  and  C_23
REMARK                            x       y       z     vdW  Elec       q    Type
REMARK                         _______ _______ _______ _____ _____    ______ ____
ROOT
ATOM      1  C   UNL     1       3.072   4.603  20.135  0.00  0.00    +0.000 A 
ATOM      2  C   UNL     1       3.096   3.187  20.198  0.00  0.00    +0.000 A 
ATOM      3  C   UNL     1       1.898   2.489  20.169  0.00  0.00    +0.000 A 
ATOM      4  N   UNL     1       0.687   3.075  20.154  0.00  0.00    +0.000 NA
ATOM      5  C   UNL     1       0.683   4.425  20.228  0.00  0.00    +0.000 A 
ATOM      6  C   UNL     1       1.813   5.264  20.243  0.00  0.00    +0.000 A 
ENDROOT
BRANCH   6   7
ATOM      7  C   UNL     1       1.601   6.732  20.364  0.00  0.00    +0.000 A 
ATOM      8  C   UNL     1       1.119   7.342  21.523  0.00  0.00    +0.000 A 
ATOM      9  N   UNL     1       0.934   8.678  21.687  0.00  0.00    +0.000 NA
ATOM     10  C   UNL     1       1.180   9.468  20.620  0.00  0.00    +0.000 A 
ATOM     11  C   UNL     1       1.578   8.988  19.385  0.00  0.00    +0.000 A 
ATOM     12  C   UNL     1       1.809   7.603  19.282  0.00  0.00    +0.000 A 
BRANCH  11  13
ATOM     13  C   UNL     1       1.773   9.905  18.205  0.00  0.00    +0.000 C 
BRANCH  13  14
ATOM     14  N   UNL     1       0.640  10.804  17.952  0.00  0.00    +0.000 NA
ATOM     15  C   UNL     1       0.767  12.032  18.768  0.00  0.00    +0.000 C 
ATOM     16  C   UNL     1      -0.422  13.004  18.568  0.00  0.00    +0.000 C 
ATOM     17  N   UNL     1      -1.759  12.411  18.762  0.00  0.00    +0.000 NA
ATOM     18  C   UNL     1      -2.066  12.201  20.175  0.00  0.00    +0.000 C 
ATOM     19  C   UNL     1      -1.843  11.155  17.996  0.00  0.00    +0.000 C 
ATOM     20  C   UNL     1      -0.668  10.178  18.224  0.00  0.00    +0.000 C 
ENDBRANCH  13  14
ENDBRANCH  11  13
ENDBRANCH   6   7
BRANCH   1  21
ATOM     21  N   UNL     1       4.296   5.346  20.003  0.00  0.00    +0.000 N 
ATOM     22  H   UNL     1       4.134   6.346  20.113  0.00  0.00    +0.000 HD
BRANCH  21  25
ATOM     23  C   UNL     1       3.224   5.056  17.269  0.00  0.00    +0.000 C 
ATOM     24  C   UNL     1       4.699   5.049  17.574  0.00  0.00    +0.000 A 
ATOM     25  C   UNL     1       5.198   5.262  18.884  0.00  0.00    +0.000 A 
ATOM     26  C   UNL     1       6.585   5.251  19.120  0.00  0.00    +0.000 A 
ATOM     27  C   UNL     1       7.512   5.114  18.088  0.00  0.00    +0.000 A 
ATOM     28  C   UNL     1       7.008   4.878  16.812  0.00  0.00    +0.000 A 
ATOM     29  N   UNL     1       7.681   4.667  15.631  0.00  0.00    +0.000 N 
ATOM     30  C   UNL     1       6.796   4.405  14.624  0.00  0.00    +0.000 A 
ATOM     31  C   UNL     1       5.527   4.499  15.147  0.00  0.00    +0.000 A 
ATOM     32  C   UNL     1       5.642   4.816  16.535  0.00  0.00    +0.000 A 
ATOM     33  H   UNL     1       8.686   4.680  15.539  0.00  0.00    +0.000 HD
ENDBRANCH  21  25
ENDBRANCH   1  21
BRANCH   2  34
ATOM     34  C   UNL     1       4.291   2.402  20.308  0.00  0.00    +0.000 C 
ATOM     35  N   UNL     1       5.208   1.704  20.440  0.00  0.00    +0.000 NA
ENDBRANCH   2  34
TORSDOF 6
ENDMDL
MODEL 9
REMARK VINA RESULT:      -8.6      1.127      1.200
REMARK  Name = 
REMARK  8 active torsions:
REMARK  status: ('A' for Active; 'I' for Inactive)
REMARK    1  A    between atoms: C_1  and  C_2
REMARK    2  A    between atoms: C_3  and  N_4
REMARK    3  A    between atoms: N_4  and  C_5
REMARK    4  A    between atoms: C_6  and  C_7
REMARK    5  A    between atoms: C_12  and  C_13
REMARK    6  A    between atoms: C_17  and  C_18
REMARK    7  A    between atoms: C_18  and  N_19
REMARK    8  A    between atoms: N_22  and  C_23
REMARK                            x       y       z     vdW  Elec       q    Type
REMARK                         _______ _______ _______ _____ _____    ______ ____
ROOT
ATOM      1  C   UNL     1       3.122   4.461  20.137  0.00  0.00    +0.000 A 
ATOM      2  C   UNL     1       3.128   3.058  20.340  0.00  0.00    +0.000 A 
ATOM      3  C   UNL     1       1.926   2.366  20.316  0.00  0.00    +0.000 A 
ATOM      4  N   UNL     1       0.724   2.955  20.178  0.00  0.00    +0.000 NA
ATOM      5  C   UNL     1       0.730   4.305  20.118  0.00  0.00    +0.000 A 
ATOM      6  C   UNL     1       1.866   5.135  20.110  0.00  0.00    +0.000 A 
ENDROOT
BRANCH   6   7
ATOM      7  C   UNL     1       1.664   6.610  20.073  0.00  0.00    +0.000 A 
ATOM      8  C   UNL     1       2.214   7.432  19.089  0.00  0.00    +0.000 A 
ATOM      9  N   UNL     1       2.037   8.776  19.002  0.00  0.00    +0.000 NA
ATOM     10  C   UNL     1       1.320   9.367  19.982  0.00  0.00    +0.000 A 
ATOM     11  C   UNL     1       0.792   8.684  21.064  0.00  0.00    +0.000 A 
ATOM     12  C   UNL     1       0.956   7.286  21.079  0.00  0.00    +0.000 A 
BRANCH  11  13
ATOM     13  C   UNL     1       0.059   9.399  22.169  0.00  0.00    +0.000 C 
BRANCH  13  14
ATOM     14  N   UNL     1      -0.226  10.812  21.883  0.00  0.00    +0.000 NA
ATOM     15  C   UNL     1      -0.970  11.423  23.007  0.00  0.00    +0.000 C 
ATOM     16  C   UNL     1      -1.329  12.906  22.745  0.00  0.00    +0.000 C 
ATOM     17  N   UNL     1      -2.037  13.167  21.476  0.00  0.00    +0.000 NA
ATOM     18  C   UNL     1      -3.437  12.755  21.535  0.00  0.00    +0.000 C 
ATOM     19  C   UNL     1      -1.319  12.494  20.379  0.00  0.00    +0.000 C 
ATOM     20  C   UNL     1      -0.991  11.006  20.637  0.00  0.00    +0.000 C 
ENDBRANCH  13  14
ENDBRANCH  11  13
ENDBRANCH   6   7
BRANCH   1  21
ATOM     21  N   UNL     1       4.360   5.181  19.997  0.00  0.00    +0.000 N 
ATOM     22  H   UNL     1       4.233   6.173  20.195  0.00  0.00    +0.000 HD
BRANCH  21  25
ATOM     23  C   UNL     1       3.186   4.602  17.352  0.00  0.00    +0.000 C 
ATOM     24  C   UNL     1       4.662   4.814  17.563  0.00  0.00    +0.000 A 
ATOM     25  C   UNL     1       5.199   5.163  18.828  0.00  0.00    +0.000 A 
ATOM     26  C   UNL     1       6.585   5.357  18.977  0.00  0.00    +0.000 A 
ATOM     27  C   UNL     1       7.463   5.296  17.895  0.00  0.00    +0.000 A 
ATOM     28  C   UNL     1       6.925   4.925  16.665  0.00  0.00    +0.000 A 
ATOM     29  N   UNL     1       7.554   4.748  15.454  0.00  0.00    +0.000 N 
ATOM     30  C   UNL     1       6.660   4.314  14.517  0.00  0.00    +0.000 A 
ATOM     31  C   UNL     1       5.421   4.258  15.115  0.00  0.00    +0.000 A 
ATOM     32  C   UNL     1       5.568   4.660  16.478  0.00  0.00    +0.000 A 
ATOM     33  H   UNL     1       8.540   4.895  15.298  0.00  0.00    +0.000 HD
ENDBRANCH  21  25
ENDBRANCH   1  21
BRANCH   2  34
ATOM     34  C   UNL     1       4.307   2.281  20.592  0.00  0.00    +0.000 C 
ATOM     35  N   UNL     1       5.273   1.702  20.870  0.00  0.00    +0.000 NA
ENDBRANCH   2  34
TORSDOF 6
ENDMDL
