MODEL 1
REMARK VINA RESULT:      -9.3      0.000      0.000
REMARK  Name = 
REMARK  5 active torsions:
REMARK  status: ('A' for Active; 'I' for Inactive)
REMARK    1  A    between atoms: C_1  and  C_2
REMARK    2  A    between atoms: N_4  and  C_5
REMARK    3  A    between atoms: C_9  and  C_10
REMARK    4  A    between atoms: C_12  and  C_13
REMARK    5  A    between atoms: N_17  and  C_18
REMARK                            x       y       z     vdW  Elec       q    Type
REMARK                         _______ _______ _______ _____ _____    ______ ____
ROOT
ATOM      1  C   UNL     1       4.002   5.535  17.514  0.00  0.00    +0.000 A 
ATOM      2  C   UNL     1       3.365   6.733  17.827  0.00  0.00    +0.000 A 
ATOM      3  C   UNL     1       2.462   6.492  18.893  0.00  0.00    +0.000 A 
ATOM      4  C   UNL     1       2.424   5.118  19.078  0.00  0.00    +0.000 A 
ATOM      5  C   UNL     1       1.659   4.210  19.885  0.00  0.00    +0.000 A 
ATOM      6  N   UNL     1       0.512   4.522  20.550  0.00  0.00    +0.000 N 
ATOM      7  N   UNL     1       2.048   2.975  19.977  0.00  0.00    +0.000 NA
ATOM      8  C   UNL     1       3.125   2.563  19.242  0.00  0.00    +0.000 A 
ATOM      9  N   UNL     1       3.809   3.275  18.406  0.00  0.00    +0.000 NA
ATOM     10  N   UNL     1       3.418   4.565  18.313  0.00  0.00    +0.000 N 
ATOM     11  H   UNL     1       0.213   5.479  20.629  0.00  0.00    +0.000 HD
ATOM     12  H   UNL     1       0.272   3.897  21.311  0.00  0.00    +0.000 HD
ENDROOT
BRANCH   1  17
ATOM     13  C   UNL     1       6.127   4.165  14.690  0.00  0.00    +0.000 A 
ATOM     14  C   UNL     1       7.324   4.852  14.891  0.00  0.00    +0.000 A 
ATOM     15  C   UNL     1       7.449   5.750  15.951  0.00  0.00    +0.000 A 
ATOM     16  C   UNL     1       6.381   5.962  16.824  0.00  0.00    +0.000 A 
ATOM     17  C   UNL     1       5.162   5.299  16.636  0.00  0.00    +0.000 A 
ATOM     18  C   UNL     1       5.050   4.405  15.557  0.00  0.00    +0.000 A 
BRANCH  13  22
ATOM     19  C   UNL     1       5.905   2.253  11.451  0.00  0.00    +0.000 C 
ATOM     20  C   UNL     1       6.394   3.367  12.339  0.00  0.00    +0.000 C 
ATOM     21  O   UNL     1       7.124   4.247  11.897  0.00  0.00    +0.000 OA
ATOM     22  N   UNL     1       5.925   3.249  13.636  0.00  0.00    +0.000 N 
ATOM     23  H   UNL     1       5.447   2.390  13.875  0.00  0.00    +0.000 HD
ENDBRANCH  13  22
ENDBRANCH   1  17
BRANCH   3  24
ATOM     24  C   UNL     1       1.815   7.525  19.759  0.00  0.00    +0.000 A 
ATOM     25  C   UNL     1       1.688   7.384  21.127  0.00  0.00    +0.000 A 
ATOM     26  C   UNL     1       1.125   8.577  21.583  0.00  0.00    +0.000 A 
ATOM     27  N   UNL     1       0.950   9.445  20.596  0.00  0.00    +0.000 NA
ATOM     28  N   UNL     1       1.367   8.803  19.479  0.00  0.00    +0.000 N 
BRANCH  28  29
ATOM     29  C   UNL     1       1.133   9.463  18.189  0.00  0.00    +0.000 C 
ATOM     30  C   UNL     1      -0.333   9.904  18.001  0.00  0.00    +0.000 C 
ATOM     31  C   UNL     1      -0.728  11.145  18.808  0.00  0.00    +0.000 C 
ATOM     32  C   UNL     1       0.256  12.304  18.666  0.00  0.00    +0.000 C 
ATOM     33  C   UNL     1       1.726  11.901  18.758  0.00  0.00    +0.000 C 
ATOM     34  C   UNL     1       2.065  10.660  17.928  0.00  0.00    +0.000 C 
ENDBRANCH  28  29
ENDBRANCH   3  24
TORSDOF 4
ENDMDL
MODEL 2
REMARK VINA RESULT:      -9.2      3.856      7.344
REMARK  Name = 
REMARK  5 active torsions:
REMARK  status: ('A' for Active; 'I' for Inactive)
REMARK    1  A    between atoms: C_1  and  C_2
REMARK    2  A    between atoms: N_4  and  C_5
REMARK    3  A    between atoms: C_9  and  C_10
REMARK    4  A    between atoms: C_12  and  C_13
REMARK    5  A    between atoms: N_17  and  C_18
REMARK                            x       y       z     vdW  Elec       q    Type
REMARK                         _______ _______ _______ _____ _____    ______ ____
ROOT
ATOM      1  C   UNL     1       0.936   9.958  19.025  0.00  0.00    +0.000 A 
ATOM      2  C   UNL     1      -0.398  10.011  19.421  0.00  0.00    +0.000 A 
ATOM      3  C   UNL     1      -0.855  11.345  19.271  0.00  0.00    +0.000 A 
ATOM      4  C   UNL     1       0.260  12.115  18.971  0.00  0.00    +0.000 A 
ATOM      5  C   UNL     1       0.528  13.516  18.810  0.00  0.00    +0.000 A 
ATOM      6  N   UNL     1      -0.303  14.526  19.190  0.00  0.00    +0.000 N 
ATOM      7  N   UNL     1       1.664  13.880  18.298  0.00  0.00    +0.000 NA
ATOM      8  C   UNL     1       2.595  12.923  18.001  0.00  0.00    +0.000 A 
ATOM      9  N   UNL     1       2.490  11.651  18.211  0.00  0.00    +0.000 NA
ATOM     10  N   UNL     1       1.306  11.262  18.734  0.00  0.00    +0.000 N 
ATOM     11  H   UNL     1      -1.245  14.329  19.480  0.00  0.00    +0.000 HD
ATOM     12  H   UNL     1      -0.134  15.415  18.735  0.00  0.00    +0.000 HD
ENDROOT
BRANCH   1  17
ATOM     13  C   UNL     1       2.598   6.592  19.545  0.00  0.00    +0.000 A 
ATOM     14  C   UNL     1       3.363   6.483  18.385  0.00  0.00    +0.000 A 
ATOM     15  C   UNL     1       3.353   7.507  17.438  0.00  0.00    +0.000 A 
ATOM     16  C   UNL     1       2.585   8.652  17.648  0.00  0.00    +0.000 A 
ATOM     17  C   UNL     1       1.793   8.781  18.796  0.00  0.00    +0.000 A 
ATOM     18  C   UNL     1       1.807   7.735  19.735  0.00  0.00    +0.000 A 
BRANCH  13  22
ATOM     19  C   UNL     1       2.006   3.580  21.731  0.00  0.00    +0.000 C 
ATOM     20  C   UNL     1       1.948   4.353  20.439  0.00  0.00    +0.000 C 
ATOM     21  O   UNL     1       1.408   3.876  19.448  0.00  0.00    +0.000 OA
ATOM     22  N   UNL     1       2.552   5.594  20.542  0.00  0.00    +0.000 N 
ATOM     23  H   UNL     1       3.073   5.782  21.388  0.00  0.00    +0.000 HD
ENDBRANCH  13  22
ENDBRANCH   1  17
BRANCH   3  24
ATOM     24  C   UNL     1      -2.279  11.799  19.263  0.00  0.00    +0.000 A 
ATOM     25  C   UNL     1      -3.204  11.351  18.341  0.00  0.00    +0.000 A 
ATOM     26  C   UNL     1      -4.422  11.923  18.713  0.00  0.00    +0.000 A 
ATOM     27  N   UNL     1      -4.307  12.644  19.820  0.00  0.00    +0.000 NA
ATOM     28  N   UNL     1      -2.997  12.574  20.157  0.00  0.00    +0.000 N 
BRANCH  28  29
ATOM     29  C   UNL     1      -2.532  13.422  21.260  0.00  0.00    +0.000 C 
ATOM     30  C   UNL     1      -3.692  14.014  22.087  0.00  0.00    +0.000 C 
ATOM     31  C   UNL     1      -4.375  13.014  23.025  0.00  0.00    +0.000 C 
ATOM     32  C   UNL     1      -3.396  12.212  23.880  0.00  0.00    +0.000 C 
ATOM     33  C   UNL     1      -2.184  11.678  23.120  0.00  0.00    +0.000 C 
ATOM     34  C   UNL     1      -1.538  12.721  22.204  0.00  0.00    +0.000 C 
ENDBRANCH  28  29
ENDBRANCH   3  24
TORSDOF 4
ENDMDL
MODEL 3
REMARK VINA RESULT:      -9.0      4.011      7.098
REMARK  Name = 
REMARK  5 active torsions:
REMARK  status: ('A' for Active; 'I' for Inactive)
REMARK    1  A    between atoms: C_1  and  C_2
REMARK    2  A    between atoms: N_4  and  C_5
REMARK    3  A    between atoms: C_9  and  C_10
REMARK    4  A    between atoms: C_12  and  C_13
REMARK    5  A    between atoms: N_17  and  C_18
REMARK                            x       y       z     vdW  Elec       q    Type
REMARK                         _______ _______ _______ _____ _____    ______ ____
ROOT
ATOM      1  C   UNL     1       0.693  10.029  19.494  0.00  0.00    +0.000 A 
ATOM      2  C   UNL     1       0.830  10.924  20.552  0.00  0.00    +0.000 A 
ATOM      3  C   UNL     1      -0.373  11.664  20.669  0.00  0.00    +0.000 A 
ATOM      4  C   UNL     1      -1.146  11.343  19.562  0.00  0.00    +0.000 A 
ATOM      5  C   UNL     1      -2.390  11.800  19.010  0.00  0.00    +0.000 A 
ATOM      6  N   UNL     1      -3.040  12.942  19.370  0.00  0.00    +0.000 N 
ATOM      7  N   UNL     1      -2.945  11.108  18.062  0.00  0.00    +0.000 NA
ATOM      8  C   UNL     1      -2.289  10.013  17.570  0.00  0.00    +0.000 A 
ATOM      9  N   UNL     1      -1.120   9.587  17.924  0.00  0.00    +0.000 NA
ATOM     10  N   UNL     1      -0.541  10.296  18.919  0.00  0.00    +0.000 N 
ATOM     11  H   UNL     1      -2.742  13.465  20.175  0.00  0.00    +0.000 HD
ATOM     12  H   UNL     1      -4.027  12.964  19.140  0.00  0.00    +0.000 HD
ENDROOT
BRANCH   1  17
ATOM     13  C   UNL     1       2.501   6.700  19.606  0.00  0.00    +0.000 A 
ATOM     14  C   UNL     1       3.171   6.712  18.383  0.00  0.00    +0.000 A 
ATOM     15  C   UNL     1       3.049   7.806  17.526  0.00  0.00    +0.000 A 
ATOM     16  C   UNL     1       2.263   8.900  17.889  0.00  0.00    +0.000 A 
ATOM     17  C   UNL     1       1.566   8.908  19.103  0.00  0.00    +0.000 A 
ATOM     18  C   UNL     1       1.692   7.794  19.950  0.00  0.00    +0.000 A 
BRANCH  13  22
ATOM     19  C   UNL     1       2.095   3.567  21.661  0.00  0.00    +0.000 C 
ATOM     20  C   UNL     1       1.841   4.451  20.468  0.00  0.00    +0.000 C 
ATOM     21  O   UNL     1       1.061   4.106  19.587  0.00  0.00    +0.000 OA
ATOM     22  N   UNL     1       2.570   5.627  20.519  0.00  0.00    +0.000 N 
ATOM     23  H   UNL     1       3.274   5.698  21.242  0.00  0.00    +0.000 HD
ENDBRANCH  13  22
ENDBRANCH   1  17
BRANCH   3  24
ATOM     24  C   UNL     1      -0.796  12.491  21.841  0.00  0.00    +0.000 A 
ATOM     25  C   UNL     1      -1.786  12.094  22.719  0.00  0.00    +0.000 A 
ATOM     26  C   UNL     1      -1.827  13.072  23.715  0.00  0.00    +0.000 A 
ATOM     27  N   UNL     1      -0.901  14.003  23.526  0.00  0.00    +0.000 NA
ATOM     28  N   UNL     1      -0.272  13.652  22.378  0.00  0.00    +0.000 N 
BRANCH  28  29
ATOM     29  C   UNL     1       0.702  14.597  21.821  0.00  0.00    +0.000 C 
ATOM     30  C   UNL     1       0.614  14.708  20.284  0.00  0.00    +0.000 C 
ATOM     31  C   UNL     1      -0.588  15.509  19.776  0.00  0.00    +0.000 C 
ATOM     32  C   UNL     1      -0.761  16.858  20.471  0.00  0.00    +0.000 C 
ATOM     33  C   UNL     1      -0.596  16.812  21.989  0.00  0.00    +0.000 C 
ATOM     34  C   UNL     1       0.624  16.005  22.439  0.00  0.00    +0.000 C 
ENDBRANCH  28  29
ENDBRANCH   3  24
TORSDOF 4
ENDMDL
MODEL 4
REMARK VINA RESULT:      -9.0      4.022      7.678
REMARK  Name = 
REMARK  5 active torsions:
REMARK  status: ('A' for Active; 'I' for Inactive)
REMARK    1  A    between atoms: C_1  and  C_2
REMARK    2  A    between atoms: N_4  and  C_5
REMARK    3  A    between atoms: C_9  and  C_10
REMARK    4  A    between atoms: C_12  and  C_13
REMARK    5  A    between atoms: N_17  and  C_18
REMARK                            x       y       z     vdW  Elec       q    Type
REMARK                         _______ _______ _______ _____ _____    ______ ____
ROOT
ATOM      1  C   UNL     1       0.836  10.216  19.515  0.00  0.00    +0.000 A 
ATOM      2  C   UNL     1      -0.391  10.286  20.172  0.00  0.00    +0.000 A 
ATOM      3  C   UNL     1      -0.834  11.632  20.145  0.00  0.00    +0.000 A 
ATOM      4  C   UNL     1       0.217  12.387  19.645  0.00  0.00    +0.000 A 
ATOM      5  C   UNL     1       0.483  13.785  19.464  0.00  0.00    +0.000 A 
ATOM      6  N   UNL     1      -0.230  14.802  20.024  0.00  0.00    +0.000 N 
ATOM      7  N   UNL     1       1.502  14.140  18.742  0.00  0.00    +0.000 NA
ATOM      8  C   UNL     1       2.330  13.172  18.245  0.00  0.00    +0.000 A 
ATOM      9  N   UNL     1       2.238  11.897  18.444  0.00  0.00    +0.000 NA
ATOM     10  N   UNL     1       1.173  11.519  19.184  0.00  0.00    +0.000 N 
ATOM     11  H   UNL     1      -1.100  14.616  20.493  0.00  0.00    +0.000 HD
ATOM     12  H   UNL     1      -0.133  15.699  19.564  0.00  0.00    +0.000 HD
ENDROOT
BRANCH   1  17
ATOM     13  C   UNL     1       2.429   6.778  19.595  0.00  0.00    +0.000 A 
ATOM     14  C   UNL     1       2.995   6.710  18.323  0.00  0.00    +0.000 A 
ATOM     15  C   UNL     1       2.875   7.785  17.442  0.00  0.00    +0.000 A 
ATOM     16  C   UNL     1       2.194   8.939  17.829  0.00  0.00    +0.000 A 
ATOM     17  C   UNL     1       1.600   9.028  19.094  0.00  0.00    +0.000 A 
ATOM     18  C   UNL     1       1.722   7.932  19.965  0.00  0.00    +0.000 A 
BRANCH  13  22
ATOM     19  C   UNL     1       2.098   3.653  21.676  0.00  0.00    +0.000 C 
ATOM     20  C   UNL     1       1.883   4.494  20.444  0.00  0.00    +0.000 C 
ATOM     21  O   UNL     1       1.219   4.070  19.505  0.00  0.00    +0.000 OA
ATOM     22  N   UNL     1       2.502   5.728  20.535  0.00  0.00    +0.000 N 
ATOM     23  H   UNL     1       3.128   5.871  21.317  0.00  0.00    +0.000 HD
ENDBRANCH  13  22
ENDBRANCH   1  17
BRANCH   3  24
ATOM     24  C   UNL     1      -2.219  12.115  20.432  0.00  0.00    +0.000 A 
ATOM     25  C   UNL     1      -3.144  12.375  19.440  0.00  0.00    +0.000 A 
ATOM     26  C   UNL     1      -4.328  12.712  20.099  0.00  0.00    +0.000 A 
ATOM     27  N   UNL     1      -4.196  12.626  21.416  0.00  0.00    +0.000 NA
ATOM     28  N   UNL     1      -2.907  12.266  21.623  0.00  0.00    +0.000 N 
BRANCH  28  29
ATOM     29  C   UNL     1      -2.418  12.256  23.006  0.00  0.00    +0.000 C 
ATOM     30  C   UNL     1      -1.302  13.292  23.252  0.00  0.00    +0.000 C 
ATOM     31  C   UNL     1      -1.793  14.741  23.342  0.00  0.00    +0.000 C 
ATOM     32  C   UNL     1      -2.981  14.925  24.283  0.00  0.00    +0.000 C 
ATOM     33  C   UNL     1      -4.074  13.869  24.136  0.00  0.00    +0.000 C 
ATOM     34  C   UNL     1      -3.527  12.441  24.057  0.00  0.00    +0.000 C 
ENDBRANCH  28  29
ENDBRANCH   3  24
TORSDOF 4
ENDMDL
MODEL 5
REMARK VINA RESULT:      -8.9      3.717      6.714
REMARK  Name = 
REMARK  5 active torsions:
REMARK  status: ('A' for Active; 'I' for Inactive)
REMARK    1  A    between atoms: C_1  and  C_2
REMARK    2  A    between atoms: N_4  and  C_5
REMARK    3  A    between atoms: C_9  and  C_10
REMARK    4  A    between atoms: C_12  and  C_13
REMARK    5  A    between atoms: N_17  and  C_18
REMARK                            x       y       z     vdW  Elec       q    Type
REMARK                         _______ _______ _______ _____ _____    ______ ____
ROOT
ATOM      1  C   UNL     1       1.380   9.418  19.455  0.00  0.00    +0.000 A 
ATOM      2  C   UNL     1       1.154  10.564  18.698  0.00  0.00    +0.000 A 
ATOM      3  C   UNL     1       0.606  11.558  19.547  0.00  0.00    +0.000 A 
ATOM      4  C   UNL     1       0.328  10.939  20.757  0.00  0.00    +0.000 A 
ATOM      5  C   UNL     1      -0.320  11.317  21.980  0.00  0.00    +0.000 A 
ATOM      6  N   UNL     1      -1.100  12.421  22.150  0.00  0.00    +0.000 N 
ATOM      7  N   UNL     1      -0.203  10.542  23.015  0.00  0.00    +0.000 NA
ATOM      8  C   UNL     1       0.468   9.358  22.884  0.00  0.00    +0.000 A 
ATOM      9  N   UNL     1       0.989   8.880  21.801  0.00  0.00    +0.000 NA
ATOM     10  N   UNL     1       0.882   9.686  20.721  0.00  0.00    +0.000 N 
ATOM     11  H   UNL     1      -1.140  13.130  21.439  0.00  0.00    +0.000 HD
ATOM     12  H   UNL     1      -1.216  12.721  23.111  0.00  0.00    +0.000 HD
ENDROOT
BRANCH   1  17
ATOM     13  C   UNL     1       2.772   5.898  19.644  0.00  0.00    +0.000 A 
ATOM     14  C   UNL     1       3.465   5.814  18.437  0.00  0.00    +0.000 A 
ATOM     15  C   UNL     1       3.495   6.903  17.567  0.00  0.00    +0.000 A 
ATOM     16  C   UNL     1       2.839   8.088  17.899  0.00  0.00    +0.000 A 
ATOM     17  C   UNL     1       2.120   8.195  19.096  0.00  0.00    +0.000 A 
ATOM     18  C   UNL     1       2.093   7.085  19.958  0.00  0.00    +0.000 A 
BRANCH  13  22
ATOM     19  C   UNL     1       1.868   2.961  21.826  0.00  0.00    +0.000 C 
ATOM     20  C   UNL     1       1.683   3.892  20.656  0.00  0.00    +0.000 C 
ATOM     21  O   UNL     1       0.721   3.769  19.905  0.00  0.00    +0.000 OA
ATOM     22  N   UNL     1       2.691   4.836  20.569  0.00  0.00    +0.000 N 
ATOM     23  H   UNL     1       3.486   4.715  21.183  0.00  0.00    +0.000 HD
ENDBRANCH  13  22
ENDBRANCH   1  17
BRANCH   3  24
ATOM     24  C   UNL     1       0.510  13.021  19.254  0.00  0.00    +0.000 A 
ATOM     25  C   UNL     1      -0.671  13.638  18.889  0.00  0.00    +0.000 A 
ATOM     26  C   UNL     1      -0.378  14.999  18.793  0.00  0.00    +0.000 A 
ATOM     27  N   UNL     1       0.881  15.253  19.121  0.00  0.00    +0.000 NA
ATOM     28  N   UNL     1       1.428  14.046  19.399  0.00  0.00    +0.000 N 
BRANCH  28  29
ATOM     29  C   UNL     1       2.876  13.992  19.634  0.00  0.00    +0.000 C 
ATOM     30  C   UNL     1       3.692  13.962  18.325  0.00  0.00    +0.000 C 
ATOM     31  C   UNL     1       3.769  15.306  17.596  0.00  0.00    +0.000 C 
ATOM     32  C   UNL     1       4.161  16.471  18.503  0.00  0.00    +0.000 C 
ATOM     33  C   UNL     1       3.441  16.493  19.849  0.00  0.00    +0.000 C 
ATOM     34  C   UNL     1       3.399  15.125  20.535  0.00  0.00    +0.000 C 
ENDBRANCH  28  29
ENDBRANCH   3  24
TORSDOF 4
ENDMDL
MODEL 6
REMARK VINA RESULT:      -8.8      3.968      6.979
REMARK  Name = 
REMARK  5 active torsions:
REMARK  status: ('A' for Active; 'I' for Inactive)
REMARK    1  A    between atoms: C_1  and  C_2
REMARK    2  A    between atoms: N_4  and  C_5
REMARK    3  A    between atoms: C_9  and  C_10
REMARK    4  A    between atoms: C_12  and  C_13
REMARK    5  A    between atoms: N_17  and  C_18
REMARK                            x       y       z     vdW  Elec       q    Type
REMARK                         _______ _______ _______ _____ _____    ______ ____
ROOT
ATOM      1  C   UNL     1       0.727   9.851  19.435  0.00  0.00    +0.000 A 
ATOM      2  C   UNL     1       0.741  10.682  20.552  0.00  0.00    +0.000 A 
ATOM      3  C   UNL     1      -0.467  11.423  20.572  0.00  0.00    +0.000 A 
ATOM      4  C   UNL     1      -1.107  11.173  19.367  0.00  0.00    +0.000 A 
ATOM      5  C   UNL     1      -2.278  11.670  18.702  0.00  0.00    +0.000 A 
ATOM      6  N   UNL     1      -2.965  12.793  19.050  0.00  0.00    +0.000 N 
ATOM      7  N   UNL     1      -2.719  11.038  17.657  0.00  0.00    +0.000 NA
ATOM      8  C   UNL     1      -2.011   9.969  17.181  0.00  0.00    +0.000 A 
ATOM      9  N   UNL     1      -0.891   9.515  17.643  0.00  0.00    +0.000 NA
ATOM     10  N   UNL     1      -0.431  10.160  18.737  0.00  0.00    +0.000 N 
ATOM     11  H   UNL     1      -2.762  13.267  19.914  0.00  0.00    +0.000 HD
ATOM     12  H   UNL     1      -3.918  12.837  18.710  0.00  0.00    +0.000 HD
ENDROOT
BRANCH   1  17
ATOM     13  C   UNL     1       2.591   6.557  19.623  0.00  0.00    +0.000 A 
ATOM     14  C   UNL     1       3.318   6.586  18.434  0.00  0.00    +0.000 A 
ATOM     15  C   UNL     1       3.217   7.680  17.575  0.00  0.00    +0.000 A 
ATOM     16  C   UNL     1       2.394   8.758  17.903  0.00  0.00    +0.000 A 
ATOM     17  C   UNL     1       1.639   8.748  19.082  0.00  0.00    +0.000 A 
ATOM     18  C   UNL     1       1.745   7.633  19.931  0.00  0.00    +0.000 A 
BRANCH  13  22
ATOM     19  C   UNL     1       2.103   3.442  21.688  0.00  0.00    +0.000 C 
ATOM     20  C   UNL     1       1.858   4.337  20.501  0.00  0.00    +0.000 C 
ATOM     21  O   UNL     1       1.043   4.025  19.640  0.00  0.00    +0.000 OA
ATOM     22  N   UNL     1       2.636   5.481  20.535  0.00  0.00    +0.000 N 
ATOM     23  H   UNL     1       3.359   5.523  21.241  0.00  0.00    +0.000 HD
ENDBRANCH  13  22
ENDBRANCH   1  17
BRANCH   3  24
ATOM     24  C   UNL     1      -1.023  12.183  21.733  0.00  0.00    +0.000 A 
ATOM     25  C   UNL     1      -1.565  11.565  22.843  0.00  0.00    +0.000 A 
ATOM     26  C   UNL     1      -1.884  12.591  23.734  0.00  0.00    +0.000 A 
ATOM     27  N   UNL     1      -1.528  13.778  23.262  0.00  0.00    +0.000 NA
ATOM     28  N   UNL     1      -1.005  13.532  22.037  0.00  0.00    +0.000 N 
BRANCH  28  29
ATOM     29  C   UNL     1      -0.674  14.687  21.194  0.00  0.00    +0.000 C 
ATOM     30  C   UNL     1      -0.510  15.990  22.005  0.00  0.00    +0.000 C 
ATOM     31  C   UNL     1       0.798  16.080  22.798  0.00  0.00    +0.000 C 
ATOM     32  C   UNL     1       2.037  15.745  21.973  0.00  0.00    +0.000 C 
ATOM     33  C   UNL     1       1.890  14.510  21.086  0.00  0.00    +0.000 C 
ATOM     34  C   UNL     1       0.570  14.475  20.313  0.00  0.00    +0.000 C 
ENDBRANCH  28  29
ENDBRANCH   3  24
TORSDOF 4
ENDMDL
MODEL 7
REMARK VINA RESULT:      -8.5      6.979     11.081
REMARK  Name = 
REMARK  5 active torsions:
REMARK  status: ('A' for Active; 'I' for Inactive)
REMARK    1  A    between atoms: C_1  and  C_2
REMARK    2  A    between atoms: N_4  and  C_5
REMARK    3  A    between atoms: C_9  and  C_10
REMARK    4  A    between atoms: C_12  and  C_13
REMARK    5  A    between atoms: N_17  and  C_18
REMARK                            x       y       z     vdW  Elec       q    Type
REMARK                         _______ _______ _______ _____ _____    ______ ____
ROOT
ATOM      1  C   UNL     1       4.900  15.020  19.236  0.00  0.00    +0.000 A 
ATOM      2  C   UNL     1       5.886  15.305  18.295  0.00  0.00    +0.000 A 
ATOM      3  C   UNL     1       7.142  15.304  18.952  0.00  0.00    +0.000 A 
ATOM      4  C   UNL     1       6.880  15.209  20.311  0.00  0.00    +0.000 A 
ATOM      5  C   UNL     1       7.660  15.267  21.514  0.00  0.00    +0.000 A 
ATOM      6  N   UNL     1       8.945  15.712  21.600  0.00  0.00    +0.000 N 
ATOM      7  N   UNL     1       7.110  14.908  22.634  0.00  0.00    +0.000 NA
ATOM      8  C   UNL     1       5.787  14.561  22.641  0.00  0.00    +0.000 A 
ATOM      9  N   UNL     1       4.976  14.583  21.633  0.00  0.00    +0.000 NA
ATOM     10  N   UNL     1       5.544  14.945  20.462  0.00  0.00    +0.000 N 
ATOM     11  H   UNL     1       9.478  15.891  20.767  0.00  0.00    +0.000 HD
ATOM     12  H   UNL     1       9.453  15.400  22.419  0.00  0.00    +0.000 HD
ENDROOT
BRANCH   1  17
ATOM     13  C   UNL     1       1.757  13.068  18.412  0.00  0.00    +0.000 A 
ATOM     14  C   UNL     1       0.770  14.020  18.666  0.00  0.00    +0.000 A 
ATOM     15  C   UNL     1       1.122  15.301  19.090  0.00  0.00    +0.000 A 
ATOM     16  C   UNL     1       2.465  15.643  19.257  0.00  0.00    +0.000 A 
ATOM     17  C   UNL     1       3.476  14.702  19.026  0.00  0.00    +0.000 A 
ATOM     18  C   UNL     1       3.103  13.413  18.608  0.00  0.00    +0.000 A 
BRANCH  13  22
ATOM     19  C   UNL     1       1.032   9.391  18.016  0.00  0.00    +0.000 C 
ATOM     20  C   UNL     1       1.181  10.669  18.799  0.00  0.00    +0.000 C 
ATOM     21  O   UNL     1       1.044  10.677  20.017  0.00  0.00    +0.000 OA
ATOM     22  N   UNL     1       1.476  11.752  17.989  0.00  0.00    +0.000 N 
ATOM     23  H   UNL     1       1.418  11.606  16.989  0.00  0.00    +0.000 HD
ENDBRANCH  13  22
ENDBRANCH   1  17
BRANCH   3  24
ATOM     24  C   UNL     1       8.485  15.239  18.297  0.00  0.00    +0.000 A 
ATOM     25  C   UNL     1       9.113  16.348  17.764  0.00  0.00    +0.000 A 
ATOM     26  C   UNL     1      10.366  15.907  17.335  0.00  0.00    +0.000 A 
ATOM     27  N   UNL     1      10.557  14.625  17.615  0.00  0.00    +0.000 NA
ATOM     28  N   UNL     1       9.407  14.213  18.200  0.00  0.00    +0.000 N 
BRANCH  28  29
ATOM     29  C   UNL     1       9.258  12.778  18.471  0.00  0.00    +0.000 C 
ATOM     30  C   UNL     1      10.277  11.916  17.699  0.00  0.00    +0.000 C 
ATOM     31  C   UNL     1      11.701  11.965  18.260  0.00  0.00    +0.000 C 
ATOM     32  C   UNL     1      11.770  11.743  19.770  0.00  0.00    +0.000 C 
ATOM     33  C   UNL     1      10.721  12.511  20.570  0.00  0.00    +0.000 C 
ATOM     34  C   UNL     1       9.317  12.422  19.968  0.00  0.00    +0.000 C 
ENDBRANCH  28  29
ENDBRANCH   3  24
TORSDOF 4
ENDMDL
MODEL 8
REMARK VINA RESULT:      -8.5      3.884      6.805
REMARK  Name = 
REMARK  5 active torsions:
REMARK  status: ('A' for Active; 'I' for Inactive)
REMARK    1  A    between atoms: C_1  and  C_2
REMARK    2  A    between atoms: N_4  and  C_5
REMARK    3  A    between atoms: C_9  and  C_10
REMARK    4  A    between atoms: C_12  and  C_13
REMARK    5  A    between atoms: N_17  and  C_18
REMARK                            x       y       z     vdW  Elec       q    Type
REMARK                         _______ _______ _______ _____ _____    ______ ____
ROOT
ATOM      1  C   UNL     1       0.916   9.650  19.747  0.00  0.00    +0.000 A 
ATOM      2  C   UNL     1       0.467  10.787  19.081  0.00  0.00    +0.000 A 
ATOM      3  C   UNL     1      -0.101  11.667  20.035  0.00  0.00    +0.000 A 
ATOM      4  C   UNL     1      -0.163  10.969  21.233  0.00  0.00    +0.000 A 
ATOM      5  C   UNL     1      -0.712  11.211  22.536  0.00  0.00    +0.000 A 
ATOM      6  N   UNL     1      -1.598  12.198  22.848  0.00  0.00    +0.000 N 
ATOM      7  N   UNL     1      -0.385  10.417  23.510  0.00  0.00    +0.000 NA
ATOM      8  C   UNL     1       0.408   9.335  23.245  0.00  0.00    +0.000 A 
ATOM      9  N   UNL     1       0.860   8.972  22.088  0.00  0.00    +0.000 NA
ATOM     10  N   UNL     1       0.534   9.800  21.072  0.00  0.00    +0.000 N 
ATOM     11  H   UNL     1      -1.805  12.924  22.184  0.00  0.00    +0.000 HD
ATOM     12  H   UNL     1      -1.642  12.441  23.831  0.00  0.00    +0.000 HD
ENDROOT
BRANCH   1  17
ATOM     13  C   UNL     1       2.698   6.309  19.572  0.00  0.00    +0.000 A 
ATOM     14  C   UNL     1       3.301   6.388  18.317  0.00  0.00    +0.000 A 
ATOM     15  C   UNL     1       3.144   7.529  17.532  0.00  0.00    +0.000 A 
ATOM     16  C   UNL     1       2.389   8.606  17.998  0.00  0.00    +0.000 A 
ATOM     17  C   UNL     1       1.757   8.548  19.246  0.00  0.00    +0.000 A 
ATOM     18  C   UNL     1       1.918   7.386  20.021  0.00  0.00    +0.000 A 
BRANCH  13  22
ATOM     19  C   UNL     1       2.259   3.206  21.664  0.00  0.00    +0.000 C 
ATOM     20  C   UNL     1       1.846   4.208  20.617  0.00  0.00    +0.000 C 
ATOM     21  O   UNL     1       0.765   4.109  20.047  0.00  0.00    +0.000 OA
ATOM     22  N   UNL     1       2.806   5.185  20.417  0.00  0.00    +0.000 N 
ATOM     23  H   UNL     1       3.702   5.046  20.865  0.00  0.00    +0.000 HD
ENDBRANCH  13  22
ENDBRANCH   1  17
BRANCH   3  24
ATOM     24  C   UNL     1      -0.409  13.116  19.833  0.00  0.00    +0.000 A 
ATOM     25  C   UNL     1      -1.644  13.668  20.118  0.00  0.00    +0.000 A 
ATOM     26  C   UNL     1      -1.512  15.038  19.889  0.00  0.00    +0.000 A 
ATOM     27  N   UNL     1      -0.274  15.359  19.535  0.00  0.00    +0.000 NA
ATOM     28  N   UNL     1       0.401  14.185  19.496  0.00  0.00    +0.000 N 
BRANCH  28  29
ATOM     29  C   UNL     1       1.769  14.205  18.966  0.00  0.00    +0.000 C 
ATOM     30  C   UNL     1       2.252  15.628  18.615  0.00  0.00    +0.000 C 
ATOM     31  C   UNL     1       2.615  16.490  19.828  0.00  0.00    +0.000 C 
ATOM     32  C   UNL     1       3.536  15.787  20.823  0.00  0.00    +0.000 C 
ATOM     33  C   UNL     1       3.145  14.344  21.135  0.00  0.00    +0.000 C 
ATOM     34  C   UNL     1       2.800  13.529  19.887  0.00  0.00    +0.000 C 
ENDBRANCH  28  29
ENDBRANCH   3  24
TORSDOF 4
ENDMDL
MODEL 9
REMARK VINA RESULT:      -8.4      3.887      7.129
REMARK  Name = 
REMARK  5 active torsions:
REMARK  status: ('A' for Active; 'I' for Inactive)
REMARK    1  A    between atoms: C_1  and  C_2
REMARK    2  A    between atoms: N_4  and  C_5
REMARK    3  A    between atoms: C_9  and  C_10
REMARK    4  A    between atoms: C_12  and  C_13
REMARK    5  A    between atoms: N_17  and  C_18
REMARK                            x       y       z     vdW  Elec       q    Type
REMARK                         _______ _______ _______ _____ _____    ______ ____
ROOT
ATOM      1  C   UNL     1       1.052   9.981  19.259  0.00  0.00    +0.000 A 
ATOM      2  C   UNL     1      -0.206  10.095  19.845  0.00  0.00    +0.000 A 
ATOM      3  C   UNL     1      -0.632  11.442  19.729  0.00  0.00    +0.000 A 
ATOM      4  C   UNL     1       0.452  12.161  19.247  0.00  0.00    +0.000 A 
ATOM      5  C   UNL     1       0.743  13.547  19.012  0.00  0.00    +0.000 A 
ATOM      6  N   UNL     1       0.014  14.596  19.483  0.00  0.00    +0.000 N 
ATOM      7  N   UNL     1       1.803  13.855  18.328  0.00  0.00    +0.000 NA
ATOM      8  C   UNL     1       2.645  12.856  17.923  0.00  0.00    +0.000 A 
ATOM      9  N   UNL     1       2.528  11.594  18.180  0.00  0.00    +0.000 NA
ATOM     10  N   UNL     1       1.421  11.263  18.882  0.00  0.00    +0.000 N 
ATOM     11  H   UNL     1      -0.881  14.442  19.913  0.00  0.00    +0.000 HD
ATOM     12  H   UNL     1       0.145  15.469  18.984  0.00  0.00    +0.000 HD
ENDROOT
BRANCH   1  17
ATOM     13  C   UNL     1       2.572   6.524  19.578  0.00  0.00    +0.000 A 
ATOM     14  C   UNL     1       3.229   6.401  18.354  0.00  0.00    +0.000 A 
ATOM     15  C   UNL     1       3.193   7.444  17.430  0.00  0.00    +0.000 A 
ATOM     16  C   UNL     1       2.507   8.622  17.724  0.00  0.00    +0.000 A 
ATOM     17  C   UNL     1       1.823   8.767  18.937  0.00  0.00    +0.000 A 
ATOM     18  C   UNL     1       1.861   7.702  19.854  0.00  0.00    +0.000 A 
BRANCH  13  22
ATOM     19  C   UNL     1       2.004   3.501  21.757  0.00  0.00    +0.000 C 
ATOM     20  C   UNL     1       1.877   4.305  20.488  0.00  0.00    +0.000 C 
ATOM     21  O   UNL     1       1.226   3.879  19.540  0.00  0.00    +0.000 OA
ATOM     22  N   UNL     1       2.557   5.508  20.557  0.00  0.00    +0.000 N 
ATOM     23  H   UNL     1       3.160   5.649  21.357  0.00  0.00    +0.000 HD
ENDBRANCH  13  22
ENDBRANCH   1  17
BRANCH   3  24
ATOM     24  C   UNL     1      -2.025  11.952  19.919  0.00  0.00    +0.000 A 
ATOM     25  C   UNL     1      -2.323  13.041  20.714  0.00  0.00    +0.000 A 
ATOM     26  C   UNL     1      -3.693  13.259  20.565  0.00  0.00    +0.000 A 
ATOM     27  N   UNL     1      -4.233  12.412  19.700  0.00  0.00    +0.000 NA
ATOM     28  N   UNL     1      -3.216  11.608  19.306  0.00  0.00    +0.000 N 
BRANCH  28  29
ATOM     29  C   UNL     1      -3.550  10.452  18.466  0.00  0.00    +0.000 C 
ATOM     30  C   UNL     1      -4.891  10.621  17.722  0.00  0.00    +0.000 C 
ATOM     31  C   UNL     1      -4.836  11.584  16.532  0.00  0.00    +0.000 C 
ATOM     32  C   UNL     1      -3.671  11.316  15.583  0.00  0.00    +0.000 C 
ATOM     33  C   UNL     1      -2.337  11.055  16.279  0.00  0.00    +0.000 C 
ATOM     34  C   UNL     1      -2.449  10.083  17.455  0.00  0.00    +0.000 C 
ENDBRANCH  28  29
ENDBRANCH   3  24
TORSDOF 4
ENDMDL
