MODEL 1
REMARK VINA RESULT:      -7.9      0.000      0.000
REMARK  Name = 
REMARK  8 active torsions:
REMARK  status: ('A' for Active; 'I' for Inactive)
REMARK    1  A    between atoms: C_1  and  C_2
REMARK    2  A    between atoms: C_6  and  N_7
REMARK    3  A    between atoms: N_10  and  C_11
REMARK    4  A    between atoms: C_11  and  C_12
REMARK    5  A    between atoms: C_12  and  C_13
REMARK    6  A    between atoms: C_13  and  C_14
REMARK    7  A    between atoms: C_14  and  N_15
REMARK    8  A    between atoms: C_16  and  C_18
REMARK                            x       y       z     vdW  Elec       q    Type
REMARK                         _______ _______ _______ _____ _____    ______ ____
ROOT
ATOM      1  C   UNL     1       7.278   6.789  16.784  0.00  0.00    +0.000 C 
ENDROOT
BRANCH   1   5
ATOM      2  N   UNL     1       5.015   4.025  17.709  0.00  0.00    +0.000 N 
ATOM      3  C   UNL     1       5.818   4.773  18.676  0.00  0.00    +0.000 C 
ATOM      4  C   UNL     1       7.280   4.765  18.174  0.00  0.00    +0.000 C 
ATOM      5  N   UNL     1       7.471   5.332  16.813  0.00  0.00    +0.000 NA
ATOM      6  C   UNL     1       6.536   4.644  15.883  0.00  0.00    +0.000 C 
ATOM      7  C   UNL     1       5.057   4.578  16.349  0.00  0.00    +0.000 C 
BRANCH   2  13
ATOM      8  C   UNL     1       1.150   4.540  20.502  0.00  0.00    +0.000 C 
ATOM      9  C   UNL     1       1.962   3.680  19.584  0.00  0.00    +0.000 A 
ATOM     10  C   UNL     1       1.596   2.363  19.336  0.00  0.00    +0.000 A 
ATOM     11  C   UNL     1       2.364   1.617  18.456  0.00  0.00    +0.000 A 
ATOM     12  C   UNL     1       3.471   2.207  17.859  0.00  0.00    +0.000 A 
ATOM     13  C   UNL     1       3.809   3.523  18.172  0.00  0.00    +0.000 A 
ATOM     14  N   UNL     1       3.055   4.253  19.022  0.00  0.00    +0.000 NA
ENDBRANCH   2  13
ENDBRANCH   1   5
BRANCH   1  15
ATOM     15  C   UNL     1       7.841   7.489  18.033  0.00  0.00    +0.000 C 
BRANCH  15  16
ATOM     16  C   UNL     1       8.086   8.992  17.856  0.00  0.00    +0.000 C 
BRANCH  16  17
ATOM     17  C   UNL     1       8.945   9.563  18.975  0.00  0.00    +0.000 C 
BRANCH  17  18
ATOM     18  N   UNL     1       9.614  10.781  18.600  0.00  0.00    +0.000 N 
ATOM     19  C   UNL     1      10.081  11.645  19.569  0.00  0.00    +0.000 C 
ATOM     20  O   UNL     1      10.021  11.417  20.771  0.00  0.00    +0.000 OA
ATOM     21  H   UNL     1       9.548  11.151  17.654  0.00  0.00    +0.000 HD
BRANCH  19  22
ATOM     22  C   UNL     1      10.677  12.919  19.053  0.00  0.00    +0.000 A 
ATOM     23  C   UNL     1      11.733  13.499  19.742  0.00  0.00    +0.000 A 
ATOM     24  C   UNL     1      12.308  14.653  19.214  0.00  0.00    +0.000 A 
ATOM     25  C   UNL     1      11.809  15.174  18.026  0.00  0.00    +0.000 A 
ATOM     26  C   UNL     1      10.743  14.531  17.412  0.00  0.00    +0.000 A 
ATOM     27  N   UNL     1      10.150  13.418  17.897  0.00  0.00    +0.000 NA
ENDBRANCH  19  22
ENDBRANCH  17  18
ENDBRANCH  16  17
ENDBRANCH  15  16
ENDBRANCH   1  15
TORSDOF 7
ENDMDL
MODEL 2
REMARK VINA RESULT:      -7.9      1.471      1.791
REMARK  Name = 
REMARK  8 active torsions:
REMARK  status: ('A' for Active; 'I' for Inactive)
REMARK    1  A    between atoms: C_1  and  C_2
REMARK    2  A    between atoms: C_6  and  N_7
REMARK    3  A    between atoms: N_10  and  C_11
REMARK    4  A    between atoms: C_11  and  C_12
REMARK    5  A    between atoms: C_12  and  C_13
REMARK    6  A    between atoms: C_13  and  C_14
REMARK    7  A    between atoms: C_14  and  N_15
REMARK    8  A    between atoms: C_16  and  C_18
REMARK                            x       y       z     vdW  Elec       q    Type
REMARK                         _______ _______ _______ _____ _____    ______ ____
ROOT
ATOM      1  C   UNL     1       7.442   6.800  16.961  0.00  0.00    +0.000 C 
ENDROOT
BRANCH   1   5
ATOM      2  N   UNL     1       4.863   4.446  18.152  0.00  0.00    +0.000 N 
ATOM      3  C   UNL     1       5.687   5.263  19.042  0.00  0.00    +0.000 C 
ATOM      4  C   UNL     1       7.164   5.038  18.648  0.00  0.00    +0.000 C 
ATOM      5  N   UNL     1       7.483   5.356  17.232  0.00  0.00    +0.000 NA
ATOM      6  C   UNL     1       6.532   4.615  16.360  0.00  0.00    +0.000 C 
ATOM      7  C   UNL     1       5.032   4.763  16.728  0.00  0.00    +0.000 C 
BRANCH   2  13
ATOM      8  C   UNL     1       2.047   2.634  21.586  0.00  0.00    +0.000 C 
ATOM      9  C   UNL     1       2.186   3.183  20.200  0.00  0.00    +0.000 A 
ATOM     10  C   UNL     1       1.093   3.230  19.343  0.00  0.00    +0.000 A 
ATOM     11  C   UNL     1       1.267   3.773  18.079  0.00  0.00    +0.000 A 
ATOM     12  C   UNL     1       2.522   4.244  17.714  0.00  0.00    +0.000 A 
ATOM     13  C   UNL     1       3.589   4.140  18.605  0.00  0.00    +0.000 A 
ATOM     14  N   UNL     1       3.418   3.619  19.840  0.00  0.00    +0.000 NA
ENDBRANCH   2  13
ENDBRANCH   1   5
BRANCH   1  15
ATOM     15  C   UNL     1       8.008   7.638  18.120  0.00  0.00    +0.000 C 
BRANCH  15  16
ATOM     16  C   UNL     1       8.207   9.121  17.785  0.00  0.00    +0.000 C 
BRANCH  16  17
ATOM     17  C   UNL     1       9.103   9.816  18.801  0.00  0.00    +0.000 C 
BRANCH  17  18
ATOM     18  N   UNL     1       8.957  11.248  18.788  0.00  0.00    +0.000 N 
ATOM     19  C   UNL     1       9.888  12.038  18.147  0.00  0.00    +0.000 C 
ATOM     20  O   UNL     1      10.836  11.593  17.511  0.00  0.00    +0.000 OA
ATOM     21  H   UNL     1       8.327  11.721  19.434  0.00  0.00    +0.000 HD
BRANCH  19  22
ATOM     22  C   UNL     1       9.674  13.514  18.283  0.00  0.00    +0.000 A 
ATOM     23  C   UNL     1       8.412  14.038  18.036  0.00  0.00    +0.000 A 
ATOM     24  C   UNL     1       8.222  15.407  18.222  0.00  0.00    +0.000 A 
ATOM     25  C   UNL     1       9.290  16.187  18.646  0.00  0.00    +0.000 A 
ATOM     26  C   UNL     1      10.518  15.576  18.858  0.00  0.00    +0.000 A 
ATOM     27  N   UNL     1      10.748  14.256  18.678  0.00  0.00    +0.000 NA
ENDBRANCH  19  22
ENDBRANCH  17  18
ENDBRANCH  16  17
ENDBRANCH  15  16
ENDBRANCH   1  15
TORSDOF 7
ENDMDL
MODEL 3
REMARK VINA RESULT:      -7.8      1.526      1.762
REMARK  Name = 
REMARK  8 active torsions:
REMARK  status: ('A' for Active; 'I' for Inactive)
REMARK    1  A    between atoms: C_1  and  C_2
REMARK    2  A    between atoms: C_6  and  N_7
REMARK    3  A    between atoms: N_10  and  C_11
REMARK    4  A    between atoms: C_11  and  C_12
REMARK    5  A    between atoms: C_12  and  C_13
REMARK    6  A    between atoms: C_13  and  C_14
REMARK    7  A    between atoms: C_14  and  N_15
REMARK    8  A    between atoms: C_16  and  C_18
REMARK                            x       y       z     vdW  Elec       q    Type
REMARK                         _______ _______ _______ _____ _____    ______ ____
ROOT
ATOM      1  C   UNL     1       7.320   6.908  18.032  0.00  0.00    +0.000 C 
ENDROOT
BRANCH   1   5
ATOM      2  N   UNL     1       4.246   4.868  17.966  0.00  0.00    +0.000 N 
ATOM      3  C   UNL     1       5.539   4.370  18.436  0.00  0.00    +0.000 C 
ATOM      4  C   UNL     1       6.582   4.671  17.336  0.00  0.00    +0.000 C 
ATOM      5  N   UNL     1       6.698   6.107  16.968  0.00  0.00    +0.000 NA
ATOM      6  C   UNL     1       5.340   6.616  16.633  0.00  0.00    +0.000 C 
ATOM      7  C   UNL     1       4.234   6.308  17.676  0.00  0.00    +0.000 C 
BRANCH   2  13
ATOM      8  C   UNL     1       2.133   3.056  21.873  0.00  0.00    +0.000 C 
ATOM      9  C   UNL     1       2.084   3.335  20.402  0.00  0.00    +0.000 A 
ATOM     10  C   UNL     1       1.012   2.902  19.633  0.00  0.00    +0.000 A 
ATOM     11  C   UNL     1       1.000   3.210  18.281  0.00  0.00    +0.000 A 
ATOM     12  C   UNL     1       2.058   3.933  17.745  0.00  0.00    +0.000 A 
ATOM     13  C   UNL     1       3.123   4.312  18.560  0.00  0.00    +0.000 A 
ATOM     14  N   UNL     1       3.131   4.021  19.879  0.00  0.00    +0.000 NA
ENDBRANCH   2  13
ENDBRANCH   1   5
BRANCH   1  15
ATOM     15  C   UNL     1       8.242   8.011  17.484  0.00  0.00    +0.000 C 
BRANCH  15  16
ATOM     16  C   UNL     1       7.869   9.426  17.940  0.00  0.00    +0.000 C 
BRANCH  16  17
ATOM     17  C   UNL     1       9.046  10.142  18.588  0.00  0.00    +0.000 C 
BRANCH  17  18
ATOM     18  N   UNL     1       9.081  11.549  18.285  0.00  0.00    +0.000 N 
ATOM     19  C   UNL     1      10.271  12.158  17.945  0.00  0.00    +0.000 C 
ATOM     20  O   UNL     1      11.332  11.558  17.818  0.00  0.00    +0.000 OA
ATOM     21  H   UNL     1       8.312  12.164  18.541  0.00  0.00    +0.000 HD
BRANCH  19  22
ATOM     22  C   UNL     1      10.192  13.640  17.741  0.00  0.00    +0.000 A 
ATOM     23  C   UNL     1      11.242  14.291  17.108  0.00  0.00    +0.000 A 
ATOM     24  C   UNL     1      11.123  15.661  16.879  0.00  0.00    +0.000 A 
ATOM     25  C   UNL     1       9.968  16.317  17.287  0.00  0.00    +0.000 A 
ATOM     26  C   UNL     1       8.974  15.584  17.922  0.00  0.00    +0.000 A 
ATOM     27  N   UNL     1       9.055  14.259  18.173  0.00  0.00    +0.000 NA
ENDBRANCH  19  22
ENDBRANCH  17  18
ENDBRANCH  16  17
ENDBRANCH  15  16
ENDBRANCH   1  15
TORSDOF 7
ENDMDL
MODEL 4
REMARK VINA RESULT:      -7.8      2.412      3.042
REMARK  Name = 
REMARK  8 active torsions:
REMARK  status: ('A' for Active; 'I' for Inactive)
REMARK    1  A    between atoms: C_1  and  C_2
REMARK    2  A    between atoms: C_6  and  N_7
REMARK    3  A    between atoms: N_10  and  C_11
REMARK    4  A    between atoms: C_11  and  C_12
REMARK    5  A    between atoms: C_12  and  C_13
REMARK    6  A    between atoms: C_13  and  C_14
REMARK    7  A    between atoms: C_14  and  N_15
REMARK    8  A    between atoms: C_16  and  C_18
REMARK                            x       y       z     vdW  Elec       q    Type
REMARK                         _______ _______ _______ _____ _____    ______ ____
ROOT
ATOM      1  C   UNL     1       7.361   7.522  17.496  0.00  0.00    +0.000 C 
ENDROOT
BRANCH   1   5
ATOM      2  N   UNL     1       5.241   4.548  18.019  0.00  0.00    +0.000 N 
ATOM      3  C   UNL     1       6.050   5.161  19.072  0.00  0.00    +0.000 C 
ATOM      4  C   UNL     1       7.492   5.299  18.532  0.00  0.00    +0.000 C 
ATOM      5  N   UNL     1       7.611   6.089  17.278  0.00  0.00    +0.000 NA
ATOM      6  C   UNL     1       6.670   5.522  16.276  0.00  0.00    +0.000 C 
ATOM      7  C   UNL     1       5.212   5.316  16.768  0.00  0.00    +0.000 C 
BRANCH   2  13
ATOM      8  C   UNL     1       2.153   3.512  21.540  0.00  0.00    +0.000 C 
ATOM      9  C   UNL     1       2.595   3.312  20.123  0.00  0.00    +0.000 A 
ATOM     10  C   UNL     1       1.944   2.404  19.298  0.00  0.00    +0.000 A 
ATOM     11  C   UNL     1       2.373   2.276  17.986  0.00  0.00    +0.000 A 
ATOM     12  C   UNL     1       3.437   3.053  17.546  0.00  0.00    +0.000 A 
ATOM     13  C   UNL     1       4.073   3.924  18.429  0.00  0.00    +0.000 A 
ATOM     14  N   UNL     1       3.649   4.056  19.705  0.00  0.00    +0.000 NA
ENDBRANCH   2  13
ENDBRANCH   1   5
BRANCH   1  15
ATOM     15  C   UNL     1       8.422   8.180  18.395  0.00  0.00    +0.000 C 
BRANCH  15  16
ATOM     16  C   UNL     1       8.468   9.710  18.297  0.00  0.00    +0.000 C 
BRANCH  16  17
ATOM     17  C   UNL     1       9.608  10.296  19.118  0.00  0.00    +0.000 C 
BRANCH  17  18
ATOM     18  N   UNL     1       9.179  10.781  20.404  0.00  0.00    +0.000 N 
ATOM     19  C   UNL     1       9.135  12.136  20.658  0.00  0.00    +0.000 C 
ATOM     20  O   UNL     1       9.385  12.994  19.821  0.00  0.00    +0.000 OA
ATOM     21  H   UNL     1       9.134  10.164  21.213  0.00  0.00    +0.000 HD
BRANCH  19  22
ATOM     22  C   UNL     1       8.759  12.509  22.059  0.00  0.00    +0.000 A 
ATOM     23  C   UNL     1       8.302  11.522  22.922  0.00  0.00    +0.000 A 
ATOM     24  C   UNL     1       8.011  11.881  24.236  0.00  0.00    +0.000 A 
ATOM     25  C   UNL     1       8.191  13.201  24.632  0.00  0.00    +0.000 A 
ATOM     26  C   UNL     1       8.643  14.122  23.697  0.00  0.00    +0.000 A 
ATOM     27  N   UNL     1       8.925  13.817  22.411  0.00  0.00    +0.000 NA
ENDBRANCH  19  22
ENDBRANCH  17  18
ENDBRANCH  16  17
ENDBRANCH  15  16
ENDBRANCH   1  15
TORSDOF 7
ENDMDL
MODEL 5
REMARK VINA RESULT:      -7.7      4.904      8.276
REMARK  Name = 
REMARK  8 active torsions:
REMARK  status: ('A' for Active; 'I' for Inactive)
REMARK    1  A    between atoms: C_1  and  C_2
REMARK    2  A    between atoms: C_6  and  N_7
REMARK    3  A    between atoms: N_10  and  C_11
REMARK    4  A    between atoms: C_11  and  C_12
REMARK    5  A    between atoms: C_12  and  C_13
REMARK    6  A    between atoms: C_13  and  C_14
REMARK    7  A    between atoms: C_14  and  N_15
REMARK    8  A    between atoms: C_16  and  C_18
REMARK                            x       y       z     vdW  Elec       q    Type
REMARK                         _______ _______ _______ _____ _____    ______ ____
ROOT
ATOM      1  C   UNL     1       1.307   3.198  19.508  0.00  0.00    +0.000 C 
ENDROOT
BRANCH   1   5
ATOM      2  N   UNL     1       4.482   3.366  17.636  0.00  0.00    +0.000 N 
ATOM      3  C   UNL     1       3.168   3.303  16.998  0.00  0.00    +0.000 C 
ATOM      4  C   UNL     1       2.410   2.102  17.607  0.00  0.00    +0.000 C 
ATOM      5  N   UNL     1       2.252   2.154  19.085  0.00  0.00    +0.000 NA
ATOM      6  C   UNL     1       3.594   2.361  19.693  0.00  0.00    +0.000 C 
ATOM      7  C   UNL     1       4.426   3.526  19.095  0.00  0.00    +0.000 C 
BRANCH   2  13
ATOM      8  C   UNL     1       7.512   7.076  17.387  0.00  0.00    +0.000 C 
ATOM      9  C   UNL     1       6.887   5.886  16.728  0.00  0.00    +0.000 A 
ATOM     10  C   UNL     1       7.171   5.577  15.403  0.00  0.00    +0.000 A 
ATOM     11  C   UNL     1       6.589   4.448  14.847  0.00  0.00    +0.000 A 
ATOM     12  C   UNL     1       5.742   3.672  15.628  0.00  0.00    +0.000 A 
ATOM     13  C   UNL     1       5.468   4.050  16.942  0.00  0.00    +0.000 A 
ATOM     14  N   UNL     1       6.043   5.144  17.487  0.00  0.00    +0.000 NA
ENDBRANCH   2  13
ENDBRANCH   1   5
BRANCH   1  15
ATOM     15  C   UNL     1       1.335   3.445  21.026  0.00  0.00    +0.000 C 
BRANCH  15  16
ATOM     16  C   UNL     1       2.176   4.655  21.451  0.00  0.00    +0.000 C 
BRANCH  16  17
ATOM     17  C   UNL     1       2.020   5.821  20.485  0.00  0.00    +0.000 C 
BRANCH  17  18
ATOM     18  N   UNL     1       1.285   6.921  21.052  0.00  0.00    +0.000 N 
ATOM     19  C   UNL     1       1.330   8.167  20.459  0.00  0.00    +0.000 C 
ATOM     20  O   UNL     1       1.922   8.402  19.413  0.00  0.00    +0.000 OA
ATOM     21  H   UNL     1       0.926   6.883  22.003  0.00  0.00    +0.000 HD
BRANCH  19  22
ATOM     22  C   UNL     1       0.598   9.247  21.193  0.00  0.00    +0.000 A 
ATOM     23  C   UNL     1       0.009   8.954  22.415  0.00  0.00    +0.000 A 
ATOM     24  C   UNL     1      -0.620   9.988  23.107  0.00  0.00    +0.000 A 
ATOM     25  C   UNL     1      -0.631  11.263  22.554  0.00  0.00    +0.000 A 
ATOM     26  C   UNL     1      -0.024  11.460  21.321  0.00  0.00    +0.000 A 
ATOM     27  N   UNL     1       0.585  10.483  20.614  0.00  0.00    +0.000 NA
ENDBRANCH  19  22
ENDBRANCH  17  18
ENDBRANCH  16  17
ENDBRANCH  15  16
ENDBRANCH   1  15
TORSDOF 7
ENDMDL
MODEL 6
REMARK VINA RESULT:      -7.6      4.869      7.915
REMARK  Name = 
REMARK  8 active torsions:
REMARK  status: ('A' for Active; 'I' for Inactive)
REMARK    1  A    between atoms: C_1  and  C_2
REMARK    2  A    between atoms: C_6  and  N_7
REMARK    3  A    between atoms: N_10  and  C_11
REMARK    4  A    between atoms: C_11  and  C_12
REMARK    5  A    between atoms: C_12  and  C_13
REMARK    6  A    between atoms: C_13  and  C_14
REMARK    7  A    between atoms: C_14  and  N_15
REMARK    8  A    between atoms: C_16  and  C_18
REMARK                            x       y       z     vdW  Elec       q    Type
REMARK                         _______ _______ _______ _____ _____    ______ ____
ROOT
ATOM      1  C   UNL     1       1.736   4.796  18.071  0.00  0.00    +0.000 C 
ENDROOT
BRANCH   1   5
ATOM      2  N   UNL     1       1.778   8.036  19.837  0.00  0.00    +0.000 N 
ATOM      3  C   UNL     1       1.931   7.900  18.388  0.00  0.00    +0.000 C 
ATOM      4  C   UNL     1       3.053   6.868  18.132  0.00  0.00    +0.000 C 
ATOM      5  N   UNL     1       2.817   5.533  18.742  0.00  0.00    +0.000 NA
ATOM      6  C   UNL     1       2.525   5.723  20.188  0.00  0.00    +0.000 C 
ATOM      7  C   UNL     1       1.438   6.780  20.518  0.00  0.00    +0.000 C 
BRANCH   2  13
ATOM      8  C   UNL     1      -0.808  10.313  23.173  0.00  0.00    +0.000 C 
ATOM      9  C   UNL     1      -0.155  10.330  21.825  0.00  0.00    +0.000 A 
ATOM     10  C   UNL     1      -0.288  11.429  20.986  0.00  0.00    +0.000 A 
ATOM     11  C   UNL     1       0.358  11.407  19.760  0.00  0.00    +0.000 A 
ATOM     12  C   UNL     1       1.109  10.291  19.413  0.00  0.00    +0.000 A 
ATOM     13  C   UNL     1       1.179   9.204  20.283  0.00  0.00    +0.000 A 
ATOM     14  N   UNL     1       0.557   9.228  21.481  0.00  0.00    +0.000 NA
ENDBRANCH   2  13
ENDBRANCH   1   5
BRANCH   1  15
ATOM     15  C   UNL     1       2.260   3.684  17.146  0.00  0.00    +0.000 C 
BRANCH  15  16
ATOM     16  C   UNL     1       2.623   2.382  17.871  0.00  0.00    +0.000 C 
BRANCH  16  17
ATOM     17  C   UNL     1       4.115   2.089  17.796  0.00  0.00    +0.000 C 
BRANCH  17  18
ATOM     18  N   UNL     1       4.926   3.235  18.116  0.00  0.00    +0.000 N 
ATOM     19  C   UNL     1       5.650   3.873  17.130  0.00  0.00    +0.000 C 
ATOM     20  O   UNL     1       5.607   3.563  15.945  0.00  0.00    +0.000 OA
ATOM     21  H   UNL     1       5.179   3.452  19.078  0.00  0.00    +0.000 HD
BRANCH  19  22
ATOM     22  C   UNL     1       6.524   4.993  17.605  0.00  0.00    +0.000 A 
ATOM     23  C   UNL     1       6.568   6.172  16.873  0.00  0.00    +0.000 A 
ATOM     24  C   UNL     1       7.345   7.220  17.363  0.00  0.00    +0.000 A 
ATOM     25  C   UNL     1       8.037   7.050  18.556  0.00  0.00    +0.000 A 
ATOM     26  C   UNL     1       7.940   5.831  19.214  0.00  0.00    +0.000 A 
ATOM     27  N   UNL     1       7.208   4.786  18.767  0.00  0.00    +0.000 NA
ENDBRANCH  19  22
ENDBRANCH  17  18
ENDBRANCH  16  17
ENDBRANCH  15  16
ENDBRANCH   1  15
TORSDOF 7
ENDMDL
MODEL 7
REMARK VINA RESULT:      -7.6      1.957      2.375
REMARK  Name = 
REMARK  8 active torsions:
REMARK  status: ('A' for Active; 'I' for Inactive)
REMARK    1  A    between atoms: C_1  and  C_2
REMARK    2  A    between atoms: C_6  and  N_7
REMARK    3  A    between atoms: N_10  and  C_11
REMARK    4  A    between atoms: C_11  and  C_12
REMARK    5  A    between atoms: C_12  and  C_13
REMARK    6  A    between atoms: C_13  and  C_14
REMARK    7  A    between atoms: C_14  and  N_15
REMARK    8  A    between atoms: C_16  and  C_18
REMARK                            x       y       z     vdW  Elec       q    Type
REMARK                         _______ _______ _______ _____ _____    ______ ____
ROOT
ATOM      1  C   UNL     1       7.716   7.204  18.352  0.00  0.00    +0.000 C 
ENDROOT
BRANCH   1   5
ATOM      2  N   UNL     1       4.745   5.028  18.128  0.00  0.00    +0.000 N 
ATOM      3  C   UNL     1       5.929   4.703  18.922  0.00  0.00    +0.000 C 
ATOM      4  C   UNL     1       7.161   4.838  17.999  0.00  0.00    +0.000 C 
ATOM      5  N   UNL     1       7.324   6.178  17.375  0.00  0.00    +0.000 NA
ATOM      6  C   UNL     1       6.050   6.537  16.696  0.00  0.00    +0.000 C 
ATOM      7  C   UNL     1       4.767   6.381  17.555  0.00  0.00    +0.000 C 
BRANCH   2  13
ATOM      8  C   UNL     1       2.280   2.828  21.605  0.00  0.00    +0.000 C 
ATOM      9  C   UNL     1       2.315   3.390  20.217  0.00  0.00    +0.000 A 
ATOM     10  C   UNL     1       1.214   3.276  19.378  0.00  0.00    +0.000 A 
ATOM     11  C   UNL     1       1.286   3.837  18.112  0.00  0.00    +0.000 A 
ATOM     12  C   UNL     1       2.452   4.486  17.727  0.00  0.00    +0.000 A 
ATOM     13  C   UNL     1       3.537   4.540  18.601  0.00  0.00    +0.000 A 
ATOM     14  N   UNL     1       3.464   4.002  19.838  0.00  0.00    +0.000 NA
ENDBRANCH   2  13
ENDBRANCH   1   5
BRANCH   1  15
ATOM     15  C   UNL     1       8.144   8.524  17.688  0.00  0.00    +0.000 C 
BRANCH  15  16
ATOM     16  C   UNL     1       8.681   9.576  18.667  0.00  0.00    +0.000 C 
BRANCH  16  17
ATOM     17  C   UNL     1       9.552  10.609  17.967  0.00  0.00    +0.000 C 
BRANCH  17  18
ATOM     18  N   UNL     1       8.947  11.915  17.927  0.00  0.00    +0.000 N 
ATOM     19  C   UNL     1       9.662  13.026  18.325  0.00  0.00    +0.000 C 
ATOM     20  O   UNL     1      10.838  12.992  18.667  0.00  0.00    +0.000 OA
ATOM     21  H   UNL     1       7.939  12.029  17.845  0.00  0.00    +0.000 HD
BRANCH  19  22
ATOM     22  C   UNL     1       8.894  14.312  18.324  0.00  0.00    +0.000 A 
ATOM     23  C   UNL     1       7.507  14.270  18.297  0.00  0.00    +0.000 A 
ATOM     24  C   UNL     1       6.812  15.477  18.352  0.00  0.00    +0.000 A 
ATOM     25  C   UNL     1       7.526  16.666  18.433  0.00  0.00    +0.000 A 
ATOM     26  C   UNL     1       8.913  16.610  18.444  0.00  0.00    +0.000 A 
ATOM     27  N   UNL     1       9.625  15.463  18.381  0.00  0.00    +0.000 NA
ENDBRANCH  19  22
ENDBRANCH  17  18
ENDBRANCH  16  17
ENDBRANCH  15  16
ENDBRANCH   1  15
TORSDOF 7
ENDMDL
MODEL 8
REMARK VINA RESULT:      -7.5      1.664      1.961
REMARK  Name = 
REMARK  8 active torsions:
REMARK  status: ('A' for Active; 'I' for Inactive)
REMARK    1  A    between atoms: C_1  and  C_2
REMARK    2  A    between atoms: C_6  and  N_7
REMARK    3  A    between atoms: N_10  and  C_11
REMARK    4  A    between atoms: C_11  and  C_12
REMARK    5  A    between atoms: C_12  and  C_13
REMARK    6  A    between atoms: C_13  and  C_14
REMARK    7  A    between atoms: C_14  and  N_15
REMARK    8  A    between atoms: C_16  and  C_18
REMARK                            x       y       z     vdW  Elec       q    Type
REMARK                         _______ _______ _______ _____ _____    ______ ____
ROOT
ATOM      1  C   UNL     1       7.711   7.011  17.887  0.00  0.00    +0.000 C 
ENDROOT
BRANCH   1   5
ATOM      2  N   UNL     1       4.851   4.709  17.522  0.00  0.00    +0.000 N 
ATOM      3  C   UNL     1       6.189   4.281  17.931  0.00  0.00    +0.000 C 
ATOM      4  C   UNL     1       7.193   4.828  16.891  0.00  0.00    +0.000 C 
ATOM      5  N   UNL     1       7.165   6.304  16.720  0.00  0.00    +0.000 NA
ATOM      6  C   UNL     1       5.763   6.718  16.444  0.00  0.00    +0.000 C 
ATOM      7  C   UNL     1       4.697   6.166  17.428  0.00  0.00    +0.000 C 
BRANCH   2  13
ATOM      8  C   UNL     1       1.124   4.393  20.524  0.00  0.00    +0.000 C 
ATOM      9  C   UNL     1       2.032   3.731  19.533  0.00  0.00    +0.000 A 
ATOM     10  C   UNL     1       1.910   2.375  19.255  0.00  0.00    +0.000 A 
ATOM     11  C   UNL     1       2.755   1.815  18.309  0.00  0.00    +0.000 A 
ATOM     12  C   UNL     1       3.694   2.624  17.681  0.00  0.00    +0.000 A 
ATOM     13  C   UNL     1       3.791   3.971  18.026  0.00  0.00    +0.000 A 
ATOM     14  N   UNL     1       2.961   4.519  18.940  0.00  0.00    +0.000 NA
ENDBRANCH   2  13
ENDBRANCH   1   5
BRANCH   1  15
ATOM     15  C   UNL     1       7.766   8.536  17.687  0.00  0.00    +0.000 C 
BRANCH  15  16
ATOM     16  C   UNL     1       8.686   9.267  18.671  0.00  0.00    +0.000 C 
BRANCH  16  17
ATOM     17  C   UNL     1       9.176  10.594  18.110  0.00  0.00    +0.000 C 
BRANCH  17  18
ATOM     18  N   UNL     1       9.342  11.603  19.124  0.00  0.00    +0.000 N 
ATOM     19  C   UNL     1       9.658  12.899  18.772  0.00  0.00    +0.000 C 
ATOM     20  O   UNL     1       9.754  13.286  17.613  0.00  0.00    +0.000 OA
ATOM     21  H   UNL     1       9.472  11.353  20.102  0.00  0.00    +0.000 HD
BRANCH  19  22
ATOM     22  C   UNL     1       9.893  13.831  19.920  0.00  0.00    +0.000 A 
ATOM     23  C   UNL     1       9.251  13.592  21.127  0.00  0.00    +0.000 A 
ATOM     24  C   UNL     1       9.527  14.440  22.198  0.00  0.00    +0.000 A 
ATOM     25  C   UNL     1      10.428  15.483  22.020  0.00  0.00    +0.000 A 
ATOM     26  C   UNL     1      11.014  15.651  20.773  0.00  0.00    +0.000 A 
ATOM     27  N   UNL     1      10.766  14.859  19.707  0.00  0.00    +0.000 NA
ENDBRANCH  19  22
ENDBRANCH  17  18
ENDBRANCH  16  17
ENDBRANCH  15  16
ENDBRANCH   1  15
TORSDOF 7
ENDMDL
MODEL 9
REMARK VINA RESULT:      -7.5      1.254      1.522
REMARK  Name = 
REMARK  8 active torsions:
REMARK  status: ('A' for Active; 'I' for Inactive)
REMARK    1  A    between atoms: C_1  and  C_2
REMARK    2  A    between atoms: C_6  and  N_7
REMARK    3  A    between atoms: N_10  and  C_11
REMARK    4  A    between atoms: C_11  and  C_12
REMARK    5  A    between atoms: C_12  and  C_13
REMARK    6  A    between atoms: C_13  and  C_14
REMARK    7  A    between atoms: C_14  and  N_15
REMARK    8  A    between atoms: C_16  and  C_18
REMARK                            x       y       z     vdW  Elec       q    Type
REMARK                         _______ _______ _______ _____ _____    ______ ____
ROOT
ATOM      1  C   UNL     1       7.451   6.537  17.634  0.00  0.00    +0.000 C 
ENDROOT
BRANCH   1   5
ATOM      2  N   UNL     1       4.233   4.737  17.763  0.00  0.00    +0.000 N 
ATOM      3  C   UNL     1       5.520   4.119  18.079  0.00  0.00    +0.000 C 
ATOM      4  C   UNL     1       6.477   4.406  16.900  0.00  0.00    +0.000 C 
ATOM      5  N   UNL     1       6.671   5.848  16.596  0.00  0.00    +0.000 NA
ATOM      6  C   UNL     1       5.333   6.474  16.421  0.00  0.00    +0.000 C 
ATOM      7  C   UNL     1       4.308   6.188  17.550  0.00  0.00    +0.000 C 
BRANCH   2  13
ATOM      8  C   UNL     1       2.387   2.726  21.707  0.00  0.00    +0.000 C 
ATOM      9  C   UNL     1       2.204   3.166  20.288  0.00  0.00    +0.000 A 
ATOM     10  C   UNL     1       1.011   2.925  19.618  0.00  0.00    +0.000 A 
ATOM     11  C   UNL     1       0.881   3.377  18.314  0.00  0.00    +0.000 A 
ATOM     12  C   UNL     1       1.945   4.048  17.723  0.00  0.00    +0.000 A 
ATOM     13  C   UNL     1       3.130   4.232  18.434  0.00  0.00    +0.000 A 
ATOM     14  N   UNL     1       3.253   3.799  19.708  0.00  0.00    +0.000 NA
ENDBRANCH   2  13
ENDBRANCH   1   5
BRANCH   1  15
ATOM     15  C   UNL     1       7.224   8.059  17.637  0.00  0.00    +0.000 C 
BRANCH  15  16
ATOM     16  C   UNL     1       8.500   8.886  17.438  0.00  0.00    +0.000 C 
BRANCH  16  17
ATOM     17  C   UNL     1       8.740   9.845  18.595  0.00  0.00    +0.000 C 
BRANCH  17  18
ATOM     18  N   UNL     1       9.574  10.961  18.231  0.00  0.00    +0.000 N 
ATOM     19  C   UNL     1      10.300  11.630  19.195  0.00  0.00    +0.000 C 
ATOM     20  O   UNL     1      10.338  11.297  20.373  0.00  0.00    +0.000 OA
ATOM     21  H   UNL     1       9.468  11.430  17.334  0.00  0.00    +0.000 HD
BRANCH  19  22
ATOM     22  C   UNL     1      11.056  12.827  18.706  0.00  0.00    +0.000 A 
ATOM     23  C   UNL     1      11.397  12.908  17.363  0.00  0.00    +0.000 A 
ATOM     24  C   UNL     1      12.051  14.056  16.919  0.00  0.00    +0.000 A 
ATOM     25  C   UNL     1      12.333  15.068  17.828  0.00  0.00    +0.000 A 
ATOM     26  C   UNL     1      11.963  14.894  19.154  0.00  0.00    +0.000 A 
ATOM     27  N   UNL     1      11.338  13.793  19.627  0.00  0.00    +0.000 NA
ENDBRANCH  19  22
ENDBRANCH  17  18
ENDBRANCH  16  17
ENDBRANCH  15  16
ENDBRANCH   1  15
TORSDOF 7
ENDMDL
