MODEL 1
REMARK VINA RESULT:      -6.5      0.000      0.000
REMARK  Name = 
REMARK  7 active torsions:
REMARK  status: ('A' for Active; 'I' for Inactive)
REMARK    1  A    between atoms: C_1  and  C_2
REMARK    2  A    between atoms: C_2  and  N_3
REMARK    3  A    between atoms: C_4  and  C_6
REMARK    4  A    between atoms: C_6  and  C_7
REMARK    5  A    between atoms: C_7  and  N_8
REMARK    6  A    between atoms: C_13  and  O_14
REMARK    7  A    between atoms: C_15  and  C_16
REMARK                            x       y       z     vdW  Elec       q    Type
REMARK                         _______ _______ _______ _____ _____    ______ ____
ROOT
ATOM      1  N   UNL     1       3.666   3.261  18.489  0.00  0.00    +0.000 N 
ATOM      2  C   UNL     1       4.402   2.694  19.529  0.00  0.00    +0.000 A 
ATOM      3  C   UNL     1       3.934   2.431  20.752  0.00  0.00    +0.000 A 
ATOM      4  C   UNL     1       2.519   2.742  21.018  0.00  0.00    +0.000 A 
ATOM      5  O   UNL     1       1.989   2.491  22.098  0.00  0.00    +0.000 OA
ATOM      6  C   UNL     1       1.730   3.399  19.935  0.00  0.00    +0.000 A 
ATOM      7  C   UNL     1       2.325   3.647  18.746  0.00  0.00    +0.000 A 
ATOM      8  C   UNL     1       1.559   4.392  17.678  0.00  0.00    +0.000 C 
ENDROOT
BRANCH   6   9
ATOM      9  O   UNL     1       0.420   3.735  20.225  0.00  0.00    +0.000 OA
ATOM     10  H   UNL     1       0.469   4.185  21.095  0.00  0.00    +0.000 HD
ENDBRANCH   6   9
BRANCH   1  11
ATOM     11  C   UNL     1       4.324   3.469  17.175  0.00  0.00    +0.000 C 
BRANCH  11  12
ATOM     12  C   UNL     1       5.367   4.584  17.236  0.00  0.00    +0.000 C 
BRANCH  12  14
ATOM     13  N   UNL     1       5.696   4.125  14.873  0.00  0.00    +0.000 N 
ATOM     14  C   UNL     1       6.310   4.473  16.055  0.00  0.00    +0.000 C 
ATOM     15  O   UNL     1       7.518   4.673  16.147  0.00  0.00    +0.000 OA
ATOM     16  H   UNL     1       4.709   3.899  14.867  0.00  0.00    +0.000 HD
BRANCH  13  18
ATOM     17  C   UNL     1       5.595   3.415  12.515  0.00  0.00    +0.000 C 
ATOM     18  C   UNL     1       6.450   3.969  13.641  0.00  0.00    +0.000 C 
ENDBRANCH  13  18
ENDBRANCH  12  14
ENDBRANCH  11  12
ENDBRANCH   1  11
TORSDOF 5
ENDMDL
MODEL 2
REMARK VINA RESULT:      -6.4      1.886      6.563
REMARK  Name = 
REMARK  7 active torsions:
REMARK  status: ('A' for Active; 'I' for Inactive)
REMARK    1  A    between atoms: C_1  and  C_2
REMARK    2  A    between atoms: C_2  and  N_3
REMARK    3  A    between atoms: C_4  and  C_6
REMARK    4  A    between atoms: C_6  and  C_7
REMARK    5  A    between atoms: C_7  and  N_8
REMARK    6  A    between atoms: C_13  and  O_14
REMARK    7  A    between atoms: C_15  and  C_16
REMARK                            x       y       z     vdW  Elec       q    Type
REMARK                         _______ _______ _______ _____ _____    ______ ____
ROOT
ATOM      1  N   UNL     1       5.143   3.940  16.791  0.00  0.00    +0.000 N 
ATOM      2  C   UNL     1       5.305   3.442  15.499  0.00  0.00    +0.000 A 
ATOM      3  C   UNL     1       6.169   3.910  14.594  0.00  0.00    +0.000 A 
ATOM      4  C   UNL     1       7.038   5.027  15.001  0.00  0.00    +0.000 A 
ATOM      5  O   UNL     1       7.895   5.492  14.253  0.00  0.00    +0.000 OA
ATOM      6  C   UNL     1       6.842   5.608  16.362  0.00  0.00    +0.000 A 
ATOM      7  C   UNL     1       5.909   5.069  17.179  0.00  0.00    +0.000 A 
ATOM      8  C   UNL     1       5.644   5.709  18.522  0.00  0.00    +0.000 C 
ENDROOT
BRANCH   6   9
ATOM      9  O   UNL     1       7.629   6.693  16.703  0.00  0.00    +0.000 OA
ATOM     10  H   UNL     1       7.535   7.311  15.947  0.00  0.00    +0.000 HD
ENDBRANCH   6   9
BRANCH   1  11
ATOM     11  C   UNL     1       4.154   3.292  17.690  0.00  0.00    +0.000 C 
BRANCH  11  12
ATOM     12  C   UNL     1       2.722   3.507  17.201  0.00  0.00    +0.000 C 
BRANCH  12  14
ATOM     13  N   UNL     1       2.021   4.004  19.474  0.00  0.00    +0.000 N 
ATOM     14  C   UNL     1       1.750   3.273  18.340  0.00  0.00    +0.000 C 
ATOM     15  O   UNL     1       0.802   2.495  18.256  0.00  0.00    +0.000 OA
ATOM     16  H   UNL     1       2.857   4.575  19.516  0.00  0.00    +0.000 HD
BRANCH  13  18
ATOM     17  C   UNL     1       1.707   2.843  21.625  0.00  0.00    +0.000 C 
ATOM     18  C   UNL     1       1.193   3.899  20.663  0.00  0.00    +0.000 C 
ENDBRANCH  13  18
ENDBRANCH  12  14
ENDBRANCH  11  12
ENDBRANCH   1  11
TORSDOF 5
ENDMDL
MODEL 3
REMARK VINA RESULT:      -6.3      2.100      3.036
REMARK  Name = 
REMARK  7 active torsions:
REMARK  status: ('A' for Active; 'I' for Inactive)
REMARK    1  A    between atoms: C_1  and  C_2
REMARK    2  A    between atoms: C_2  and  N_3
REMARK    3  A    between atoms: C_4  and  C_6
REMARK    4  A    between atoms: C_6  and  C_7
REMARK    5  A    between atoms: C_7  and  N_8
REMARK    6  A    between atoms: C_13  and  O_14
REMARK    7  A    between atoms: C_15  and  C_16
REMARK                            x       y       z     vdW  Elec       q    Type
REMARK                         _______ _______ _______ _____ _____    ______ ____
ROOT
ATOM      1  N   UNL     1       4.547   4.782  17.012  0.00  0.00    +0.000 N 
ATOM      2  C   UNL     1       4.723   6.162  16.926  0.00  0.00    +0.000 A 
ATOM      3  C   UNL     1       3.976   7.077  17.551  0.00  0.00    +0.000 A 
ATOM      4  C   UNL     1       2.894   6.587  18.421  0.00  0.00    +0.000 A 
ATOM      5  O   UNL     1       2.185   7.352  19.073  0.00  0.00    +0.000 OA
ATOM      6  C   UNL     1       2.656   5.115  18.484  0.00  0.00    +0.000 A 
ATOM      7  C   UNL     1       3.459   4.288  17.777  0.00  0.00    +0.000 A 
ATOM      8  C   UNL     1       3.168   2.806  17.765  0.00  0.00    +0.000 C 
ENDROOT
BRANCH   6   9
ATOM      9  O   UNL     1       1.598   4.680  19.262  0.00  0.00    +0.000 OA
ATOM     10  H   UNL     1       1.447   3.755  18.975  0.00  0.00    +0.000 HD
ENDBRANCH   6   9
BRANCH   1  11
ATOM     11  C   UNL     1       5.479   3.893  16.274  0.00  0.00    +0.000 C 
BRANCH  11  12
ATOM     12  C   UNL     1       6.780   4.612  15.915  0.00  0.00    +0.000 C 
BRANCH  12  14
ATOM     13  N   UNL     1       6.273   3.624  13.754  0.00  0.00    +0.000 N 
ATOM     14  C   UNL     1       6.968   4.613  14.411  0.00  0.00    +0.000 C 
ATOM     15  O   UNL     1       7.684   5.426  13.832  0.00  0.00    +0.000 OA
ATOM     16  H   UNL     1       5.757   2.934  14.285  0.00  0.00    +0.000 HD
BRANCH  13  18
ATOM     17  C   UNL     1       4.975   3.247  11.692  0.00  0.00    +0.000 C 
ATOM     18  C   UNL     1       6.344   3.476  12.310  0.00  0.00    +0.000 C 
ENDBRANCH  13  18
ENDBRANCH  12  14
ENDBRANCH  11  12
ENDBRANCH   1  11
TORSDOF 5
ENDMDL
MODEL 4
REMARK VINA RESULT:      -6.3      1.685      1.779
REMARK  Name = 
REMARK  7 active torsions:
REMARK  status: ('A' for Active; 'I' for Inactive)
REMARK    1  A    between atoms: C_1  and  C_2
REMARK    2  A    between atoms: C_2  and  N_3
REMARK    3  A    between atoms: C_4  and  C_6
REMARK    4  A    between atoms: C_6  and  C_7
REMARK    5  A    between atoms: C_7  and  N_8
REMARK    6  A    between atoms: C_13  and  O_14
REMARK    7  A    between atoms: C_15  and  C_16
REMARK                            x       y       z     vdW  Elec       q    Type
REMARK                         _______ _______ _______ _____ _____    ______ ____
ROOT
ATOM      1  N   UNL     1       4.006   4.302  17.885  0.00  0.00    +0.000 N 
ATOM      2  C   UNL     1       3.941   3.110  18.606  0.00  0.00    +0.000 A 
ATOM      3  C   UNL     1       3.419   2.975  19.829  0.00  0.00    +0.000 A 
ATOM      4  C   UNL     1       2.844   4.177  20.456  0.00  0.00    +0.000 A 
ATOM      5  O   UNL     1       2.300   4.139  21.558  0.00  0.00    +0.000 OA
ATOM      6  C   UNL     1       2.952   5.471  19.722  0.00  0.00    +0.000 A 
ATOM      7  C   UNL     1       3.535   5.489  18.502  0.00  0.00    +0.000 A 
ATOM      8  C   UNL     1       3.727   6.810  17.794  0.00  0.00    +0.000 C 
ENDROOT
BRANCH   6   9
ATOM      9  O   UNL     1       2.456   6.598  20.355  0.00  0.00    +0.000 OA
ATOM     10  H   UNL     1       1.491   6.438  20.419  0.00  0.00    +0.000 HD
ENDBRANCH   6   9
BRANCH   1  11
ATOM     11  C   UNL     1       4.596   4.284  16.522  0.00  0.00    +0.000 C 
BRANCH  11  12
ATOM     12  C   UNL     1       6.123   4.288  16.569  0.00  0.00    +0.000 C 
BRANCH  12  14
ATOM     13  N   UNL     1       6.133   3.645  14.226  0.00  0.00    +0.000 N 
ATOM     14  C   UNL     1       6.680   4.480  15.173  0.00  0.00    +0.000 C 
ATOM     15  O   UNL     1       7.548   5.309  14.911  0.00  0.00    +0.000 OA
ATOM     16  H   UNL     1       5.474   2.929  14.508  0.00  0.00    +0.000 HD
BRANCH  13  18
ATOM     17  C   UNL     1       5.489   3.147  11.900  0.00  0.00    +0.000 C 
ATOM     18  C   UNL     1       6.553   3.690  12.836  0.00  0.00    +0.000 C 
ENDBRANCH  13  18
ENDBRANCH  12  14
ENDBRANCH  11  12
ENDBRANCH   1  11
TORSDOF 5
ENDMDL
MODEL 5
REMARK VINA RESULT:      -6.2      1.934      6.139
REMARK  Name = 
REMARK  7 active torsions:
REMARK  status: ('A' for Active; 'I' for Inactive)
REMARK    1  A    between atoms: C_1  and  C_2
REMARK    2  A    between atoms: C_2  and  N_3
REMARK    3  A    between atoms: C_4  and  C_6
REMARK    4  A    between atoms: C_6  and  C_7
REMARK    5  A    between atoms: C_7  and  N_8
REMARK    6  A    between atoms: C_13  and  O_14
REMARK    7  A    between atoms: C_15  and  C_16
REMARK                            x       y       z     vdW  Elec       q    Type
REMARK                         _______ _______ _______ _____ _____    ______ ____
ROOT
ATOM      1  N   UNL     1       4.906   4.392  17.412  0.00  0.00    +0.000 N 
ATOM      2  C   UNL     1       5.176   4.636  18.758  0.00  0.00    +0.000 A 
ATOM      3  C   UNL     1       6.195   5.366  19.221  0.00  0.00    +0.000 A 
ATOM      4  C   UNL     1       7.093   5.982  18.229  0.00  0.00    +0.000 A 
ATOM      5  O   UNL     1       8.029   6.707  18.559  0.00  0.00    +0.000 OA
ATOM      6  C   UNL     1       6.851   5.687  16.786  0.00  0.00    +0.000 A 
ATOM      7  C   UNL     1       5.804   4.904  16.441  0.00  0.00    +0.000 A 
ATOM      8  C   UNL     1       5.608   4.530  14.990  0.00  0.00    +0.000 C 
ENDROOT
BRANCH   6   9
ATOM      9  O   UNL     1       7.740   6.230  15.875  0.00  0.00    +0.000 OA
ATOM     10  H   UNL     1       7.998   7.091  16.267  0.00  0.00    +0.000 HD
ENDBRANCH   6   9
BRANCH   1  11
ATOM     11  C   UNL     1       3.716   3.579  17.056  0.00  0.00    +0.000 C 
BRANCH  11  12
ATOM     12  C   UNL     1       2.420   4.243  17.520  0.00  0.00    +0.000 C 
BRANCH  12  14
ATOM     13  N   UNL     1       1.670   3.980  19.815  0.00  0.00    +0.000 N 
ATOM     14  C   UNL     1       1.753   3.386  18.577  0.00  0.00    +0.000 C 
ATOM     15  O   UNL     1       1.326   2.258  18.346  0.00  0.00    +0.000 OA
ATOM     16  H   UNL     1       2.103   4.882  19.971  0.00  0.00    +0.000 HD
BRANCH  13  18
ATOM     17  C   UNL     1       2.096   2.582  21.800  0.00  0.00    +0.000 C 
ATOM     18  C   UNL     1       1.064   3.298  20.947  0.00  0.00    +0.000 C 
ENDBRANCH  13  18
ENDBRANCH  12  14
ENDBRANCH  11  12
ENDBRANCH   1  11
TORSDOF 5
ENDMDL
MODEL 6
REMARK VINA RESULT:      -6.2      2.079      2.897
REMARK  Name = 
REMARK  7 active torsions:
REMARK  status: ('A' for Active; 'I' for Inactive)
REMARK    1  A    between atoms: C_1  and  C_2
REMARK    2  A    between atoms: C_2  and  N_3
REMARK    3  A    between atoms: C_4  and  C_6
REMARK    4  A    between atoms: C_6  and  C_7
REMARK    5  A    between atoms: C_7  and  N_8
REMARK    6  A    between atoms: C_13  and  O_14
REMARK    7  A    between atoms: C_15  and  C_16
REMARK                            x       y       z     vdW  Elec       q    Type
REMARK                         _______ _______ _______ _____ _____    ______ ____
ROOT
ATOM      1  N   UNL     1       3.750   4.244  17.582  0.00  0.00    +0.000 N 
ATOM      2  C   UNL     1       3.739   2.852  17.667  0.00  0.00    +0.000 A 
ATOM      3  C   UNL     1       3.050   2.139  18.562  0.00  0.00    +0.000 A 
ATOM      4  C   UNL     1       2.216   2.881  19.523  0.00  0.00    +0.000 A 
ATOM      5  O   UNL     1       1.512   2.309  20.352  0.00  0.00    +0.000 OA
ATOM      6  C   UNL     1       2.258   4.372  19.481  0.00  0.00    +0.000 A 
ATOM      7  C   UNL     1       3.022   4.984  18.548  0.00  0.00    +0.000 A 
ATOM      8  C   UNL     1       3.138   6.490  18.559  0.00  0.00    +0.000 C 
ENDROOT
BRANCH   6   9
ATOM      9  O   UNL     1       1.512   5.050  20.430  0.00  0.00    +0.000 OA
ATOM     10  H   UNL     1       0.709   5.342  19.947  0.00  0.00    +0.000 HD
ENDBRANCH   6   9
BRANCH   1  11
ATOM     11  C   UNL     1       4.550   4.890  16.510  0.00  0.00    +0.000 C 
BRANCH  11  12
ATOM     12  C   UNL     1       5.836   4.116  16.221  0.00  0.00    +0.000 C 
BRANCH  12  14
ATOM     13  N   UNL     1       6.715   5.993  17.489  0.00  0.00    +0.000 N 
ATOM     14  C   UNL     1       6.998   4.758  16.952  0.00  0.00    +0.000 C 
ATOM     15  O   UNL     1       8.098   4.222  17.053  0.00  0.00    +0.000 OA
ATOM     16  H   UNL     1       5.815   6.423  17.315  0.00  0.00    +0.000 HD
BRANCH  13  18
ATOM     17  C   UNL     1       7.857   8.168  17.687  0.00  0.00    +0.000 C 
ATOM     18  C   UNL     1       7.715   6.753  18.220  0.00  0.00    +0.000 C 
ENDBRANCH  13  18
ENDBRANCH  12  14
ENDBRANCH  11  12
ENDBRANCH   1  11
TORSDOF 5
ENDMDL
MODEL 7
REMARK VINA RESULT:      -6.2      1.992      2.843
REMARK  Name = 
REMARK  7 active torsions:
REMARK  status: ('A' for Active; 'I' for Inactive)
REMARK    1  A    between atoms: C_1  and  C_2
REMARK    2  A    between atoms: C_2  and  N_3
REMARK    3  A    between atoms: C_4  and  C_6
REMARK    4  A    between atoms: C_6  and  C_7
REMARK    5  A    between atoms: C_7  and  N_8
REMARK    6  A    between atoms: C_13  and  O_14
REMARK    7  A    between atoms: C_15  and  C_16
REMARK                            x       y       z     vdW  Elec       q    Type
REMARK                         _______ _______ _______ _____ _____    ______ ____
ROOT
ATOM      1  N   UNL     1       4.195   4.833  17.728  0.00  0.00    +0.000 N 
ATOM      2  C   UNL     1       3.857   6.105  17.269  0.00  0.00    +0.000 A 
ATOM      3  C   UNL     1       3.167   7.017  17.960  0.00  0.00    +0.000 A 
ATOM      4  C   UNL     1       2.751   6.659  19.326  0.00  0.00    +0.000 A 
ATOM      5  O   UNL     1       2.154   7.450  20.054  0.00  0.00    +0.000 OA
ATOM      6  C   UNL     1       3.058   5.283  19.815  0.00  0.00    +0.000 A 
ATOM      7  C   UNL     1       3.734   4.434  19.008  0.00  0.00    +0.000 A 
ATOM      8  C   UNL     1       3.968   3.012  19.462  0.00  0.00    +0.000 C 
ENDROOT
BRANCH   6   9
ATOM      9  O   UNL     1       2.607   4.948  21.080  0.00  0.00    +0.000 OA
ATOM     10  H   UNL     1       2.829   5.728  21.633  0.00  0.00    +0.000 HD
ENDBRANCH   6   9
BRANCH   1  11
ATOM     11  C   UNL     1       4.990   3.940  16.846  0.00  0.00    +0.000 C 
BRANCH  11  12
ATOM     12  C   UNL     1       6.445   4.399  16.743  0.00  0.00    +0.000 C 
BRANCH  12  14
ATOM     13  N   UNL     1       6.230   3.719  14.421  0.00  0.00    +0.000 N 
ATOM     14  C   UNL     1       6.815   4.612  15.289  0.00  0.00    +0.000 C 
ATOM     15  O   UNL     1       7.575   5.504  14.921  0.00  0.00    +0.000 OA
ATOM     16  H   UNL     1       5.671   2.957  14.784  0.00  0.00    +0.000 HD
BRANCH  13  18
ATOM     17  C   UNL     1       5.322   3.208  12.187  0.00  0.00    +0.000 C 
ATOM     18  C   UNL     1       6.479   3.775  12.990  0.00  0.00    +0.000 C 
ENDBRANCH  13  18
ENDBRANCH  12  14
ENDBRANCH  11  12
ENDBRANCH   1  11
TORSDOF 5
ENDMDL
MODEL 8
REMARK VINA RESULT:      -6.2      1.777      2.102
REMARK  Name = 
REMARK  7 active torsions:
REMARK  status: ('A' for Active; 'I' for Inactive)
REMARK    1  A    between atoms: C_1  and  C_2
REMARK    2  A    between atoms: C_2  and  N_3
REMARK    3  A    between atoms: C_4  and  C_6
REMARK    4  A    between atoms: C_6  and  C_7
REMARK    5  A    between atoms: C_7  and  N_8
REMARK    6  A    between atoms: C_13  and  O_14
REMARK    7  A    between atoms: C_15  and  C_16
REMARK                            x       y       z     vdW  Elec       q    Type
REMARK                         _______ _______ _______ _____ _____    ______ ____
ROOT
ATOM      1  N   UNL     1       2.783   5.086  18.728  0.00  0.00    +0.000 N 
ATOM      2  C   UNL     1       2.438   5.552  19.996  0.00  0.00    +0.000 A 
ATOM      3  C   UNL     1       1.892   4.814  20.967  0.00  0.00    +0.000 A 
ATOM      4  C   UNL     1       1.657   3.388  20.684  0.00  0.00    +0.000 A 
ATOM      5  O   UNL     1       1.202   2.622  21.531  0.00  0.00    +0.000 OA
ATOM      6  C   UNL     1       1.970   2.884  19.314  0.00  0.00    +0.000 A 
ATOM      7  C   UNL     1       2.489   3.737  18.402  0.00  0.00    +0.000 A 
ATOM      8  C   UNL     1       2.724   3.256  16.990  0.00  0.00    +0.000 C 
ENDROOT
BRANCH   6   9
ATOM      9  O   UNL     1       1.688   1.555  19.052  0.00  0.00    +0.000 OA
ATOM     10  H   UNL     1       1.632   1.505  18.074  0.00  0.00    +0.000 HD
ENDBRANCH   6   9
BRANCH   1  11
ATOM     11  C   UNL     1       3.408   6.027  17.764  0.00  0.00    +0.000 C 
BRANCH  11  12
ATOM     12  C   UNL     1       4.932   6.023  17.878  0.00  0.00    +0.000 C 
BRANCH  12  14
ATOM     13  N   UNL     1       6.248   4.834  16.218  0.00  0.00    +0.000 N 
ATOM     14  C   UNL     1       5.551   5.987  16.495  0.00  0.00    +0.000 C 
ATOM     15  O   UNL     1       5.440   6.911  15.693  0.00  0.00    +0.000 OA
ATOM     16  H   UNL     1       6.371   4.134  16.940  0.00  0.00    +0.000 HD
BRANCH  13  18
ATOM     17  C   UNL     1       6.033   3.878  13.956  0.00  0.00    +0.000 C 
ATOM     18  C   UNL     1       6.910   4.633  14.940  0.00  0.00    +0.000 C 
ENDBRANCH  13  18
ENDBRANCH  12  14
ENDBRANCH  11  12
ENDBRANCH   1  11
TORSDOF 5
ENDMDL
MODEL 9
REMARK VINA RESULT:      -6.2      2.445      5.994
REMARK  Name = 
REMARK  7 active torsions:
REMARK  status: ('A' for Active; 'I' for Inactive)
REMARK    1  A    between atoms: C_1  and  C_2
REMARK    2  A    between atoms: C_2  and  N_3
REMARK    3  A    between atoms: C_4  and  C_6
REMARK    4  A    between atoms: C_6  and  C_7
REMARK    5  A    between atoms: C_7  and  N_8
REMARK    6  A    between atoms: C_13  and  O_14
REMARK    7  A    between atoms: C_15  and  C_16
REMARK                            x       y       z     vdW  Elec       q    Type
REMARK                         _______ _______ _______ _____ _____    ______ ____
ROOT
ATOM      1  N   UNL     1       4.806   5.885  17.703  0.00  0.00    +0.000 N 
ATOM      2  C   UNL     1       4.656   6.406  16.419  0.00  0.00    +0.000 A 
ATOM      3  C   UNL     1       5.516   6.234  15.410  0.00  0.00    +0.000 A 
ATOM      4  C   UNL     1       6.706   5.407  15.669  0.00  0.00    +0.000 A 
ATOM      5  O   UNL     1       7.528   5.155  14.790  0.00  0.00    +0.000 OA
ATOM      6  C   UNL     1       6.911   4.886  17.053  0.00  0.00    +0.000 A 
ATOM      7  C   UNL     1       5.985   5.156  18.001  0.00  0.00    +0.000 A 
ATOM      8  C   UNL     1       6.231   4.707  19.423  0.00  0.00    +0.000 C 
ENDROOT
BRANCH   6   9
ATOM      9  O   UNL     1       8.065   4.160  17.288  0.00  0.00    +0.000 OA
ATOM     10  H   UNL     1       7.816   3.526  17.994  0.00  0.00    +0.000 HD
ENDBRANCH   6   9
BRANCH   1  11
ATOM     11  C   UNL     1       3.746   6.145  18.710  0.00  0.00    +0.000 C 
BRANCH  11  12
ATOM     12  C   UNL     1       2.349   5.943  18.124  0.00  0.00    +0.000 C 
BRANCH  12  14
ATOM     13  N   UNL     1       2.645   3.732  19.085  0.00  0.00    +0.000 N 
ATOM     14  C   UNL     1       2.002   4.468  18.117  0.00  0.00    +0.000 C 
ATOM     15  O   UNL     1       1.216   3.974  17.312  0.00  0.00    +0.000 OA
ATOM     16  H   UNL     1       3.339   4.174  19.675  0.00  0.00    +0.000 HD
BRANCH  13  18
ATOM     17  C   UNL     1       3.484   1.496  18.473  0.00  0.00    +0.000 C 
ATOM     18  C   UNL     1       2.433   2.300  19.218  0.00  0.00    +0.000 C 
ENDBRANCH  13  18
ENDBRANCH  12  14
ENDBRANCH  11  12
ENDBRANCH   1  11
TORSDOF 5
ENDMDL
