MODEL 1
REMARK VINA RESULT:      -7.4      0.000      0.000
REMARK  Name = 
REMARK  10 active torsions:
REMARK  status: ('A' for Active; 'I' for Inactive)
REMARK    1  A    between atoms: C_1  and  C_2
REMARK    2  A    between atoms: C_6  and  C_7
REMARK    3  A    between atoms: C_8  and  N_9
REMARK    4  A    between atoms: N_12  and  C_13
REMARK    5  A    between atoms: C_13  and  C_14
REMARK    6  A    between atoms: C_14  and  C_15
REMARK    7  A    between atoms: C_15  and  N_16
REMARK    8  A    between atoms: N_16  and  C_17
REMARK    9  A    between atoms: C_17  and  C_18
REMARK   10  A    between atoms: C_17  and  C_19
REMARK                            x       y       z     vdW  Elec       q    Type
REMARK                         _______ _______ _______ _____ _____    ______ ____
ROOT
ATOM      1  N   UNL     1       4.048   2.918  17.983  0.00  0.00    +0.000 N 
ATOM      2  C   UNL     1       5.039   3.792  17.639  0.00  0.00    +0.000 C 
ATOM      3  O   UNL     1       5.240   4.795  18.307  0.00  0.00    +0.000 OA
ATOM      4  N   UNL     1       5.760   3.583  16.496  0.00  0.00    +0.000 N 
ATOM      5  H   UNL     1       3.821   2.183  17.297  0.00  0.00    +0.000 HD
ATOM      6  H   UNL     1       5.581   2.735  15.940  0.00  0.00    +0.000 HD
ENDROOT
BRANCH   1  14
ATOM      7  C   UNL     1       4.754   1.767  20.737  0.00  0.00    +0.000 C 
ATOM      8  C   UNL     1       3.484   2.525  20.413  0.00  0.00    +0.000 A 
ATOM      9  C   UNL     1       2.541   2.655  21.454  0.00  0.00    +0.000 A 
ATOM     10  C   UNL     1       1.321   3.286  21.241  0.00  0.00    +0.000 A 
ATOM     11  C   UNL     1       1.008   3.793  19.987  0.00  0.00    +0.000 A 
ATOM     12  C   UNL     1       1.914   3.674  18.923  0.00  0.00    +0.000 A 
ATOM     13  C   UNL     1       1.539   4.274  17.590  0.00  0.00    +0.000 C 
ATOM     14  C   UNL     1       3.173   3.045  19.118  0.00  0.00    +0.000 A 
ENDBRANCH   1  14
BRANCH   4  15
ATOM     15  C   UNL     1       6.760   4.538  16.038  0.00  0.00    +0.000 C 
BRANCH  15  16
ATOM     16  C   UNL     1       6.414   5.173  14.675  0.00  0.00    +0.000 C 
BRANCH  16  17
ATOM     17  C   UNL     1       6.932   4.355  13.479  0.00  0.00    +0.000 C 
BRANCH  17  18
ATOM     18  N   UNL     1       6.054   3.199  13.226  0.00  0.00    +0.000 NA
ATOM     19  H   UNL     1       5.135   3.389  13.696  0.00  0.00    +0.000 HD
BRANCH  18  20
ATOM     20  C   UNL     1       5.786   2.969  11.790  0.00  0.00    +0.000 C 
ATOM     21  C   UNL     1       6.134   1.534  11.358  0.00  0.00    +0.000 C 
ATOM     22  C   UNL     1       4.298   3.224  11.504  0.00  0.00    +0.000 C 
ENDBRANCH  18  20
ENDBRANCH  17  18
ENDBRANCH  16  17
ENDBRANCH  15  16
ENDBRANCH   4  15
TORSDOF 6
ENDMDL
MODEL 2
REMARK VINA RESULT:      -7.1      0.624      2.221
REMARK  Name = 
REMARK  10 active torsions:
REMARK  status: ('A' for Active; 'I' for Inactive)
REMARK    1  A    between atoms: C_1  and  C_2
REMARK    2  A    between atoms: C_6  and  C_7
REMARK    3  A    between atoms: C_8  and  N_9
REMARK    4  A    between atoms: N_12  and  C_13
REMARK    5  A    between atoms: C_13  and  C_14
REMARK    6  A    between atoms: C_14  and  C_15
REMARK    7  A    between atoms: C_15  and  N_16
REMARK    8  A    between atoms: N_16  and  C_17
REMARK    9  A    between atoms: C_17  and  C_18
REMARK   10  A    between atoms: C_17  and  C_19
REMARK                            x       y       z     vdW  Elec       q    Type
REMARK                         _______ _______ _______ _____ _____    ______ ____
ROOT
ATOM      1  N   UNL     1       4.266   2.970  18.360  0.00  0.00    +0.000 N 
ATOM      2  C   UNL     1       5.077   4.012  18.013  0.00  0.00    +0.000 C 
ATOM      3  O   UNL     1       4.900   5.121  18.493  0.00  0.00    +0.000 OA
ATOM      4  N   UNL     1       6.045   3.830  17.064  0.00  0.00    +0.000 N 
ATOM      5  H   UNL     1       4.361   2.106  17.806  0.00  0.00    +0.000 HD
ATOM      6  H   UNL     1       6.184   2.891  16.665  0.00  0.00    +0.000 HD
ENDROOT
BRANCH   1  14
ATOM      7  C   UNL     1       1.549   4.190  17.627  0.00  0.00    +0.000 C 
ATOM      8  C   UNL     1       1.895   3.587  18.972  0.00  0.00    +0.000 A 
ATOM      9  C   UNL     1       0.899   3.648  19.969  0.00  0.00    +0.000 A 
ATOM     10  C   UNL     1       1.139   3.171  21.252  0.00  0.00    +0.000 A 
ATOM     11  C   UNL     1       2.376   2.631  21.575  0.00  0.00    +0.000 A 
ATOM     12  C   UNL     1       3.397   2.561  20.616  0.00  0.00    +0.000 A 
ATOM     13  C   UNL     1       4.711   1.933  21.008  0.00  0.00    +0.000 C 
ATOM     14  C   UNL     1       3.172   3.031  19.293  0.00  0.00    +0.000 A 
ENDBRANCH   1  14
BRANCH   4  15
ATOM     15  C   UNL     1       6.869   4.935  16.592  0.00  0.00    +0.000 C 
BRANCH  15  16
ATOM     16  C   UNL     1       6.400   5.506  15.238  0.00  0.00    +0.000 C 
BRANCH  16  17
ATOM     17  C   UNL     1       6.938   4.718  14.031  0.00  0.00    +0.000 C 
BRANCH  17  18
ATOM     18  N   UNL     1       6.098   3.535  13.774  0.00  0.00    +0.000 NA
ATOM     19  H   UNL     1       5.122   3.765  14.081  0.00  0.00    +0.000 HD
BRANCH  18  20
ATOM     20  C   UNL     1       6.043   3.155  12.345  0.00  0.00    +0.000 C 
ATOM     21  C   UNL     1       4.632   3.325  11.754  0.00  0.00    +0.000 C 
ATOM     22  C   UNL     1       7.020   4.032  11.548  0.00  0.00    +0.000 C 
ENDBRANCH  18  20
ENDBRANCH  17  18
ENDBRANCH  16  17
ENDBRANCH  15  16
ENDBRANCH   4  15
TORSDOF 6
ENDMDL
MODEL 3
REMARK VINA RESULT:      -7.0      1.633      2.988
REMARK  Name = 
REMARK  10 active torsions:
REMARK  status: ('A' for Active; 'I' for Inactive)
REMARK    1  A    between atoms: C_1  and  C_2
REMARK    2  A    between atoms: C_6  and  C_7
REMARK    3  A    between atoms: C_8  and  N_9
REMARK    4  A    between atoms: N_12  and  C_13
REMARK    5  A    between atoms: C_13  and  C_14
REMARK    6  A    between atoms: C_14  and  C_15
REMARK    7  A    between atoms: C_15  and  N_16
REMARK    8  A    between atoms: N_16  and  C_17
REMARK    9  A    between atoms: C_17  and  C_18
REMARK   10  A    between atoms: C_17  and  C_19
REMARK                            x       y       z     vdW  Elec       q    Type
REMARK                         _______ _______ _______ _____ _____    ______ ____
ROOT
ATOM      1  N   UNL     1       4.653   3.362  18.786  0.00  0.00    +0.000 N 
ATOM      2  C   UNL     1       5.617   4.315  18.953  0.00  0.00    +0.000 C 
ATOM      3  O   UNL     1       5.452   5.232  19.743  0.00  0.00    +0.000 OA
ATOM      4  N   UNL     1       6.740   4.287  18.173  0.00  0.00    +0.000 N 
ATOM      5  H   UNL     1       4.778   2.712  17.996  0.00  0.00    +0.000 HD
ATOM      6  H   UNL     1       6.868   3.510  17.508  0.00  0.00    +0.000 HD
ENDROOT
BRANCH   1  14
ATOM      7  C   UNL     1       2.193   4.961  17.891  0.00  0.00    +0.000 C 
ATOM      8  C   UNL     1       2.237   4.033  19.086  0.00  0.00    +0.000 A 
ATOM      9  C   UNL     1       1.065   3.951  19.868  0.00  0.00    +0.000 A 
ATOM     10  C   UNL     1       1.024   3.169  21.016  0.00  0.00    +0.000 A 
ATOM     11  C   UNL     1       2.146   2.459  21.417  0.00  0.00    +0.000 A 
ATOM     12  C   UNL     1       3.335   2.522  20.674  0.00  0.00    +0.000 A 
ATOM     13  C   UNL     1       4.515   1.703  21.134  0.00  0.00    +0.000 C 
ATOM     14  C   UNL     1       3.399   3.304  19.489  0.00  0.00    +0.000 A 
ENDBRANCH   1  14
BRANCH   4  15
ATOM     15  C   UNL     1       7.749   5.335  18.247  0.00  0.00    +0.000 C 
BRANCH  15  16
ATOM     16  C   UNL     1       7.377   6.593  17.436  0.00  0.00    +0.000 C 
BRANCH  16  17
ATOM     17  C   UNL     1       6.609   6.273  16.142  0.00  0.00    +0.000 C 
BRANCH  17  18
ATOM     18  N   UNL     1       7.374   5.327  15.310  0.00  0.00    +0.000 NA
ATOM     19  H   UNL     1       8.123   4.907  15.913  0.00  0.00    +0.000 HD
BRANCH  18  20
ATOM     20  C   UNL     1       6.553   4.218  14.776  0.00  0.00    +0.000 C 
ATOM     21  C   UNL     1       5.066   4.372  15.140  0.00  0.00    +0.000 C 
ATOM     22  C   UNL     1       6.685   4.180  13.246  0.00  0.00    +0.000 C 
ENDBRANCH  18  20
ENDBRANCH  17  18
ENDBRANCH  16  17
ENDBRANCH  15  16
ENDBRANCH   4  15
TORSDOF 6
ENDMDL
MODEL 4
REMARK VINA RESULT:      -6.7      1.196      1.201
REMARK  Name = 
REMARK  10 active torsions:
REMARK  status: ('A' for Active; 'I' for Inactive)
REMARK    1  A    between atoms: C_1  and  C_2
REMARK    2  A    between atoms: C_6  and  C_7
REMARK    3  A    between atoms: C_8  and  N_9
REMARK    4  A    between atoms: N_12  and  C_13
REMARK    5  A    between atoms: C_13  and  C_14
REMARK    6  A    between atoms: C_14  and  C_15
REMARK    7  A    between atoms: C_15  and  N_16
REMARK    8  A    between atoms: N_16  and  C_17
REMARK    9  A    between atoms: C_17  and  C_18
REMARK   10  A    between atoms: C_17  and  C_19
REMARK                            x       y       z     vdW  Elec       q    Type
REMARK                         _______ _______ _______ _____ _____    ______ ____
ROOT
ATOM      1  N   UNL     1       4.912   4.455  19.022  0.00  0.00    +0.000 N 
ATOM      2  C   UNL     1       5.207   4.104  17.736  0.00  0.00    +0.000 C 
ATOM      3  O   UNL     1       4.439   3.404  17.093  0.00  0.00    +0.000 OA
ATOM      4  N   UNL     1       6.404   4.474  17.190  0.00  0.00    +0.000 N 
ATOM      5  H   UNL     1       5.665   4.906  19.562  0.00  0.00    +0.000 HD
ATOM      6  H   UNL     1       7.045   5.063  17.742  0.00  0.00    +0.000 HD
ENDROOT
BRANCH   1  14
ATOM      7  C   UNL     1       4.606   1.728  20.392  0.00  0.00    +0.000 C 
ATOM      8  C   UNL     1       3.561   2.823  20.396  0.00  0.00    +0.000 A 
ATOM      9  C   UNL     1       2.339   2.530  21.037  0.00  0.00    +0.000 A 
ATOM     10  C   UNL     1       1.297   3.450  21.047  0.00  0.00    +0.000 A 
ATOM     11  C   UNL     1       1.443   4.676  20.414  0.00  0.00    +0.000 A 
ATOM     12  C   UNL     1       2.639   5.002  19.757  0.00  0.00    +0.000 A 
ATOM     13  C   UNL     1       2.759   6.362  19.115  0.00  0.00    +0.000 C 
ATOM     14  C   UNL     1       3.724   4.084  19.743  0.00  0.00    +0.000 A 
ENDBRANCH   1  14
BRANCH   4  15
ATOM     15  C   UNL     1       6.803   4.042  15.857  0.00  0.00    +0.000 C 
BRANCH  15  16
ATOM     16  C   UNL     1       6.293   4.974  14.739  0.00  0.00    +0.000 C 
BRANCH  16  17
ATOM     17  C   UNL     1       5.454   4.240  13.677  0.00  0.00    +0.000 C 
BRANCH  17  18
ATOM     18  N   UNL     1       6.232   3.142  13.077  0.00  0.00    +0.000 NA
ATOM     19  H   UNL     1       6.063   2.280  13.651  0.00  0.00    +0.000 HD
BRANCH  18  20
ATOM     20  C   UNL     1       5.839   2.839  11.683  0.00  0.00    +0.000 C 
ATOM     21  C   UNL     1       6.035   1.352  11.336  0.00  0.00    +0.000 C 
ATOM     22  C   UNL     1       4.359   3.201  11.483  0.00  0.00    +0.000 C 
ENDBRANCH  18  20
ENDBRANCH  17  18
ENDBRANCH  16  17
ENDBRANCH  15  16
ENDBRANCH   4  15
TORSDOF 6
ENDMDL
MODEL 5
REMARK VINA RESULT:      -6.7      1.104      2.147
REMARK  Name = 
REMARK  10 active torsions:
REMARK  status: ('A' for Active; 'I' for Inactive)
REMARK    1  A    between atoms: C_1  and  C_2
REMARK    2  A    between atoms: C_6  and  C_7
REMARK    3  A    between atoms: C_8  and  N_9
REMARK    4  A    between atoms: N_12  and  C_13
REMARK    5  A    between atoms: C_13  and  C_14
REMARK    6  A    between atoms: C_14  and  C_15
REMARK    7  A    between atoms: C_15  and  N_16
REMARK    8  A    between atoms: N_16  and  C_17
REMARK    9  A    between atoms: C_17  and  C_18
REMARK   10  A    between atoms: C_17  and  C_19
REMARK                            x       y       z     vdW  Elec       q    Type
REMARK                         _______ _______ _______ _____ _____    ______ ____
ROOT
ATOM      1  N   UNL     1       4.837   4.286  18.854  0.00  0.00    +0.000 N 
ATOM      2  C   UNL     1       5.059   3.990  17.539  0.00  0.00    +0.000 C 
ATOM      3  O   UNL     1       4.181   3.478  16.862  0.00  0.00    +0.000 OA
ATOM      4  N   UNL     1       6.298   4.197  16.998  0.00  0.00    +0.000 N 
ATOM      5  H   UNL     1       5.658   4.564  19.410  0.00  0.00    +0.000 HD
ATOM      6  H   UNL     1       7.032   4.628  17.579  0.00  0.00    +0.000 HD
ENDROOT
BRANCH   1  14
ATOM      7  C   UNL     1       2.562   6.343  18.888  0.00  0.00    +0.000 C 
ATOM      8  C   UNL     1       2.531   5.003  19.591  0.00  0.00    +0.000 A 
ATOM      9  C   UNL     1       1.383   4.718  20.361  0.00  0.00    +0.000 A 
ATOM     10  C   UNL     1       1.283   3.538  21.088  0.00  0.00    +0.000 A 
ATOM     11  C   UNL     1       2.323   2.619  21.073  0.00  0.00    +0.000 A 
ATOM     12  C   UNL     1       3.486   2.869  20.330  0.00  0.00    +0.000 A 
ATOM     13  C   UNL     1       4.572   1.823  20.319  0.00  0.00    +0.000 C 
ATOM     14  C   UNL     1       3.608   4.063  19.568  0.00  0.00    +0.000 A 
ENDBRANCH   1  14
BRANCH   4  15
ATOM     15  C   UNL     1       6.610   3.808  15.630  0.00  0.00    +0.000 C 
BRANCH  15  16
ATOM     16  C   UNL     1       6.554   4.987  14.636  0.00  0.00    +0.000 C 
BRANCH  16  17
ATOM     17  C   UNL     1       6.762   4.554  13.174  0.00  0.00    +0.000 C 
BRANCH  17  18
ATOM     18  N   UNL     1       6.363   3.147  12.992  0.00  0.00    +0.000 NA
ATOM     19  H   UNL     1       5.569   2.953  13.651  0.00  0.00    +0.000 HD
BRANCH  18  20
ATOM     20  C   UNL     1       5.895   2.842  11.622  0.00  0.00    +0.000 C 
ATOM     21  C   UNL     1       6.099   1.361  11.256  0.00  0.00    +0.000 C 
ATOM     22  C   UNL     1       4.400   3.177  11.510  0.00  0.00    +0.000 C 
ENDBRANCH  18  20
ENDBRANCH  17  18
ENDBRANCH  16  17
ENDBRANCH  15  16
ENDBRANCH   4  15
TORSDOF 6
ENDMDL
MODEL 6
REMARK VINA RESULT:      -6.7      1.341      1.604
REMARK  Name = 
REMARK  10 active torsions:
REMARK  status: ('A' for Active; 'I' for Inactive)
REMARK    1  A    between atoms: C_1  and  C_2
REMARK    2  A    between atoms: C_6  and  C_7
REMARK    3  A    between atoms: C_8  and  N_9
REMARK    4  A    between atoms: N_12  and  C_13
REMARK    5  A    between atoms: C_13  and  C_14
REMARK    6  A    between atoms: C_14  and  C_15
REMARK    7  A    between atoms: C_15  and  N_16
REMARK    8  A    between atoms: N_16  and  C_17
REMARK    9  A    between atoms: C_17  and  C_18
REMARK   10  A    between atoms: C_17  and  C_19
REMARK                            x       y       z     vdW  Elec       q    Type
REMARK                         _______ _______ _______ _____ _____    ______ ____
ROOT
ATOM      1  N   UNL     1       3.342   4.751  17.479  0.00  0.00    +0.000 N 
ATOM      2  C   UNL     1       4.664   4.526  17.217  0.00  0.00    +0.000 C 
ATOM      3  O   UNL     1       5.357   3.912  18.013  0.00  0.00    +0.000 OA
ATOM      4  N   UNL     1       5.232   5.060  16.094  0.00  0.00    +0.000 N 
ATOM      5  H   UNL     1       2.852   5.408  16.853  0.00  0.00    +0.000 HD
ATOM      6  H   UNL     1       4.638   5.578  15.430  0.00  0.00    +0.000 HD
ENDROOT
BRANCH   1  14
ATOM      7  C   UNL     1       2.580   1.812  17.915  0.00  0.00    +0.000 C 
ATOM      8  C   UNL     1       2.271   2.941  18.876  0.00  0.00    +0.000 A 
ATOM      9  C   UNL     1       1.529   2.607  20.029  0.00  0.00    +0.000 A 
ATOM     10  C   UNL     1       1.149   3.581  20.943  0.00  0.00    +0.000 A 
ATOM     11  C   UNL     1       1.490   4.910  20.729  0.00  0.00    +0.000 A 
ATOM     12  C   UNL     1       2.218   5.285  19.591  0.00  0.00    +0.000 A 
ATOM     13  C   UNL     1       2.594   6.736  19.423  0.00  0.00    +0.000 C 
ATOM     14  C   UNL     1       2.630   4.306  18.646  0.00  0.00    +0.000 A 
ENDBRANCH   1  14
BRANCH   4  15
ATOM     15  C   UNL     1       6.658   4.929  15.823  0.00  0.00    +0.000 C 
BRANCH  15  16
ATOM     16  C   UNL     1       6.991   4.923  14.316  0.00  0.00    +0.000 C 
BRANCH  16  17
ATOM     17  C   UNL     1       5.949   4.169  13.471  0.00  0.00    +0.000 C 
BRANCH  17  18
ATOM     18  N   UNL     1       6.563   2.993  12.828  0.00  0.00    +0.000 NA
ATOM     19  H   UNL     1       6.451   2.179  13.480  0.00  0.00    +0.000 HD
BRANCH  18  20
ATOM     20  C   UNL     1       5.928   2.631  11.542  0.00  0.00    +0.000 C 
ATOM     21  C   UNL     1       5.975   1.115  11.280  0.00  0.00    +0.000 C 
ATOM     22  C   UNL     1       4.459   3.083  11.555  0.00  0.00    +0.000 C 
ENDBRANCH  18  20
ENDBRANCH  17  18
ENDBRANCH  16  17
ENDBRANCH  15  16
ENDBRANCH   4  15
TORSDOF 6
ENDMDL
MODEL 7
REMARK VINA RESULT:      -6.6      1.451      1.579
REMARK  Name = 
REMARK  10 active torsions:
REMARK  status: ('A' for Active; 'I' for Inactive)
REMARK    1  A    between atoms: C_1  and  C_2
REMARK    2  A    between atoms: C_6  and  C_7
REMARK    3  A    between atoms: C_8  and  N_9
REMARK    4  A    between atoms: N_12  and  C_13
REMARK    5  A    between atoms: C_13  and  C_14
REMARK    6  A    between atoms: C_14  and  C_15
REMARK    7  A    between atoms: C_15  and  N_16
REMARK    8  A    between atoms: N_16  and  C_17
REMARK    9  A    between atoms: C_17  and  C_18
REMARK   10  A    between atoms: C_17  and  C_19
REMARK                            x       y       z     vdW  Elec       q    Type
REMARK                         _______ _______ _______ _____ _____    ______ ____
ROOT
ATOM      1  N   UNL     1       4.565   4.410  19.005  0.00  0.00    +0.000 N 
ATOM      2  C   UNL     1       4.868   4.946  17.786  0.00  0.00    +0.000 C 
ATOM      3  O   UNL     1       4.019   5.010  16.910  0.00  0.00    +0.000 OA
ATOM      4  N   UNL     1       6.149   5.341  17.519  0.00  0.00    +0.000 N 
ATOM      5  H   UNL     1       5.356   4.235  19.643  0.00  0.00    +0.000 HD
ATOM      6  H   UNL     1       6.857   5.281  18.265  0.00  0.00    +0.000 HD
ENDROOT
BRANCH   1  14
ATOM      7  C   UNL     1       3.772   1.475  18.598  0.00  0.00    +0.000 C 
ATOM      8  C   UNL     1       2.892   2.532  19.230  0.00  0.00    +0.000 A 
ATOM      9  C   UNL     1       1.591   2.133  19.605  0.00  0.00    +0.000 A 
ATOM     10  C   UNL     1       0.689   3.043  20.143  0.00  0.00    +0.000 A 
ATOM     11  C   UNL     1       1.056   4.371  20.312  0.00  0.00    +0.000 A 
ATOM     12  C   UNL     1       2.336   4.811  19.942  0.00  0.00    +0.000 A 
ATOM     13  C   UNL     1       2.695   6.256  20.180  0.00  0.00    +0.000 C 
ATOM     14  C   UNL     1       3.281   3.897  19.402  0.00  0.00    +0.000 A 
ENDBRANCH   1  14
BRANCH   4  15
ATOM     15  C   UNL     1       6.540   5.828  16.203  0.00  0.00    +0.000 C 
BRANCH  15  16
ATOM     16  C   UNL     1       6.975   4.701  15.244  0.00  0.00    +0.000 C 
BRANCH  16  17
ATOM     17  C   UNL     1       5.912   4.368  14.182  0.00  0.00    +0.000 C 
BRANCH  17  18
ATOM     18  N   UNL     1       6.265   3.126  13.473  0.00  0.00    +0.000 NA
ATOM     19  H   UNL     1       5.620   2.371  13.812  0.00  0.00    +0.000 HD
BRANCH  18  20
ATOM     20  C   UNL     1       6.109   3.224  12.005  0.00  0.00    +0.000 C 
ATOM     21  C   UNL     1       6.785   2.053  11.271  0.00  0.00    +0.000 C 
ATOM     22  C   UNL     1       4.614   3.230  11.652  0.00  0.00    +0.000 C 
ENDBRANCH  18  20
ENDBRANCH  17  18
ENDBRANCH  16  17
ENDBRANCH  15  16
ENDBRANCH   4  15
TORSDOF 6
ENDMDL
MODEL 8
REMARK VINA RESULT:      -6.5      1.421      1.972
REMARK  Name = 
REMARK  10 active torsions:
REMARK  status: ('A' for Active; 'I' for Inactive)
REMARK    1  A    between atoms: C_1  and  C_2
REMARK    2  A    between atoms: C_6  and  C_7
REMARK    3  A    between atoms: C_8  and  N_9
REMARK    4  A    between atoms: N_12  and  C_13
REMARK    5  A    between atoms: C_13  and  C_14
REMARK    6  A    between atoms: C_14  and  C_15
REMARK    7  A    between atoms: C_15  and  N_16
REMARK    8  A    between atoms: N_16  and  C_17
REMARK    9  A    between atoms: C_17  and  C_18
REMARK   10  A    between atoms: C_17  and  C_19
REMARK                            x       y       z     vdW  Elec       q    Type
REMARK                         _______ _______ _______ _____ _____    ______ ____
ROOT
ATOM      1  N   UNL     1       3.113   4.848  17.439  0.00  0.00    +0.000 N 
ATOM      2  C   UNL     1       4.459   4.871  17.211  0.00  0.00    +0.000 C 
ATOM      3  O   UNL     1       5.241   4.509  18.077  0.00  0.00    +0.000 OA
ATOM      4  N   UNL     1       4.938   5.376  16.034  0.00  0.00    +0.000 N 
ATOM      5  H   UNL     1       2.517   5.312  16.739  0.00  0.00    +0.000 HD
ATOM      6  H   UNL     1       4.270   5.680  15.311  0.00  0.00    +0.000 HD
ENDROOT
BRANCH   1  14
ATOM      7  C   UNL     1       2.412   6.769  19.725  0.00  0.00    +0.000 C 
ATOM      8  C   UNL     1       2.130   5.282  19.725  0.00  0.00    +0.000 A 
ATOM      9  C   UNL     1       1.550   4.747  20.894  0.00  0.00    +0.000 A 
ATOM     10  C   UNL     1       1.303   3.385  21.012  0.00  0.00    +0.000 A 
ATOM     11  C   UNL     1       1.634   2.523  19.976  0.00  0.00    +0.000 A 
ATOM     12  C   UNL     1       2.223   3.013  18.800  0.00  0.00    +0.000 A 
ATOM     13  C   UNL     1       2.531   2.040  17.690  0.00  0.00    +0.000 C 
ATOM     14  C   UNL     1       2.474   4.404  18.650  0.00  0.00    +0.000 A 
ENDBRANCH   1  14
BRANCH   4  15
ATOM     15  C   UNL     1       6.367   5.511  15.785  0.00  0.00    +0.000 C 
BRANCH  15  16
ATOM     16  C   UNL     1       6.945   4.367  14.927  0.00  0.00    +0.000 C 
BRANCH  16  17
ATOM     17  C   UNL     1       5.966   3.866  13.850  0.00  0.00    +0.000 C 
BRANCH  17  18
ATOM     18  N   UNL     1       6.649   3.745  12.550  0.00  0.00    +0.000 NA
ATOM     19  H   UNL     1       7.501   3.150  12.693  0.00  0.00    +0.000 HD
BRANCH  18  20
ATOM     20  C   UNL     1       5.819   3.100  11.510  0.00  0.00    +0.000 C 
ATOM     21  C   UNL     1       6.032   1.577  11.460  0.00  0.00    +0.000 C 
ATOM     22  C   UNL     1       4.336   3.380  11.797  0.00  0.00    +0.000 C 
ENDBRANCH  18  20
ENDBRANCH  17  18
ENDBRANCH  16  17
ENDBRANCH  15  16
ENDBRANCH   4  15
TORSDOF 6
ENDMDL
MODEL 9
REMARK VINA RESULT:      -6.5      2.027      2.830
REMARK  Name = 
REMARK  10 active torsions:
REMARK  status: ('A' for Active; 'I' for Inactive)
REMARK    1  A    between atoms: C_1  and  C_2
REMARK    2  A    between atoms: C_6  and  C_7
REMARK    3  A    between atoms: C_8  and  N_9
REMARK    4  A    between atoms: N_12  and  C_13
REMARK    5  A    between atoms: C_13  and  C_14
REMARK    6  A    between atoms: C_14  and  C_15
REMARK    7  A    between atoms: C_15  and  N_16
REMARK    8  A    between atoms: N_16  and  C_17
REMARK    9  A    between atoms: C_17  and  C_18
REMARK   10  A    between atoms: C_17  and  C_19
REMARK                            x       y       z     vdW  Elec       q    Type
REMARK                         _______ _______ _______ _____ _____    ______ ____
ROOT
ATOM      1  N   UNL     1       3.189   5.195  17.902  0.00  0.00    +0.000 N 
ATOM      2  C   UNL     1       4.447   5.692  18.089  0.00  0.00    +0.000 C 
ATOM      3  O   UNL     1       5.039   5.501  19.140  0.00  0.00    +0.000 OA
ATOM      4  N   UNL     1       5.016   6.475  17.123  0.00  0.00    +0.000 N 
ATOM      5  H   UNL     1       2.681   5.522  17.067  0.00  0.00    +0.000 HD
ATOM      6  H   UNL     1       4.507   6.630  16.241  0.00  0.00    +0.000 HD
ENDROOT
BRANCH   1  14
ATOM      7  C   UNL     1       1.867   6.439  20.374  0.00  0.00    +0.000 C 
ATOM      8  C   UNL     1       1.813   4.971  20.008  0.00  0.00    +0.000 A 
ATOM      9  C   UNL     1       1.147   4.116  20.911  0.00  0.00    +0.000 A 
ATOM     10  C   UNL     1       1.091   2.745  20.691  0.00  0.00    +0.000 A 
ATOM     11  C   UNL     1       1.703   2.192  19.575  0.00  0.00    +0.000 A 
ATOM     12  C   UNL     1       2.385   3.006  18.658  0.00  0.00    +0.000 A 
ATOM     13  C   UNL     1       3.001   2.360  17.443  0.00  0.00    +0.000 C 
ATOM     14  C   UNL     1       2.445   4.412  18.853  0.00  0.00    +0.000 A 
ENDBRANCH   1  14
BRANCH   4  15
ATOM     15  C   UNL     1       6.314   7.107  17.318  0.00  0.00    +0.000 C 
BRANCH  15  16
ATOM     16  C   UNL     1       7.454   6.094  17.551  0.00  0.00    +0.000 C 
BRANCH  16  17
ATOM     17  C   UNL     1       7.430   4.918  16.558  0.00  0.00    +0.000 C 
BRANCH  17  18
ATOM     18  N   UNL     1       7.321   5.416  15.175  0.00  0.00    +0.000 NA
ATOM     19  H   UNL     1       8.247   5.262  14.707  0.00  0.00    +0.000 HD
BRANCH  18  20
ATOM     20  C   UNL     1       6.292   4.712  14.379  0.00  0.00    +0.000 C 
ATOM     21  C   UNL     1       6.862   4.143  13.068  0.00  0.00    +0.000 C 
ATOM     22  C   UNL     1       5.711   3.555  15.207  0.00  0.00    +0.000 C 
ENDBRANCH  18  20
ENDBRANCH  17  18
ENDBRANCH  16  17
ENDBRANCH  15  16
ENDBRANCH   4  15
TORSDOF 6
ENDMDL
