MODEL 1
REMARK VINA RESULT:      -8.1      0.000      0.000
REMARK  Name = 
REMARK  4 active torsions:
REMARK  status: ('A' for Active; 'I' for Inactive)
REMARK    1  A    between atoms: C_1  and  N_2
REMARK    2  A    between atoms: N_5  and  C_6
REMARK    3  A    between atoms: C_6  and  C_7
REMARK    4  A    between atoms: C_8  and  C_9
REMARK                            x       y       z     vdW  Elec       q    Type
REMARK                         _______ _______ _______ _____ _____    ______ ____
ROOT
ATOM      1  C   UNL     1       3.748   5.226  17.218  0.00  0.00    +0.000 A 
ATOM      2  C   UNL     1       3.879   6.549  17.618  0.00  0.00    +0.000 A 
ATOM      3  N   UNL     1       5.062   7.086  17.163  0.00  0.00    +0.000 NA
ATOM      4  C   UNL     1       5.674   6.129  16.498  0.00  0.00    +0.000 A 
ATOM      5  N   UNL     1       6.894   6.163  15.880  0.00  0.00    +0.000 NA
ATOM      6  C   UNL     1       7.248   5.089  15.244  0.00  0.00    +0.000 A 
ATOM      7  C   UNL     1       6.453   3.838  15.114  0.00  0.00    +0.000 A 
ATOM      8  C   UNL     1       5.279   3.845  15.759  0.00  0.00    +0.000 A 
ATOM      9  N   UNL     1       4.885   4.979  16.469  0.00  0.00    +0.000 N 
ENDROOT
BRANCH   2  10
ATOM     10  C   UNL     1       2.905   7.350  18.354  0.00  0.00    +0.000 A 
ATOM     11  C   UNL     1       2.309   8.496  17.817  0.00  0.00    +0.000 A 
ATOM     12  C   UNL     1       1.455   9.292  18.586  0.00  0.00    +0.000 A 
ATOM     13  C   UNL     1       1.152   8.926  19.893  0.00  0.00    +0.000 A 
ATOM     14  C   UNL     1       1.693   7.759  20.428  0.00  0.00    +0.000 A 
ATOM     15  C   UNL     1       2.563   6.974  19.663  0.00  0.00    +0.000 A 
ENDBRANCH   2  10
BRANCH   1  16
ATOM     16  C   UNL     1       2.692   4.200  17.455  0.00  0.00    +0.000 C 
BRANCH  16  21
ATOM     17  C   UNL     1       1.257   2.820  21.729  0.00  0.00    +0.000 C 
ATOM     18  N   UNL     1       2.083   2.399  20.603  0.00  0.00    +0.000 NA
ATOM     19  C   UNL     1       3.217   3.320  20.406  0.00  0.00    +0.000 C 
ATOM     20  C   UNL     1       4.038   3.007  19.133  0.00  0.00    +0.000 C 
ATOM     21  N   UNL     1       3.232   2.912  17.899  0.00  0.00    +0.000 NA
ATOM     22  C   UNL     1       2.149   1.937  18.140  0.00  0.00    +0.000 C 
ATOM     23  C   UNL     1       1.280   2.261  19.377  0.00  0.00    +0.000 C 
ENDBRANCH  16  21
ENDBRANCH   1  16
TORSDOF 3
ENDMDL
MODEL 2
REMARK VINA RESULT:      -8.0      0.097      1.008
REMARK  Name = 
REMARK  4 active torsions:
REMARK  status: ('A' for Active; 'I' for Inactive)
REMARK    1  A    between atoms: C_1  and  N_2
REMARK    2  A    between atoms: N_5  and  C_6
REMARK    3  A    between atoms: C_6  and  C_7
REMARK    4  A    between atoms: C_8  and  C_9
REMARK                            x       y       z     vdW  Elec       q    Type
REMARK                         _______ _______ _______ _____ _____    ______ ____
ROOT
ATOM      1  C   UNL     1       3.758   5.197  17.208  0.00  0.00    +0.000 A 
ATOM      2  C   UNL     1       3.937   6.506  17.633  0.00  0.00    +0.000 A 
ATOM      3  N   UNL     1       5.116   7.025  17.147  0.00  0.00    +0.000 NA
ATOM      4  C   UNL     1       5.678   6.070  16.437  0.00  0.00    +0.000 A 
ATOM      5  N   UNL     1       6.875   6.088  15.775  0.00  0.00    +0.000 NA
ATOM      6  C   UNL     1       7.177   5.021  15.101  0.00  0.00    +0.000 A 
ATOM      7  C   UNL     1       6.346   3.794  14.971  0.00  0.00    +0.000 A 
ATOM      8  C   UNL     1       5.198   3.814  15.661  0.00  0.00    +0.000 A 
ATOM      9  N   UNL     1       4.859   4.940  16.411  0.00  0.00    +0.000 N 
ENDROOT
BRANCH   2  10
ATOM     10  C   UNL     1       3.012   7.313  18.424  0.00  0.00    +0.000 A 
ATOM     11  C   UNL     1       2.609   6.952  19.714  0.00  0.00    +0.000 A 
ATOM     12  C   UNL     1       1.648   7.698  20.404  0.00  0.00    +0.000 A 
ATOM     13  C   UNL     1       1.107   8.841  19.825  0.00  0.00    +0.000 A 
ATOM     14  C   UNL     1       1.535   9.246  18.563  0.00  0.00    +0.000 A 
ATOM     15  C   UNL     1       2.483   8.488  17.866  0.00  0.00    +0.000 A 
ENDBRANCH   2  10
BRANCH   1  16
ATOM     16  C   UNL     1       2.685   4.192  17.461  0.00  0.00    +0.000 C 
BRANCH  16  21
ATOM     17  C   UNL     1       1.289   2.836  21.755  0.00  0.00    +0.000 C 
ATOM     18  N   UNL     1       2.089   2.400  20.616  0.00  0.00    +0.000 NA
ATOM     19  C   UNL     1       3.239   3.298  20.402  0.00  0.00    +0.000 C 
ATOM     20  C   UNL     1       4.033   2.971  19.116  0.00  0.00    +0.000 C 
ATOM     21  N   UNL     1       3.207   2.893  17.895  0.00  0.00    +0.000 NA
ATOM     22  C   UNL     1       2.108   1.939  18.152  0.00  0.00    +0.000 C 
ATOM     23  C   UNL     1       1.265   2.279  19.403  0.00  0.00    +0.000 C 
ENDBRANCH  16  21
ENDBRANCH   1  16
TORSDOF 3
ENDMDL
MODEL 3
REMARK VINA RESULT:      -7.7      1.704      5.060
REMARK  Name = 
REMARK  4 active torsions:
REMARK  status: ('A' for Active; 'I' for Inactive)
REMARK    1  A    between atoms: C_1  and  N_2
REMARK    2  A    between atoms: N_5  and  C_6
REMARK    3  A    between atoms: C_6  and  C_7
REMARK    4  A    between atoms: C_8  and  C_9
REMARK                            x       y       z     vdW  Elec       q    Type
REMARK                         _______ _______ _______ _____ _____    ______ ____
ROOT
ATOM      1  C   UNL     1       3.144   6.677  18.947  0.00  0.00    +0.000 A 
ATOM      2  C   UNL     1       3.888   6.840  17.787  0.00  0.00    +0.000 A 
ATOM      3  N   UNL     1       3.536   8.001  17.135  0.00  0.00    +0.000 NA
ATOM      4  C   UNL     1       2.587   8.560  17.856  0.00  0.00    +0.000 A 
ATOM      5  N   UNL     1       1.895   9.714  17.612  0.00  0.00    +0.000 NA
ATOM      6  C   UNL     1       1.037  10.074  18.516  0.00  0.00    +0.000 A 
ATOM      7  C   UNL     1       0.746   9.363  19.789  0.00  0.00    +0.000 A 
ATOM      8  C   UNL     1       1.428   8.224  19.969  0.00  0.00    +0.000 A 
ATOM      9  N   UNL     1       2.341   7.803  19.002  0.00  0.00    +0.000 N 
ENDROOT
BRANCH   2  10
ATOM     10  C   UNL     1       4.964   5.982  17.300  0.00  0.00    +0.000 A 
ATOM     11  C   UNL     1       6.162   5.802  17.999  0.00  0.00    +0.000 A 
ATOM     12  C   UNL     1       7.208   5.051  17.457  0.00  0.00    +0.000 A 
ATOM     13  C   UNL     1       7.053   4.433  16.220  0.00  0.00    +0.000 A 
ATOM     14  C   UNL     1       5.848   4.556  15.533  0.00  0.00    +0.000 A 
ATOM     15  C   UNL     1       4.809   5.325  16.068  0.00  0.00    +0.000 A 
ENDBRANCH   2  10
BRANCH   1  16
ATOM     16  C   UNL     1       3.113   5.605  19.984  0.00  0.00    +0.000 C 
BRANCH  16  21
ATOM     17  C   UNL     1       3.756   1.155  18.565  0.00  0.00    +0.000 C 
ATOM     18  N   UNL     1       2.722   2.078  19.021  0.00  0.00    +0.000 NA
ATOM     19  C   UNL     1       2.557   3.196  18.074  0.00  0.00    +0.000 C 
ATOM     20  C   UNL     1       1.582   4.284  18.584  0.00  0.00    +0.000 C 
ATOM     21  N   UNL     1       1.893   4.793  19.935  0.00  0.00    +0.000 NA
ATOM     22  C   UNL     1       1.991   3.634  20.846  0.00  0.00    +0.000 C 
ATOM     23  C   UNL     1       3.003   2.559  20.383  0.00  0.00    +0.000 C 
ENDBRANCH  16  21
ENDBRANCH   1  16
TORSDOF 3
ENDMDL
MODEL 4
REMARK VINA RESULT:      -7.7      1.729      5.098
REMARK  Name = 
REMARK  4 active torsions:
REMARK  status: ('A' for Active; 'I' for Inactive)
REMARK    1  A    between atoms: C_1  and  N_2
REMARK    2  A    between atoms: N_5  and  C_6
REMARK    3  A    between atoms: C_6  and  C_7
REMARK    4  A    between atoms: C_8  and  C_9
REMARK                            x       y       z     vdW  Elec       q    Type
REMARK                         _______ _______ _______ _____ _____    ______ ____
ROOT
ATOM      1  C   UNL     1       3.069   6.712  19.053  0.00  0.00    +0.000 A 
ATOM      2  C   UNL     1       3.644   6.965  17.816  0.00  0.00    +0.000 A 
ATOM      3  N   UNL     1       3.139   8.120  17.264  0.00  0.00    +0.000 NA
ATOM      4  C   UNL     1       2.258   8.589  18.123  0.00  0.00    +0.000 A 
ATOM      5  N   UNL     1       1.469   9.701  18.017  0.00  0.00    +0.000 NA
ATOM      6  C   UNL     1       0.714   9.971  19.037  0.00  0.00    +0.000 A 
ATOM      7  C   UNL     1       0.636   9.200  20.307  0.00  0.00    +0.000 A 
ATOM      8  C   UNL     1       1.407   8.104  20.350  0.00  0.00    +0.000 A 
ATOM      9  N   UNL     1       2.210   7.778  19.258  0.00  0.00    +0.000 N 
ENDROOT
BRANCH   2  10
ATOM     10  C   UNL     1       4.700   6.199  17.160  0.00  0.00    +0.000 A 
ATOM     11  C   UNL     1       4.453   5.000  16.482  0.00  0.00    +0.000 A 
ATOM     12  C   UNL     1       5.502   4.244  15.949  0.00  0.00    +0.000 A 
ATOM     13  C   UNL     1       6.811   4.701  16.052  0.00  0.00    +0.000 A 
ATOM     14  C   UNL     1       7.071   5.919  16.676  0.00  0.00    +0.000 A 
ATOM     15  C   UNL     1       6.023   6.665  17.226  0.00  0.00    +0.000 A 
ENDBRANCH   2  10
BRANCH   1  16
ATOM     16  C   UNL     1       3.240   5.606  20.040  0.00  0.00    +0.000 C 
BRANCH  16  21
ATOM     17  C   UNL     1       3.713   1.128  18.642  0.00  0.00    +0.000 C 
ATOM     18  N   UNL     1       2.749   2.053  19.228  0.00  0.00    +0.000 NA
ATOM     19  C   UNL     1       2.429   3.147  18.293  0.00  0.00    +0.000 C 
ATOM     20  C   UNL     1       1.530   4.238  18.919  0.00  0.00    +0.000 C 
ATOM     21  N   UNL     1       2.037   4.784  20.195  0.00  0.00    +0.000 NA
ATOM     22  C   UNL     1       2.285   3.648  21.107  0.00  0.00    +0.000 C 
ATOM     23  C   UNL     1       3.228   2.570  20.521  0.00  0.00    +0.000 C 
ENDBRANCH  16  21
ENDBRANCH   1  16
TORSDOF 3
ENDMDL
MODEL 5
REMARK VINA RESULT:      -7.6      1.419      5.091
REMARK  Name = 
REMARK  4 active torsions:
REMARK  status: ('A' for Active; 'I' for Inactive)
REMARK    1  A    between atoms: C_1  and  N_2
REMARK    2  A    between atoms: N_5  and  C_6
REMARK    3  A    between atoms: C_6  and  C_7
REMARK    4  A    between atoms: C_8  and  C_9
REMARK                            x       y       z     vdW  Elec       q    Type
REMARK                         _______ _______ _______ _____ _____    ______ ____
ROOT
ATOM      1  C   UNL     1       3.044   5.423  19.052  0.00  0.00    +0.000 A 
ATOM      2  C   UNL     1       2.234   6.282  19.781  0.00  0.00    +0.000 A 
ATOM      3  N   UNL     1       1.787   5.678  20.934  0.00  0.00    +0.000 NA
ATOM      4  C   UNL     1       2.291   4.462  20.937  0.00  0.00    +0.000 A 
ATOM      5  N   UNL     1       2.115   3.466  21.857  0.00  0.00    +0.000 NA
ATOM      6  C   UNL     1       2.772   2.367  21.650  0.00  0.00    +0.000 A 
ATOM      7  C   UNL     1       3.701   2.094  20.521  0.00  0.00    +0.000 A 
ATOM      8  C   UNL     1       3.818   3.089  19.632  0.00  0.00    +0.000 A 
ATOM      9  N   UNL     1       3.106   4.273  19.820  0.00  0.00    +0.000 N 
ENDROOT
BRANCH   2  10
ATOM     10  C   UNL     1       1.917   7.673  19.470  0.00  0.00    +0.000 A 
ATOM     11  C   UNL     1       1.347   8.545  20.404  0.00  0.00    +0.000 A 
ATOM     12  C   UNL     1       0.968   9.841  20.043  0.00  0.00    +0.000 A 
ATOM     13  C   UNL     1       1.193  10.297  18.748  0.00  0.00    +0.000 A 
ATOM     14  C   UNL     1       1.808   9.461  17.819  0.00  0.00    +0.000 A 
ATOM     15  C   UNL     1       2.170   8.158  18.176  0.00  0.00    +0.000 A 
ENDBRANCH   2  10
BRANCH   1  16
ATOM     16  C   UNL     1       3.752   5.566  17.747  0.00  0.00    +0.000 C 
BRANCH  16  21
ATOM     17  C   UNL     1       6.688   4.578  14.192  0.00  0.00    +0.000 C 
ATOM     18  N   UNL     1       6.615   5.307  15.453  0.00  0.00    +0.000 NA
ATOM     19  C   UNL     1       6.401   4.387  16.584  0.00  0.00    +0.000 C 
ATOM     20  C   UNL     1       6.164   5.119  17.926  0.00  0.00    +0.000 C 
ATOM     21  N   UNL     1       5.096   6.137  17.882  0.00  0.00    +0.000 NA
ATOM     22  C   UNL     1       5.394   7.059  16.766  0.00  0.00    +0.000 C 
ATOM     23  C   UNL     1       5.580   6.353  15.403  0.00  0.00    +0.000 C 
ENDBRANCH  16  21
ENDBRANCH   1  16
TORSDOF 3
ENDMDL
MODEL 6
REMARK VINA RESULT:      -7.5      1.420      5.036
REMARK  Name = 
REMARK  4 active torsions:
REMARK  status: ('A' for Active; 'I' for Inactive)
REMARK    1  A    between atoms: C_1  and  N_2
REMARK    2  A    between atoms: N_5  and  C_6
REMARK    3  A    between atoms: C_6  and  C_7
REMARK    4  A    between atoms: C_8  and  C_9
REMARK                            x       y       z     vdW  Elec       q    Type
REMARK                         _______ _______ _______ _____ _____    ______ ____
ROOT
ATOM      1  C   UNL     1       3.033   5.405  19.001  0.00  0.00    +0.000 A 
ATOM      2  C   UNL     1       2.205   6.271  19.701  0.00  0.00    +0.000 A 
ATOM      3  N   UNL     1       1.754   5.689  20.864  0.00  0.00    +0.000 NA
ATOM      4  C   UNL     1       2.274   4.481  20.902  0.00  0.00    +0.000 A 
ATOM      5  N   UNL     1       2.103   3.505  21.844  0.00  0.00    +0.000 NA
ATOM      6  C   UNL     1       2.776   2.409  21.670  0.00  0.00    +0.000 A 
ATOM      7  C   UNL     1       3.720   2.122  20.557  0.00  0.00    +0.000 A 
ATOM      8  C   UNL     1       3.832   3.097  19.645  0.00  0.00    +0.000 A 
ATOM      9  N   UNL     1       3.102   4.276  19.797  0.00  0.00    +0.000 N 
ENDROOT
BRANCH   2  10
ATOM     10  C   UNL     1       1.872   7.650  19.353  0.00  0.00    +0.000 A 
ATOM     11  C   UNL     1       2.124   8.191  18.088  0.00  0.00    +0.000 A 
ATOM     12  C   UNL     1       1.882   9.542  17.821  0.00  0.00    +0.000 A 
ATOM     13  C   UNL     1       1.343  10.361  18.808  0.00  0.00    +0.000 A 
ATOM     14  C   UNL     1       1.036   9.827  20.057  0.00  0.00    +0.000 A 
ATOM     15  C   UNL     1       1.297   8.480  20.329  0.00  0.00    +0.000 A 
ENDBRANCH   2  10
BRANCH   1  16
ATOM     16  C   UNL     1       3.752   5.527  17.699  0.00  0.00    +0.000 C 
BRANCH  16  21
ATOM     17  C   UNL     1       6.717   4.579  14.158  0.00  0.00    +0.000 C 
ATOM     18  N   UNL     1       6.624   5.319  15.412  0.00  0.00    +0.000 NA
ATOM     19  C   UNL     1       6.432   4.404  16.552  0.00  0.00    +0.000 C 
ATOM     20  C   UNL     1       6.174   5.142  17.886  0.00  0.00    +0.000 C 
ATOM     21  N   UNL     1       5.080   6.133  17.831  0.00  0.00    +0.000 NA
ATOM     22  C   UNL     1       5.357   7.052  16.707  0.00  0.00    +0.000 C 
ATOM     23  C   UNL     1       5.563   6.337  15.351  0.00  0.00    +0.000 C 
ENDBRANCH  16  21
ENDBRANCH   1  16
TORSDOF 3
ENDMDL
MODEL 7
REMARK VINA RESULT:      -7.5      2.169      5.879
REMARK  Name = 
REMARK  4 active torsions:
REMARK  status: ('A' for Active; 'I' for Inactive)
REMARK    1  A    between atoms: C_1  and  N_2
REMARK    2  A    between atoms: N_5  and  C_6
REMARK    3  A    between atoms: C_6  and  C_7
REMARK    4  A    between atoms: C_8  and  C_9
REMARK                            x       y       z     vdW  Elec       q    Type
REMARK                         _______ _______ _______ _____ _____    ______ ____
ROOT
ATOM      1  C   UNL     1       2.353   6.964  18.866  0.00  0.00    +0.000 A 
ATOM      2  C   UNL     1       1.790   6.410  20.007  0.00  0.00    +0.000 A 
ATOM      3  N   UNL     1       1.158   7.373  20.761  0.00  0.00    +0.000 NA
ATOM      4  C   UNL     1       1.319   8.512  20.122  0.00  0.00    +0.000 A 
ATOM      5  N   UNL     1       0.896   9.762  20.482  0.00  0.00    +0.000 NA
ATOM      6  C   UNL     1       1.143  10.719  19.642  0.00  0.00    +0.000 A 
ATOM      7  C   UNL     1       1.826  10.584  18.327  0.00  0.00    +0.000 A 
ATOM      8  C   UNL     1       2.245   9.346  18.032  0.00  0.00    +0.000 A 
ATOM      9  N   UNL     1       2.012   8.304  18.929  0.00  0.00    +0.000 N 
ENDROOT
BRANCH   2  10
ATOM     10  C   UNL     1       1.766   5.000  20.385  0.00  0.00    +0.000 A 
ATOM     11  C   UNL     1       2.494   4.496  21.468  0.00  0.00    +0.000 A 
ATOM     12  C   UNL     1       2.524   3.125  21.742  0.00  0.00    +0.000 A 
ATOM     13  C   UNL     1       1.788   2.243  20.957  0.00  0.00    +0.000 A 
ATOM     14  C   UNL     1       1.014   2.733  19.907  0.00  0.00    +0.000 A 
ATOM     15  C   UNL     1       1.001   4.102  19.623  0.00  0.00    +0.000 A 
ENDBRANCH   2  10
BRANCH   1  16
ATOM     16  C   UNL     1       3.151   6.381  17.748  0.00  0.00    +0.000 C 
BRANCH  16  21
ATOM     17  C   UNL     1       5.656   4.202  14.400  0.00  0.00    +0.000 C 
ATOM     18  N   UNL     1       5.739   4.661  15.782  0.00  0.00    +0.000 NA
ATOM     19  C   UNL     1       4.768   3.951  16.635  0.00  0.00    +0.000 C 
ATOM     20  C   UNL     1       4.708   4.505  18.078  0.00  0.00    +0.000 C 
ATOM     21  N   UNL     1       4.495   5.964  18.159  0.00  0.00    +0.000 NA
ATOM     22  C   UNL     1       5.529   6.621  17.332  0.00  0.00    +0.000 C 
ATOM     23  C   UNL     1       5.570   6.120  15.869  0.00  0.00    +0.000 C 
ENDBRANCH  16  21
ENDBRANCH   1  16
TORSDOF 3
ENDMDL
MODEL 8
REMARK VINA RESULT:      -7.5      2.159      5.859
REMARK  Name = 
REMARK  4 active torsions:
REMARK  status: ('A' for Active; 'I' for Inactive)
REMARK    1  A    between atoms: C_1  and  N_2
REMARK    2  A    between atoms: N_5  and  C_6
REMARK    3  A    between atoms: C_6  and  C_7
REMARK    4  A    between atoms: C_8  and  C_9
REMARK                            x       y       z     vdW  Elec       q    Type
REMARK                         _______ _______ _______ _____ _____    ______ ____
ROOT
ATOM      1  C   UNL     1       2.368   7.032  18.803  0.00  0.00    +0.000 A 
ATOM      2  C   UNL     1       1.813   6.430  19.924  0.00  0.00    +0.000 A 
ATOM      3  N   UNL     1       1.166   7.356  20.711  0.00  0.00    +0.000 NA
ATOM      4  C   UNL     1       1.312   8.519  20.113  0.00  0.00    +0.000 A 
ATOM      5  N   UNL     1       0.871   9.750  20.516  0.00  0.00    +0.000 NA
ATOM      6  C   UNL     1       1.105  10.739  19.710  0.00  0.00    +0.000 A 
ATOM      7  C   UNL     1       1.790  10.661  18.392  0.00  0.00    +0.000 A 
ATOM      8  C   UNL     1       2.227   9.440  18.054  0.00  0.00    +0.000 A 
ATOM      9  N   UNL     1       2.009   8.363  18.914  0.00  0.00    +0.000 N 
ENDROOT
BRANCH   2  10
ATOM     10  C   UNL     1       1.809   5.007  20.252  0.00  0.00    +0.000 A 
ATOM     11  C   UNL     1       1.209   4.045  19.432  0.00  0.00    +0.000 A 
ATOM     12  C   UNL     1       1.140   2.705  19.825  0.00  0.00    +0.000 A 
ATOM     13  C   UNL     1       1.709   2.303  21.029  0.00  0.00    +0.000 A 
ATOM     14  C   UNL     1       2.357   3.237  21.833  0.00  0.00    +0.000 A 
ATOM     15  C   UNL     1       2.409   4.581  21.448  0.00  0.00    +0.000 A 
ENDBRANCH   2  10
BRANCH   1  16
ATOM     16  C   UNL     1       3.175   6.500  17.667  0.00  0.00    +0.000 C 
BRANCH  16  21
ATOM     17  C   UNL     1       5.610   4.201  14.347  0.00  0.00    +0.000 C 
ATOM     18  N   UNL     1       5.725   4.718  15.706  0.00  0.00    +0.000 NA
ATOM     19  C   UNL     1       4.783   4.037  16.613  0.00  0.00    +0.000 C 
ATOM     20  C   UNL     1       4.755   4.650  18.032  0.00  0.00    +0.000 C 
ATOM     21  N   UNL     1       4.533   6.110  18.059  0.00  0.00    +0.000 NA
ATOM     22  C   UNL     1       5.539   6.739  17.179  0.00  0.00    +0.000 C 
ATOM     23  C   UNL     1       5.546   6.178  15.737  0.00  0.00    +0.000 C 
ENDBRANCH  16  21
ENDBRANCH   1  16
TORSDOF 3
ENDMDL
MODEL 9
REMARK VINA RESULT:      -7.4      1.517      4.852
REMARK  Name = 
REMARK  4 active torsions:
REMARK  status: ('A' for Active; 'I' for Inactive)
REMARK    1  A    between atoms: C_1  and  N_2
REMARK    2  A    between atoms: N_5  and  C_6
REMARK    3  A    between atoms: C_6  and  C_7
REMARK    4  A    between atoms: C_8  and  C_9
REMARK                            x       y       z     vdW  Elec       q    Type
REMARK                         _______ _______ _______ _____ _____    ______ ____
ROOT
ATOM      1  C   UNL     1       3.457   6.449  18.632  0.00  0.00    +0.000 A 
ATOM      2  C   UNL     1       4.092   6.729  17.430  0.00  0.00    +0.000 A 
ATOM      3  N   UNL     1       3.654   7.925  16.908  0.00  0.00    +0.000 NA
ATOM      4  C   UNL     1       2.757   8.392  17.750  0.00  0.00    +0.000 A 
ATOM      5  N   UNL     1       2.014   9.538  17.661  0.00  0.00    +0.000 NA
ATOM      6  C   UNL     1       1.229   9.795  18.661  0.00  0.00    +0.000 A 
ATOM      7  C   UNL     1       1.070   8.976  19.892  0.00  0.00    +0.000 A 
ATOM      8  C   UNL     1       1.796   7.851  19.920  0.00  0.00    +0.000 A 
ATOM      9  N   UNL     1       2.632   7.539  18.847  0.00  0.00    +0.000 N 
ENDROOT
BRANCH   2  10
ATOM     10  C   UNL     1       5.145   5.950  16.785  0.00  0.00    +0.000 A 
ATOM     11  C   UNL     1       6.235   5.426  17.487  0.00  0.00    +0.000 A 
ATOM     12  C   UNL     1       7.274   4.768  16.821  0.00  0.00    +0.000 A 
ATOM     13  C   UNL     1       7.212   4.589  15.443  0.00  0.00    +0.000 A 
ATOM     14  C   UNL     1       6.109   5.056  14.733  0.00  0.00    +0.000 A 
ATOM     15  C   UNL     1       5.080   5.731  15.399  0.00  0.00    +0.000 A 
ENDBRANCH   2  10
BRANCH   1  16
ATOM     16  C   UNL     1       3.546   5.298  19.577  0.00  0.00    +0.000 C 
BRANCH  16  21
ATOM     17  C   UNL     1       1.081   2.353  22.312  0.00  0.00    +0.000 C 
ATOM     18  N   UNL     1       1.655   2.471  20.976  0.00  0.00    +0.000 NA
ATOM     19  C   UNL     1       3.125   2.570  21.039  0.00  0.00    +0.000 C 
ATOM     20  C   UNL     1       3.774   2.850  19.663  0.00  0.00    +0.000 C 
ATOM     21  N   UNL     1       3.210   4.015  18.952  0.00  0.00    +0.000 NA
ATOM     22  C   UNL     1       1.745   3.832  18.872  0.00  0.00    +0.000 C 
ATOM     23  C   UNL     1       1.068   3.606  20.244  0.00  0.00    +0.000 C 
ENDBRANCH  16  21
ENDBRANCH   1  16
TORSDOF 3
ENDMDL
