MODEL 1
REMARK VINA RESULT:      -7.6      0.000      0.000
REMARK  Name = 
REMARK  6 active torsions:
REMARK  status: ('A' for Active; 'I' for Inactive)
REMARK    1  A    between atoms: C_1  and  C_2
REMARK    2  A    between atoms: C_2  and  C_3
REMARK    3  A    between atoms: C_2  and  N_4
REMARK    4  A    between atoms: C_9  and  C_11
REMARK    5  A    between atoms: N_14  and  C_15
REMARK    6  A    between atoms: C_18  and  C_19
REMARK                            x       y       z     vdW  Elec       q    Type
REMARK                         _______ _______ _______ _____ _____    ______ ____
ROOT
ATOM      1  C   UNL     1       2.864   5.459  18.408  0.00  0.00    +0.000 C 
ATOM      2  C   UNL     1       2.465   6.739  17.636  0.00  0.00    +0.000 C 
ATOM      3  C   UNL     1       2.446   7.979  18.541  0.00  0.00    +0.000 C 
ATOM      4  N   UNL     1       1.513   7.748  19.662  0.00  0.00    +0.000 N 
ATOM      5  C   UNL     1       1.846   6.569  20.474  0.00  0.00    +0.000 C 
ATOM      6  C   UNL     1       1.892   5.328  19.583  0.00  0.00    +0.000 C 
ENDROOT
BRANCH   1  12
ATOM      7  N   UNL     1       6.727   5.301  15.284  0.00  0.00    +0.000 NA
ATOM      8  C   UNL     1       7.185   4.594  16.498  0.00  0.00    +0.000 C 
ATOM      9  C   UNL     1       7.677   5.484  17.637  0.00  0.00    +0.000 C 
ATOM     10  C   UNL     1       6.646   6.333  18.372  0.00  0.00    +0.000 C 
ATOM     11  N   UNL     1       5.269   6.185  17.911  0.00  0.00    +0.000 N 
ATOM     12  C   UNL     1       4.380   5.482  18.713  0.00  0.00    +0.000 C 
ATOM     13  O   UNL     1       4.791   4.936  19.744  0.00  0.00    +0.000 OA
ATOM     14  C   UNL     1       5.016   6.777  16.602  0.00  0.00    +0.000 C 
ATOM     15  C   UNL     1       5.361   5.849  15.417  0.00  0.00    +0.000 C 
BRANCH   7  17
ATOM     16  C   UNL     1       5.513   3.785  13.606  0.00  0.00    +0.000 C 
ATOM     17  C   UNL     1       6.841   4.391  14.099  0.00  0.00    +0.000 C 
ATOM     18  C   UNL     1       7.566   5.043  12.912  0.00  0.00    +0.000 C 
ENDBRANCH   7  17
ENDBRANCH   1  12
BRANCH   4  19
ATOM     19  C   UNL     1       1.025   8.892  20.310  0.00  0.00    +0.000 A 
ATOM     20  C   UNL     1       0.517   9.973  19.578  0.00  0.00    +0.000 A 
ATOM     21  C   UNL     1      -0.029  11.097  20.207  0.00  0.00    +0.000 A 
ATOM     22  C   UNL     1      -0.080  11.144  21.597  0.00  0.00    +0.000 A 
ATOM     23  N   UNL     1       0.390  10.113  22.349  0.00  0.00    +0.000 NA
ATOM     24  C   UNL     1       0.913   9.038  21.697  0.00  0.00    +0.000 A 
BRANCH  22  25
ATOM     25  C   UNL     1      -0.705  12.347  22.295  0.00  0.00    +0.000 C 
ATOM     26  F   UNL     1      -1.107  12.078  23.575  0.00  0.00    +0.000 F 
ATOM     27  F   UNL     1       0.147  13.410  22.398  0.00  0.00    +0.000 F 
ATOM     28  F   UNL     1      -1.818  12.814  21.659  0.00  0.00    +0.000 F 
ENDBRANCH  22  25
ENDBRANCH   4  19
TORSDOF 4
ENDMDL
MODEL 2
REMARK VINA RESULT:      -7.6      5.047      8.812
REMARK  Name = 
REMARK  6 active torsions:
REMARK  status: ('A' for Active; 'I' for Inactive)
REMARK    1  A    between atoms: C_1  and  C_2
REMARK    2  A    between atoms: C_2  and  C_3
REMARK    3  A    between atoms: C_2  and  N_4
REMARK    4  A    between atoms: C_9  and  C_11
REMARK    5  A    between atoms: N_14  and  C_15
REMARK    6  A    between atoms: C_18  and  C_19
REMARK                            x       y       z     vdW  Elec       q    Type
REMARK                         _______ _______ _______ _____ _____    ______ ____
ROOT
ATOM      1  C   UNL     1      -0.448  10.881  19.947  0.00  0.00    +0.000 C 
ATOM      2  C   UNL     1      -0.517   9.471  20.581  0.00  0.00    +0.000 C 
ATOM      3  C   UNL     1       0.844   8.761  20.563  0.00  0.00    +0.000 C 
ATOM      4  N   UNL     1       1.329   8.671  19.171  0.00  0.00    +0.000 N 
ATOM      5  C   UNL     1       1.462   9.976  18.508  0.00  0.00    +0.000 C 
ATOM      6  C   UNL     1       0.119  10.707  18.537  0.00  0.00    +0.000 C 
ENDROOT
BRANCH   1  12
ATOM      7  N   UNL     1       2.078  15.044  18.944  0.00  0.00    +0.000 NA
ATOM      8  C   UNL     1       2.756  14.455  20.118  0.00  0.00    +0.000 C 
ATOM      9  C   UNL     1       2.107  14.742  21.471  0.00  0.00    +0.000 C 
ATOM     10  C   UNL     1       0.762  14.090  21.767  0.00  0.00    +0.000 C 
ATOM     11  N   UNL     1       0.238  13.227  20.713  0.00  0.00    +0.000 N 
ATOM     12  C   UNL     1       0.274  11.853  20.911  0.00  0.00    +0.000 C 
ATOM     13  O   UNL     1       0.815  11.398  21.926  0.00  0.00    +0.000 OA
ATOM     14  C   UNL     1      -0.224  13.949  19.533  0.00  0.00    +0.000 C 
ATOM     15  C   UNL     1       0.893  14.271  18.516  0.00  0.00    +0.000 C 
BRANCH   7  17
ATOM     16  C   UNL     1       3.184  16.636  17.262  0.00  0.00    +0.000 C 
ATOM     17  C   UNL     1       3.061  15.207  17.825  0.00  0.00    +0.000 C 
ATOM     18  C   UNL     1       4.461  14.684  18.179  0.00  0.00    +0.000 C 
ENDBRANCH   7  17
ENDBRANCH   1  12
BRANCH   4  19
ATOM     19  C   UNL     1       2.290   7.685  18.910  0.00  0.00    +0.000 A 
ATOM     20  C   UNL     1       3.123   7.771  17.787  0.00  0.00    +0.000 A 
ATOM     21  C   UNL     1       4.128   6.829  17.541  0.00  0.00    +0.000 A 
ATOM     22  C   UNL     1       4.316   5.781  18.438  0.00  0.00    +0.000 A 
ATOM     23  N   UNL     1       3.539   5.664  19.548  0.00  0.00    +0.000 NA
ATOM     24  C   UNL     1       2.573   6.602  19.749  0.00  0.00    +0.000 A 
BRANCH  22  25
ATOM     25  C   UNL     1       5.430   4.768  18.201  0.00  0.00    +0.000 C 
ATOM     26  F   UNL     1       6.652   5.198  18.643  0.00  0.00    +0.000 F 
ATOM     27  F   UNL     1       5.215   3.576  18.833  0.00  0.00    +0.000 F 
ATOM     28  F   UNL     1       5.609   4.471  16.882  0.00  0.00    +0.000 F 
ENDBRANCH  22  25
ENDBRANCH   4  19
TORSDOF 4
ENDMDL
MODEL 3
REMARK VINA RESULT:      -7.5      5.142      9.799
REMARK  Name = 
REMARK  6 active torsions:
REMARK  status: ('A' for Active; 'I' for Inactive)
REMARK    1  A    between atoms: C_1  and  C_2
REMARK    2  A    between atoms: C_2  and  C_3
REMARK    3  A    between atoms: C_2  and  N_4
REMARK    4  A    between atoms: C_9  and  C_11
REMARK    5  A    between atoms: N_14  and  C_15
REMARK    6  A    between atoms: C_18  and  C_19
REMARK                            x       y       z     vdW  Elec       q    Type
REMARK                         _______ _______ _______ _____ _____    ______ ____
ROOT
ATOM      1  C   UNL     1       0.997  10.811  18.903  0.00  0.00    +0.000 C 
ATOM      2  C   UNL     1       1.897  10.018  17.926  0.00  0.00    +0.000 C 
ATOM      3  C   UNL     1       1.736   8.501  18.092  0.00  0.00    +0.000 C 
ATOM      4  N   UNL     1       2.045   8.127  19.486  0.00  0.00    +0.000 N 
ATOM      5  C   UNL     1       1.202   8.809  20.480  0.00  0.00    +0.000 C 
ATOM      6  C   UNL     1       1.334  10.323  20.313  0.00  0.00    +0.000 C 
ENDROOT
BRANCH   1  12
ATOM      7  N   UNL     1      -2.932  13.483  20.365  0.00  0.00    +0.000 NA
ATOM      8  C   UNL     1      -3.474  12.146  20.045  0.00  0.00    +0.000 C 
ATOM      9  C   UNL     1      -3.747  11.880  18.566  0.00  0.00    +0.000 C 
ATOM     10  C   UNL     1      -2.549  11.753  17.633  0.00  0.00    +0.000 C 
ATOM     11  N   UNL     1      -1.242  11.882  18.269  0.00  0.00    +0.000 N 
ATOM     12  C   UNL     1      -0.476  10.736  18.436  0.00  0.00    +0.000 C 
ATOM     13  O   UNL     1      -0.948   9.638  18.118  0.00  0.00    +0.000 OA
ATOM     14  C   UNL     1      -0.927  13.239  18.703  0.00  0.00    +0.000 C 
ATOM     15  C   UNL     1      -1.482  13.597  20.099  0.00  0.00    +0.000 C 
BRANCH   7  17
ATOM     16  C   UNL     1      -4.373  14.878  21.968  0.00  0.00    +0.000 C 
ATOM     17  C   UNL     1      -3.258  13.830  21.786  0.00  0.00    +0.000 C 
ATOM     18  C   UNL     1      -3.583  12.597  22.642  0.00  0.00    +0.000 C 
ENDBRANCH   7  17
ENDBRANCH   1  12
BRANCH   4  19
ATOM     19  C   UNL     1       2.393   6.788  19.709  0.00  0.00    +0.000 A 
ATOM     20  C   UNL     1       1.677   5.999  20.619  0.00  0.00    +0.000 A 
ATOM     21  C   UNL     1       1.972   4.645  20.811  0.00  0.00    +0.000 A 
ATOM     22  C   UNL     1       2.996   4.058  20.075  0.00  0.00    +0.000 A 
ATOM     23  N   UNL     1       3.711   4.782  19.172  0.00  0.00    +0.000 NA
ATOM     24  C   UNL     1       3.391   6.096  19.016  0.00  0.00    +0.000 A 
BRANCH  22  25
ATOM     25  C   UNL     1       3.304   2.575  20.248  0.00  0.00    +0.000 C 
ATOM     26  F   UNL     1       2.438   1.762  19.568  0.00  0.00    +0.000 F 
ATOM     27  F   UNL     1       4.550   2.230  19.804  0.00  0.00    +0.000 F 
ATOM     28  F   UNL     1       3.237   2.165  21.547  0.00  0.00    +0.000 F 
ENDBRANCH  22  25
ENDBRANCH   4  19
TORSDOF 4
ENDMDL
MODEL 4
REMARK VINA RESULT:      -7.5      5.048      8.894
REMARK  Name = 
REMARK  6 active torsions:
REMARK  status: ('A' for Active; 'I' for Inactive)
REMARK    1  A    between atoms: C_1  and  C_2
REMARK    2  A    between atoms: C_2  and  C_3
REMARK    3  A    between atoms: C_2  and  N_4
REMARK    4  A    between atoms: C_9  and  C_11
REMARK    5  A    between atoms: N_14  and  C_15
REMARK    6  A    between atoms: C_18  and  C_19
REMARK                            x       y       z     vdW  Elec       q    Type
REMARK                         _______ _______ _______ _____ _____    ______ ____
ROOT
ATOM      1  C   UNL     1      -0.509  10.891  19.996  0.00  0.00    +0.000 C 
ATOM      2  C   UNL     1      -0.521   9.474  20.615  0.00  0.00    +0.000 C 
ATOM      3  C   UNL     1       0.862   8.809  20.566  0.00  0.00    +0.000 C 
ATOM      4  N   UNL     1       1.324   8.749  19.165  0.00  0.00    +0.000 N 
ATOM      5  C   UNL     1       1.402  10.065  18.513  0.00  0.00    +0.000 C 
ATOM      6  C   UNL     1       0.037  10.751  18.574  0.00  0.00    +0.000 C 
ENDROOT
BRANCH   1  12
ATOM      7  N   UNL     1       2.004  15.058  18.977  0.00  0.00    +0.000 NA
ATOM      8  C   UNL     1       2.674  14.485  20.163  0.00  0.00    +0.000 C 
ATOM      9  C   UNL     1       2.010  14.782  21.506  0.00  0.00    +0.000 C 
ATOM     10  C   UNL     1       0.666  14.125  21.796  0.00  0.00    +0.000 C 
ATOM     11  N   UNL     1       0.156  13.249  20.745  0.00  0.00    +0.000 N 
ATOM     12  C   UNL     1       0.197  11.877  20.957  0.00  0.00    +0.000 C 
ATOM     13  O   UNL     1       0.731  11.435  21.982  0.00  0.00    +0.000 OA
ATOM     14  C   UNL     1      -0.298  13.956  19.554  0.00  0.00    +0.000 C 
ATOM     15  C   UNL     1       0.827  14.274  18.545  0.00  0.00    +0.000 C 
BRANCH   7  17
ATOM     16  C   UNL     1       3.173  16.654  17.341  0.00  0.00    +0.000 C 
ATOM     17  C   UNL     1       2.997  15.216  17.866  0.00  0.00    +0.000 C 
ATOM     18  C   UNL     1       4.377  14.635  18.211  0.00  0.00    +0.000 C 
ENDBRANCH   7  17
ENDBRANCH   1  12
BRANCH   4  19
ATOM     19  C   UNL     1       2.312   7.798  18.876  0.00  0.00    +0.000 A 
ATOM     20  C   UNL     1       2.488   6.672  19.690  0.00  0.00    +0.000 A 
ATOM     21  C   UNL     1       3.429   5.682  19.385  0.00  0.00    +0.000 A 
ATOM     22  C   UNL     1       4.207   5.810  18.238  0.00  0.00    +0.000 A 
ATOM     23  N   UNL     1       4.063   6.880  17.411  0.00  0.00    +0.000 NA
ATOM     24  C   UNL     1       3.136   7.820  17.745  0.00  0.00    +0.000 A 
BRANCH  22  25
ATOM     25  C   UNL     1       5.210   4.721  17.874  0.00  0.00    +0.000 C 
ATOM     26  F   UNL     1       4.789   3.921  16.847  0.00  0.00    +0.000 F 
ATOM     27  F   UNL     1       6.419   5.217  17.476  0.00  0.00    +0.000 F 
ATOM     28  F   UNL     1       5.471   3.870  18.908  0.00  0.00    +0.000 F 
ENDBRANCH  22  25
ENDBRANCH   4  19
TORSDOF 4
ENDMDL
MODEL 5
REMARK VINA RESULT:      -7.5      5.168      9.823
REMARK  Name = 
REMARK  6 active torsions:
REMARK  status: ('A' for Active; 'I' for Inactive)
REMARK    1  A    between atoms: C_1  and  C_2
REMARK    2  A    between atoms: C_2  and  C_3
REMARK    3  A    between atoms: C_2  and  N_4
REMARK    4  A    between atoms: C_9  and  C_11
REMARK    5  A    between atoms: N_14  and  C_15
REMARK    6  A    between atoms: C_18  and  C_19
REMARK                            x       y       z     vdW  Elec       q    Type
REMARK                         _______ _______ _______ _____ _____    ______ ____
ROOT
ATOM      1  C   UNL     1       0.872  10.875  19.148  0.00  0.00    +0.000 C 
ATOM      2  C   UNL     1       1.812  10.156  18.152  0.00  0.00    +0.000 C 
ATOM      3  C   UNL     1       1.680   8.629  18.230  0.00  0.00    +0.000 C 
ATOM      4  N   UNL     1       1.962   8.185  19.610  0.00  0.00    +0.000 N 
ATOM      5  C   UNL     1       1.081   8.793  20.617  0.00  0.00    +0.000 C 
ATOM      6  C   UNL     1       1.185  10.317  20.538  0.00  0.00    +0.000 C 
ENDROOT
BRANCH   1  12
ATOM      7  N   UNL     1      -3.111  13.512  20.528  0.00  0.00    +0.000 NA
ATOM      8  C   UNL     1      -3.636  12.174  20.180  0.00  0.00    +0.000 C 
ATOM      9  C   UNL     1      -3.867  11.921  18.691  0.00  0.00    +0.000 C 
ATOM     10  C   UNL     1      -2.644  11.810  17.790  0.00  0.00    +0.000 C 
ATOM     11  N   UNL     1      -1.355  11.940  18.464  0.00  0.00    +0.000 N 
ATOM     12  C   UNL     1      -0.587  10.797  18.640  0.00  0.00    +0.000 C 
ATOM     13  O   UNL     1      -1.044   9.699  18.299  0.00  0.00    +0.000 OA
ATOM     14  C   UNL     1      -1.060  13.294  18.919  0.00  0.00    +0.000 C 
ATOM     15  C   UNL     1      -1.656  13.636  20.302  0.00  0.00    +0.000 C 
BRANCH   7  17
ATOM     16  C   UNL     1      -3.350  12.679  22.944  0.00  0.00    +0.000 C 
ATOM     17  C   UNL     1      -3.478  13.843  21.942  0.00  0.00    +0.000 C 
ATOM     18  C   UNL     1      -2.716  15.060  22.487  0.00  0.00    +0.000 C 
ENDBRANCH   7  17
ENDBRANCH   1  12
BRANCH   4  19
ATOM     19  C   UNL     1       2.334   6.843  19.767  0.00  0.00    +0.000 A 
ATOM     20  C   UNL     1       1.647   6.004  20.654  0.00  0.00    +0.000 A 
ATOM     21  C   UNL     1       1.965   4.648  20.782  0.00  0.00    +0.000 A 
ATOM     22  C   UNL     1       2.983   4.109  20.001  0.00  0.00    +0.000 A 
ATOM     23  N   UNL     1       3.670   4.882  19.118  0.00  0.00    +0.000 NA
ATOM     24  C   UNL     1       3.328   6.197  19.025  0.00  0.00    +0.000 A 
BRANCH  22  25
ATOM     25  C   UNL     1       3.316   2.624  20.104  0.00  0.00    +0.000 C 
ATOM     26  F   UNL     1       3.478   2.196  21.394  0.00  0.00    +0.000 F 
ATOM     27  F   UNL     1       2.348   1.820  19.574  0.00  0.00    +0.000 F 
ATOM     28  F   UNL     1       4.475   2.293  19.467  0.00  0.00    +0.000 F 
ENDBRANCH  22  25
ENDBRANCH   4  19
TORSDOF 4
ENDMDL
MODEL 6
REMARK VINA RESULT:      -7.4      5.180      9.791
REMARK  Name = 
REMARK  6 active torsions:
REMARK  status: ('A' for Active; 'I' for Inactive)
REMARK    1  A    between atoms: C_1  and  C_2
REMARK    2  A    between atoms: C_2  and  C_3
REMARK    3  A    between atoms: C_2  and  N_4
REMARK    4  A    between atoms: C_9  and  C_11
REMARK    5  A    between atoms: N_14  and  C_15
REMARK    6  A    between atoms: C_18  and  C_19
REMARK                            x       y       z     vdW  Elec       q    Type
REMARK                         _______ _______ _______ _____ _____    ______ ____
ROOT
ATOM      1  C   UNL     1       0.907  10.752  18.986  0.00  0.00    +0.000 C 
ATOM      2  C   UNL     1       2.006  10.100  18.115  0.00  0.00    +0.000 C 
ATOM      3  C   UNL     1       1.892   8.569  18.089  0.00  0.00    +0.000 C 
ATOM      4  N   UNL     1       1.962   8.052  19.470  0.00  0.00    +0.000 N 
ATOM      5  C   UNL     1       0.922   8.594  20.356  0.00  0.00    +0.000 C 
ATOM      6  C   UNL     1       1.007  10.120  20.376  0.00  0.00    +0.000 C 
ENDROOT
BRANCH   1  12
ATOM      7  N   UNL     1      -3.440  12.860  20.161  0.00  0.00    +0.000 NA
ATOM      8  C   UNL     1      -3.796  11.582  19.508  0.00  0.00    +0.000 C 
ATOM      9  C   UNL     1      -3.788  11.595  17.981  0.00  0.00    +0.000 C 
ATOM     10  C   UNL     1      -2.442  11.722  17.277  0.00  0.00    +0.000 C 
ATOM     11  N   UNL     1      -1.280  11.798  18.157  0.00  0.00    +0.000 N 
ATOM     12  C   UNL     1      -0.453  10.686  18.250  0.00  0.00    +0.000 C 
ATOM     13  O   UNL     1      -0.762   9.646  17.656  0.00  0.00    +0.000 OA
ATOM     14  C   UNL     1      -1.168  13.059  18.881  0.00  0.00    +0.000 C 
ATOM     15  C   UNL     1      -1.983  13.105  20.191  0.00  0.00    +0.000 C 
BRANCH   7  17
ATOM     16  C   UNL     1      -3.620  14.116  22.393  0.00  0.00    +0.000 C 
ATOM     17  C   UNL     1      -4.033  12.903  21.536  0.00  0.00    +0.000 C 
ATOM     18  C   UNL     1      -5.565  12.792  21.530  0.00  0.00    +0.000 C 
ENDBRANCH   7  17
ENDBRANCH   1  12
BRANCH   4  19
ATOM     19  C   UNL     1       2.330   6.707  19.613  0.00  0.00    +0.000 A 
ATOM     20  C   UNL     1       3.366   6.158  18.846  0.00  0.00    +0.000 A 
ATOM     21  C   UNL     1       3.787   4.835  19.015  0.00  0.00    +0.000 A 
ATOM     22  C   UNL     1       3.170   4.040  19.977  0.00  0.00    +0.000 A 
ATOM     23  N   UNL     1       2.168   4.533  20.753  0.00  0.00    +0.000 NA
ATOM     24  C   UNL     1       1.789   5.826  20.555  0.00  0.00    +0.000 A 
BRANCH  22  25
ATOM     25  C   UNL     1       3.643   2.607  20.198  0.00  0.00    +0.000 C 
ATOM     26  F   UNL     1       3.519   2.193  21.496  0.00  0.00    +0.000 F 
ATOM     27  F   UNL     1       2.950   1.693  19.456  0.00  0.00    +0.000 F 
ATOM     28  F   UNL     1       4.959   2.427  19.887  0.00  0.00    +0.000 F 
ENDBRANCH  22  25
ENDBRANCH   4  19
TORSDOF 4
ENDMDL
MODEL 7
REMARK VINA RESULT:      -7.4      4.866     11.166
REMARK  Name = 
REMARK  6 active torsions:
REMARK  status: ('A' for Active; 'I' for Inactive)
REMARK    1  A    between atoms: C_1  and  C_2
REMARK    2  A    between atoms: C_2  and  C_3
REMARK    3  A    between atoms: C_2  and  N_4
REMARK    4  A    between atoms: C_9  and  C_11
REMARK    5  A    between atoms: N_14  and  C_15
REMARK    6  A    between atoms: C_18  and  C_19
REMARK                            x       y       z     vdW  Elec       q    Type
REMARK                         _______ _______ _______ _____ _____    ______ ____
ROOT
ATOM      1  C   UNL     1      -0.961  12.811  20.810  0.00  0.00    +0.000 C 
ATOM      2  C   UNL     1      -1.525  11.827  19.758  0.00  0.00    +0.000 C 
ATOM      3  C   UNL     1      -0.906  10.428  19.883  0.00  0.00    +0.000 C 
ATOM      4  N   UNL     1       0.561  10.531  19.749  0.00  0.00    +0.000 N 
ATOM      5  C   UNL     1       1.183  11.419  20.743  0.00  0.00    +0.000 C 
ATOM      6  C   UNL     1       0.560  12.813  20.646  0.00  0.00    +0.000 C 
ENDROOT
BRANCH   1  12
ATOM      7  N   UNL     1      -4.539  15.122  23.375  0.00  0.00    +0.000 NA
ATOM      8  C   UNL     1      -3.604  14.605  24.397  0.00  0.00    +0.000 C 
ATOM      9  C   UNL     1      -3.780  13.135  24.773  0.00  0.00    +0.000 C 
ATOM     10  C   UNL     1      -3.414  12.086  23.731  0.00  0.00    +0.000 C 
ATOM     11  N   UNL     1      -2.904  12.608  22.467  0.00  0.00    +0.000 N 
ATOM     12  C   UNL     1      -1.546  12.480  22.203  0.00  0.00    +0.000 C 
ATOM     13  O   UNL     1      -0.800  12.006  23.068  0.00  0.00    +0.000 OA
ATOM     14  C   UNL     1      -3.917  13.260  21.645  0.00  0.00    +0.000 C 
ATOM     15  C   UNL     1      -4.153  14.745  21.998  0.00  0.00    +0.000 C 
BRANCH   7  17
ATOM     16  C   UNL     1      -4.702  17.125  24.972  0.00  0.00    +0.000 C 
ATOM     17  C   UNL     1      -4.673  16.607  23.521  0.00  0.00    +0.000 C 
ATOM     18  C   UNL     1      -3.607  17.383  22.732  0.00  0.00    +0.000 C 
ENDBRANCH   7  17
ENDBRANCH   1  12
BRANCH   4  19
ATOM     19  C   UNL     1       1.236   9.358  19.384  0.00  0.00    +0.000 A 
ATOM     20  C   UNL     1       1.778   9.209  18.101  0.00  0.00    +0.000 A 
ATOM     21  C   UNL     1       2.505   8.071  17.736  0.00  0.00    +0.000 A 
ATOM     22  C   UNL     1       2.709   7.062  18.672  0.00  0.00    +0.000 A 
ATOM     23  N   UNL     1       2.213   7.168  19.933  0.00  0.00    +0.000 NA
ATOM     24  C   UNL     1       1.510   8.292  20.247  0.00  0.00    +0.000 A 
BRANCH  22  25
ATOM     25  C   UNL     1       3.531   5.833  18.299  0.00  0.00    +0.000 C 
ATOM     26  F   UNL     1       3.893   5.078  19.382  0.00  0.00    +0.000 F 
ATOM     27  F   UNL     1       2.869   4.978  17.465  0.00  0.00    +0.000 F 
ATOM     28  F   UNL     1       4.702   6.145  17.672  0.00  0.00    +0.000 F 
ENDBRANCH  22  25
ENDBRANCH   4  19
TORSDOF 4
ENDMDL
MODEL 8
REMARK VINA RESULT:      -7.4      5.219     10.174
REMARK  Name = 
REMARK  6 active torsions:
REMARK  status: ('A' for Active; 'I' for Inactive)
REMARK    1  A    between atoms: C_1  and  C_2
REMARK    2  A    between atoms: C_2  and  C_3
REMARK    3  A    between atoms: C_2  and  N_4
REMARK    4  A    between atoms: C_9  and  C_11
REMARK    5  A    between atoms: N_14  and  C_15
REMARK    6  A    between atoms: C_18  and  C_19
REMARK                            x       y       z     vdW  Elec       q    Type
REMARK                         _______ _______ _______ _____ _____    ______ ____
ROOT
ATOM      1  C   UNL     1       0.687  11.039  20.109  0.00  0.00    +0.000 C 
ATOM      2  C   UNL     1       1.573  10.589  18.924  0.00  0.00    +0.000 C 
ATOM      3  C   UNL     1       1.412   9.094  18.615  0.00  0.00    +0.000 C 
ATOM      4  N   UNL     1       1.738   8.309  19.822  0.00  0.00    +0.000 N 
ATOM      5  C   UNL     1       0.910   8.649  20.988  0.00  0.00    +0.000 C 
ATOM      6  C   UNL     1       1.042  10.141  21.295  0.00  0.00    +0.000 C 
ENDROOT
BRANCH   1  12
ATOM      7  N   UNL     1      -3.053  13.763  21.928  0.00  0.00    +0.000 NA
ATOM      8  C   UNL     1      -3.680  12.507  21.468  0.00  0.00    +0.000 C 
ATOM      9  C   UNL     1      -3.984  12.427  19.973  0.00  0.00    +0.000 C 
ATOM     10  C   UNL     1      -2.805  12.335  19.012  0.00  0.00    +0.000 C 
ATOM     11  N   UNL     1      -1.486  12.310  19.637  0.00  0.00    +0.000 N 
ATOM     12  C   UNL     1      -0.792  11.108  19.661  0.00  0.00    +0.000 C 
ATOM     13  O   UNL     1      -1.335  10.084  19.229  0.00  0.00    +0.000 OA
ATOM     14  C   UNL     1      -1.082  13.587  20.216  0.00  0.00    +0.000 C 
ATOM     15  C   UNL     1      -1.602  13.817  21.652  0.00  0.00    +0.000 C 
BRANCH   7  17
ATOM     16  C   UNL     1      -3.832  12.713  24.138  0.00  0.00    +0.000 C 
ATOM     17  C   UNL     1      -3.343  13.965  23.384  0.00  0.00    +0.000 C 
ATOM     18  C   UNL     1      -2.161  14.582  24.149  0.00  0.00    +0.000 C 
ENDBRANCH   7  17
ENDBRANCH   1  12
BRANCH   4  19
ATOM     19  C   UNL     1       2.087   6.967  19.616  0.00  0.00    +0.000 A 
ATOM     20  C   UNL     1       1.777   5.987  20.568  0.00  0.00    +0.000 A 
ATOM     21  C   UNL     1       2.064   4.635  20.354  0.00  0.00    +0.000 A 
ATOM     22  C   UNL     1       2.666   4.245  19.161  0.00  0.00    +0.000 A 
ATOM     23  N   UNL     1       2.974   5.159  18.203  0.00  0.00    +0.000 NA
ATOM     24  C   UNL     1       2.678   6.465  18.452  0.00  0.00    +0.000 A 
BRANCH  22  25
ATOM     25  C   UNL     1       2.951   2.770  18.900  0.00  0.00    +0.000 C 
ATOM     26  F   UNL     1       2.934   2.446  17.570  0.00  0.00    +0.000 F 
ATOM     27  F   UNL     1       4.176   2.372  19.355  0.00  0.00    +0.000 F 
ATOM     28  F   UNL     1       2.041   1.940  19.484  0.00  0.00    +0.000 F 
ENDBRANCH  22  25
ENDBRANCH   4  19
TORSDOF 4
ENDMDL
MODEL 9
REMARK VINA RESULT:      -7.4      5.191      8.988
REMARK  Name = 
REMARK  6 active torsions:
REMARK  status: ('A' for Active; 'I' for Inactive)
REMARK    1  A    between atoms: C_1  and  C_2
REMARK    2  A    between atoms: C_2  and  C_3
REMARK    3  A    between atoms: C_2  and  N_4
REMARK    4  A    between atoms: C_9  and  C_11
REMARK    5  A    between atoms: N_14  and  C_15
REMARK    6  A    between atoms: C_18  and  C_19
REMARK                            x       y       z     vdW  Elec       q    Type
REMARK                         _______ _______ _______ _____ _____    ______ ____
ROOT
ATOM      1  C   UNL     1      -0.048  11.547  19.494  0.00  0.00    +0.000 C 
ATOM      2  C   UNL     1      -0.490  10.159  20.016  0.00  0.00    +0.000 C 
ATOM      3  C   UNL     1       0.700   9.212  20.223  0.00  0.00    +0.000 C 
ATOM      4  N   UNL     1       1.435   9.068  18.951  0.00  0.00    +0.000 N 
ATOM      5  C   UNL     1       1.927  10.342  18.407  0.00  0.00    +0.000 C 
ATOM      6  C   UNL     1       0.755  11.306  18.215  0.00  0.00    +0.000 C 
ENDROOT
BRANCH   1  12
ATOM      7  N   UNL     1       2.418  15.860  19.324  0.00  0.00    +0.000 NA
ATOM      8  C   UNL     1       3.070  15.086  20.401  0.00  0.00    +0.000 C 
ATOM      9  C   UNL     1       2.371  15.122  21.758  0.00  0.00    +0.000 C 
ATOM     10  C   UNL     1       1.032  14.407  21.888  0.00  0.00    +0.000 C 
ATOM     11  N   UNL     1       0.561  13.734  20.681  0.00  0.00    +0.000 N 
ATOM     12  C   UNL     1       0.620  12.347  20.638  0.00  0.00    +0.000 C 
ATOM     13  O   UNL     1       1.137  11.730  21.577  0.00  0.00    +0.000 OA
ATOM     14  C   UNL     1       0.122  14.643  19.629  0.00  0.00    +0.000 C 
ATOM     15  C   UNL     1       1.265  15.155  18.725  0.00  0.00    +0.000 C 
BRANCH   7  17
ATOM     16  C   UNL     1       4.312  15.071  17.781  0.00  0.00    +0.000 C 
ATOM     17  C   UNL     1       3.433  16.232  18.286  0.00  0.00    +0.000 C 
ATOM     18  C   UNL     1       2.817  16.957  17.080  0.00  0.00    +0.000 C 
ENDBRANCH   7  17
ENDBRANCH   1  12
BRANCH   4  19
ATOM     19  C   UNL     1       2.242   7.929  18.824  0.00  0.00    +0.000 A 
ATOM     20  C   UNL     1       3.111   7.778  17.736  0.00  0.00    +0.000 A 
ATOM     21  C   UNL     1       3.966   6.678  17.622  0.00  0.00    +0.000 A 
ATOM     22  C   UNL     1       3.966   5.707  18.620  0.00  0.00    +0.000 A 
ATOM     23  N   UNL     1       3.149   5.817  19.701  0.00  0.00    +0.000 NA
ATOM     24  C   UNL     1       2.332   6.904  19.772  0.00  0.00    +0.000 A 
BRANCH  22  25
ATOM     25  C   UNL     1       4.920   4.521  18.528  0.00  0.00    +0.000 C 
ATOM     26  F   UNL     1       4.839   3.857  17.334  0.00  0.00    +0.000 F 
ATOM     27  F   UNL     1       6.232   4.876  18.659  0.00  0.00    +0.000 F 
ATOM     28  F   UNL     1       4.686   3.574  19.481  0.00  0.00    +0.000 F 
ENDBRANCH  22  25
ENDBRANCH   4  19
TORSDOF 4
ENDMDL
