MODEL 1
REMARK VINA RESULT:      -7.9      0.000      0.000
REMARK  Name = 
REMARK  12 active torsions:
REMARK  status: ('A' for Active; 'I' for Inactive)
REMARK    1  A    between atoms: C_1  and  O_2
REMARK    2  A    between atoms: O_2  and  C_3
REMARK    3  A    between atoms: C_7  and  C_8
REMARK    4  A    between atoms: C_8  and  N_9
REMARK    5  A    between atoms: C_10  and  C_12
REMARK    6  A    between atoms: C_12  and  C_13
REMARK    7  A    between atoms: C_13  and  C_14
REMARK    8  A    between atoms: C_14  and  N_15
REMARK    9  A    between atoms: C_22  and  C_23
REMARK   10  A    between atoms: N_25  and  C_26
REMARK   11  A    between atoms: C_32  and  O_33
REMARK   12  A    between atoms: O_33  and  C_34
REMARK                            x       y       z     vdW  Elec       q    Type
REMARK                         _______ _______ _______ _____ _____    ______ ____
ROOT
ATOM      1  C   UNL     1       1.250   6.423  20.521  0.00  0.00    +0.000 C 
ENDROOT
BRANCH   1   2
ATOM      2  N   UNL     1       2.421   5.706  20.018  0.00  0.00    +0.000 N 
ATOM      3  C   UNL     1       2.680   4.482  20.676  0.00  0.00    +0.000 C 
ATOM      4  O   UNL     1       2.252   4.240  21.811  0.00  0.00    +0.000 OA
ATOM      5  C   UNL     1       3.321   3.361  19.881  0.00  0.00    +0.000 C 
ATOM      6  S   UNL     1       4.826   3.877  19.055  0.00  0.00    +0.000 S 
ATOM      7  C   UNL     1       4.130   5.283  18.310  0.00  0.00    +0.000 A 
ATOM      8  C   UNL     1       3.129   6.066  18.847  0.00  0.00    +0.000 A 
ATOM      9  C   UNL     1       3.141   7.218  17.998  0.00  0.00    +0.000 A 
ATOM     10  C   UNL     1       2.412   8.515  18.063  0.00  0.00    +0.000 C 
ATOM     11  N   UNL     1       4.036   7.098  16.999  0.00  0.00    +0.000 NA
ATOM     12  N   UNL     1       4.543   5.842  17.124  0.00  0.00    +0.000 N 
BRANCH  12  13
ATOM     13  C   UNL     1       5.361   5.285  16.097  0.00  0.00    +0.000 A 
ATOM     14  C   UNL     1       4.786   4.470  15.109  0.00  0.00    +0.000 A 
ATOM     15  C   UNL     1       5.568   4.025  14.036  0.00  0.00    +0.000 A 
ATOM     16  C   UNL     1       6.921   4.355  13.964  0.00  0.00    +0.000 A 
ATOM     17  C   UNL     1       7.512   5.096  14.982  0.00  0.00    +0.000 A 
ATOM     18  C   UNL     1       6.736   5.546  16.051  0.00  0.00    +0.000 A 
ENDBRANCH  12  13
ENDBRANCH   1   2
BRANCH   1  19
ATOM     19  C   UNL     1       1.708   7.707  21.225  0.00  0.00    +0.000 C 
BRANCH  19  20
ATOM     20  C   UNL     1       0.557   8.486  21.848  0.00  0.00    +0.000 C 
BRANCH  20  22
ATOM     21  N   UNL     1      -0.241   9.817  19.973  0.00  0.00    +0.000 N 
ATOM     22  C   UNL     1       0.409   9.844  21.182  0.00  0.00    +0.000 C 
ATOM     23  O   UNL     1       0.887  10.859  21.681  0.00  0.00    +0.000 OA
ATOM     24  H   UNL     1      -0.623   8.948  19.617  0.00  0.00    +0.000 HD
BRANCH  21  25
ATOM     25  C   UNL     1      -0.424  10.994  19.150  0.00  0.00    +0.000 C 
BRANCH  25  30
ATOM     26  C   UNL     1      -4.014  11.608  17.912  0.00  0.00    +0.000 A 
ATOM     27  C   UNL     1      -4.048  10.715  16.828  0.00  0.00    +0.000 A 
ATOM     28  C   UNL     1      -2.952   9.913  16.532  0.00  0.00    +0.000 A 
ATOM     29  C   UNL     1      -1.793  10.018  17.293  0.00  0.00    +0.000 A 
ATOM     30  C   UNL     1      -1.707  10.944  18.348  0.00  0.00    +0.000 A 
ATOM     31  C   UNL     1      -2.819  11.772  18.645  0.00  0.00    +0.000 A 
BRANCH  26  33
ATOM     32  C   UNL     1      -6.059  12.553  17.170  0.00  0.00    +0.000 C 
ATOM     33  O   UNL     1      -5.125  12.346  18.231  0.00  0.00    +0.000 OA
ENDBRANCH  26  33
BRANCH  31  34
ATOM     34  O   UNL     1      -2.580  12.670  19.654  0.00  0.00    +0.000 OA
ATOM     35  C   UNL     1      -3.238  12.519  20.902  0.00  0.00    +0.000 C 
ENDBRANCH  31  34
ENDBRANCH  25  30
ENDBRANCH  21  25
ENDBRANCH  20  22
ENDBRANCH  19  20
ENDBRANCH   1  19
TORSDOF 9
ENDMDL
MODEL 2
REMARK VINA RESULT:      -7.5      0.849      1.071
REMARK  Name = 
REMARK  12 active torsions:
REMARK  status: ('A' for Active; 'I' for Inactive)
REMARK    1  A    between atoms: C_1  and  O_2
REMARK    2  A    between atoms: O_2  and  C_3
REMARK    3  A    between atoms: C_7  and  C_8
REMARK    4  A    between atoms: C_8  and  N_9
REMARK    5  A    between atoms: C_10  and  C_12
REMARK    6  A    between atoms: C_12  and  C_13
REMARK    7  A    between atoms: C_13  and  C_14
REMARK    8  A    between atoms: C_14  and  N_15
REMARK    9  A    between atoms: C_22  and  C_23
REMARK   10  A    between atoms: N_25  and  C_26
REMARK   11  A    between atoms: C_32  and  O_33
REMARK   12  A    between atoms: O_33  and  C_34
REMARK                            x       y       z     vdW  Elec       q    Type
REMARK                         _______ _______ _______ _____ _____    ______ ____
ROOT
ATOM      1  C   UNL     1       1.198   6.416  20.527  0.00  0.00    +0.000 C 
ENDROOT
BRANCH   1   2
ATOM      2  N   UNL     1       2.372   5.698  20.035  0.00  0.00    +0.000 N 
ATOM      3  C   UNL     1       2.619   4.470  20.689  0.00  0.00    +0.000 C 
ATOM      4  O   UNL     1       2.176   4.222  21.817  0.00  0.00    +0.000 OA
ATOM      5  C   UNL     1       3.265   3.350  19.896  0.00  0.00    +0.000 C 
ATOM      6  S   UNL     1       4.782   3.864  19.091  0.00  0.00    +0.000 S 
ATOM      7  C   UNL     1       4.101   5.278  18.346  0.00  0.00    +0.000 A 
ATOM      8  C   UNL     1       3.096   6.062  18.875  0.00  0.00    +0.000 A 
ATOM      9  C   UNL     1       3.124   7.218  18.033  0.00  0.00    +0.000 A 
ATOM     10  C   UNL     1       2.398   8.518  18.096  0.00  0.00    +0.000 C 
ATOM     11  N   UNL     1       4.031   7.100  17.044  0.00  0.00    +0.000 NA
ATOM     12  N   UNL     1       4.531   5.841  17.168  0.00  0.00    +0.000 N 
BRANCH  12  13
ATOM     13  C   UNL     1       5.359   5.287  16.149  0.00  0.00    +0.000 A 
ATOM     14  C   UNL     1       4.787   4.515  15.125  0.00  0.00    +0.000 A 
ATOM     15  C   UNL     1       5.584   4.074  14.061  0.00  0.00    +0.000 A 
ATOM     16  C   UNL     1       6.949   4.367  14.033  0.00  0.00    +0.000 A 
ATOM     17  C   UNL     1       7.533   5.064  15.084  0.00  0.00    +0.000 A 
ATOM     18  C   UNL     1       6.742   5.509  16.145  0.00  0.00    +0.000 A 
ENDBRANCH  12  13
ENDBRANCH   1   2
BRANCH   1  19
ATOM     19  C   UNL     1       1.641   7.757  21.128  0.00  0.00    +0.000 C 
BRANCH  19  20
ATOM     20  C   UNL     1       0.489   8.546  21.737  0.00  0.00    +0.000 C 
BRANCH  20  22
ATOM     21  N   UNL     1      -0.376   9.931  19.931  0.00  0.00    +0.000 N 
ATOM     22  C   UNL     1       0.373   9.913  21.082  0.00  0.00    +0.000 C 
ATOM     23  O   UNL     1       0.954  10.893  21.538  0.00  0.00    +0.000 OA
ATOM     24  H   UNL     1      -0.840   9.089  19.610  0.00  0.00    +0.000 HD
BRANCH  21  25
ATOM     25  C   UNL     1      -0.551  11.120  19.124  0.00  0.00    +0.000 C 
BRANCH  25  30
ATOM     26  C   UNL     1      -4.159  12.395  19.513  0.00  0.00    +0.000 A 
ATOM     27  C   UNL     1      -4.716  11.901  18.323  0.00  0.00    +0.000 A 
ATOM     28  C   UNL     1      -3.953  11.147  17.439  0.00  0.00    +0.000 A 
ATOM     29  C   UNL     1      -2.612  10.906  17.716  0.00  0.00    +0.000 A 
ATOM     30  C   UNL     1      -2.010  11.436  18.871  0.00  0.00    +0.000 A 
ATOM     31  C   UNL     1      -2.782  12.215  19.768  0.00  0.00    +0.000 A 
BRANCH  26  33
ATOM     32  C   UNL     1      -5.978  12.327  21.034  0.00  0.00    +0.000 C 
ATOM     33  O   UNL     1      -4.941  13.083  20.406  0.00  0.00    +0.000 OA
ENDBRANCH  26  33
BRANCH  31  34
ATOM     34  O   UNL     1      -2.059  12.721  20.819  0.00  0.00    +0.000 OA
ATOM     35  C   UNL     1      -2.270  12.216  22.128  0.00  0.00    +0.000 C 
ENDBRANCH  31  34
ENDBRANCH  25  30
ENDBRANCH  21  25
ENDBRANCH  20  22
ENDBRANCH  19  20
ENDBRANCH   1  19
TORSDOF 9
ENDMDL
MODEL 3
REMARK VINA RESULT:      -7.5      3.942     10.646
REMARK  Name = 
REMARK  12 active torsions:
REMARK  status: ('A' for Active; 'I' for Inactive)
REMARK    1  A    between atoms: C_1  and  O_2
REMARK    2  A    between atoms: O_2  and  C_3
REMARK    3  A    between atoms: C_7  and  C_8
REMARK    4  A    between atoms: C_8  and  N_9
REMARK    5  A    between atoms: C_10  and  C_12
REMARK    6  A    between atoms: C_12  and  C_13
REMARK    7  A    between atoms: C_13  and  C_14
REMARK    8  A    between atoms: C_14  and  N_15
REMARK    9  A    between atoms: C_22  and  C_23
REMARK   10  A    between atoms: N_25  and  C_26
REMARK   11  A    between atoms: C_32  and  O_33
REMARK   12  A    between atoms: O_33  and  C_34
REMARK                            x       y       z     vdW  Elec       q    Type
REMARK                         _______ _______ _______ _____ _____    ______ ____
ROOT
ATOM      1  C   UNL     1       1.621  12.110  20.373  0.00  0.00    +0.000 C 
ENDROOT
BRANCH   1   2
ATOM      2  N   UNL     1       0.536  12.909  20.940  0.00  0.00    +0.000 N 
ATOM      3  C   UNL     1       0.459  14.227  20.436  0.00  0.00    +0.000 C 
ATOM      4  O   UNL     1       1.429  14.790  19.914  0.00  0.00    +0.000 OA
ATOM      5  C   UNL     1      -0.904  14.884  20.345  0.00  0.00    +0.000 C 
ATOM      6  S   UNL     1      -1.797  14.831  21.899  0.00  0.00    +0.000 S 
ATOM      7  C   UNL     1      -1.587  13.126  22.151  0.00  0.00    +0.000 A 
ATOM      8  C   UNL     1      -0.491  12.383  21.760  0.00  0.00    +0.000 A 
ATOM      9  C   UNL     1      -0.686  11.146  22.452  0.00  0.00    +0.000 A 
ATOM     10  C   UNL     1       0.167   9.933  22.590  0.00  0.00    +0.000 C 
ATOM     11  N   UNL     1      -1.840  11.134  23.147  0.00  0.00    +0.000 NA
ATOM     12  N   UNL     1      -2.452  12.311  22.843  0.00  0.00    +0.000 N 
BRANCH  12  13
ATOM     13  C   UNL     1      -3.805  12.545  23.226  0.00  0.00    +0.000 A 
ATOM     14  C   UNL     1      -4.742  12.958  22.266  0.00  0.00    +0.000 A 
ATOM     15  C   UNL     1      -6.093  13.069  22.620  0.00  0.00    +0.000 A 
ATOM     16  C   UNL     1      -6.504  12.808  23.927  0.00  0.00    +0.000 A 
ATOM     17  C   UNL     1      -5.566  12.476  24.898  0.00  0.00    +0.000 A 
ATOM     18  C   UNL     1      -4.220  12.359  24.550  0.00  0.00    +0.000 A 
ENDBRANCH  12  13
ENDBRANCH   1   2
BRANCH   1  19
ATOM     19  C   UNL     1       1.202  11.598  18.988  0.00  0.00    +0.000 C 
BRANCH  19  20
ATOM     20  C   UNL     1       0.637  10.185  19.022  0.00  0.00    +0.000 C 
BRANCH  20  22
ATOM     21  N   UNL     1       1.996   8.179  19.259  0.00  0.00    +0.000 N 
ATOM     22  C   UNL     1       1.625   9.200  18.419  0.00  0.00    +0.000 C 
ATOM     23  O   UNL     1       2.079   9.357  17.290  0.00  0.00    +0.000 OA
ATOM     24  H   UNL     1       1.578   8.097  20.179  0.00  0.00    +0.000 HD
BRANCH  21  25
ATOM     25  C   UNL     1       2.977   7.178  18.897  0.00  0.00    +0.000 C 
BRANCH  25  30
ATOM     26  C   UNL     1       2.276   3.400  18.697  0.00  0.00    +0.000 A 
ATOM     27  C   UNL     1       1.544   3.231  19.883  0.00  0.00    +0.000 A 
ATOM     28  C   UNL     1       1.255   4.316  20.703  0.00  0.00    +0.000 A 
ATOM     29  C   UNL     1       1.727   5.580  20.367  0.00  0.00    +0.000 A 
ATOM     30  C   UNL     1       2.512   5.773  19.216  0.00  0.00    +0.000 A 
ATOM     31  C   UNL     1       2.818   4.667  18.385  0.00  0.00    +0.000 A 
BRANCH  26  33
ATOM     32  C   UNL     1       3.466   1.385  18.316  0.00  0.00    +0.000 C 
ATOM     33  O   UNL     1       2.498   2.333  17.865  0.00  0.00    +0.000 OA
ENDBRANCH  26  33
BRANCH  31  34
ATOM     34  O   UNL     1       3.641   4.982  17.333  0.00  0.00    +0.000 OA
ATOM     35  C   UNL     1       4.998   4.570  17.352  0.00  0.00    +0.000 C 
ENDBRANCH  31  34
ENDBRANCH  25  30
ENDBRANCH  21  25
ENDBRANCH  20  22
ENDBRANCH  19  20
ENDBRANCH   1  19
TORSDOF 9
ENDMDL
MODEL 4
REMARK VINA RESULT:      -7.2      0.744      1.693
REMARK  Name = 
REMARK  12 active torsions:
REMARK  status: ('A' for Active; 'I' for Inactive)
REMARK    1  A    between atoms: C_1  and  O_2
REMARK    2  A    between atoms: O_2  and  C_3
REMARK    3  A    between atoms: C_7  and  C_8
REMARK    4  A    between atoms: C_8  and  N_9
REMARK    5  A    between atoms: C_10  and  C_12
REMARK    6  A    between atoms: C_12  and  C_13
REMARK    7  A    between atoms: C_13  and  C_14
REMARK    8  A    between atoms: C_14  and  N_15
REMARK    9  A    between atoms: C_22  and  C_23
REMARK   10  A    between atoms: N_25  and  C_26
REMARK   11  A    between atoms: C_32  and  O_33
REMARK   12  A    between atoms: O_33  and  C_34
REMARK                            x       y       z     vdW  Elec       q    Type
REMARK                         _______ _______ _______ _____ _____    ______ ____
ROOT
ATOM      1  C   UNL     1       1.173   6.490  20.451  0.00  0.00    +0.000 C 
ENDROOT
BRANCH   1   2
ATOM      2  N   UNL     1       2.366   5.787  19.986  0.00  0.00    +0.000 N 
ATOM      3  C   UNL     1       2.633   4.579  20.670  0.00  0.00    +0.000 C 
ATOM      4  O   UNL     1       2.184   4.348  21.800  0.00  0.00    +0.000 OA
ATOM      5  C   UNL     1       3.311   3.456  19.909  0.00  0.00    +0.000 C 
ATOM      6  S   UNL     1       4.824   3.985  19.107  0.00  0.00    +0.000 S 
ATOM      7  C   UNL     1       4.120   5.366  18.323  0.00  0.00    +0.000 A 
ATOM      8  C   UNL     1       3.094   6.140  18.825  0.00  0.00    +0.000 A 
ATOM      9  C   UNL     1       3.104   7.278  17.957  0.00  0.00    +0.000 A 
ATOM     10  C   UNL     1       2.351   8.562  17.984  0.00  0.00    +0.000 C 
ATOM     11  N   UNL     1       4.023   7.157  16.979  0.00  0.00    +0.000 NA
ATOM     12  N   UNL     1       4.549   5.912  17.137  0.00  0.00    +0.000 N 
BRANCH  12  13
ATOM     13  C   UNL     1       5.399   5.353  16.138  0.00  0.00    +0.000 A 
ATOM     14  C   UNL     1       4.849   4.576  15.106  0.00  0.00    +0.000 A 
ATOM     15  C   UNL     1       5.668   4.131  14.061  0.00  0.00    +0.000 A 
ATOM     16  C   UNL     1       7.033   4.423  14.060  0.00  0.00    +0.000 A 
ATOM     17  C   UNL     1       7.595   5.124  15.122  0.00  0.00    +0.000 A 
ATOM     18  C   UNL     1       6.781   5.574  16.163  0.00  0.00    +0.000 A 
ENDBRANCH  12  13
ENDBRANCH   1   2
BRANCH   1  19
ATOM     19  C   UNL     1       1.574   7.878  20.971  0.00  0.00    +0.000 C 
BRANCH  19  20
ATOM     20  C   UNL     1       0.503   8.519  21.844  0.00  0.00    +0.000 C 
BRANCH  20  22
ATOM     21  N   UNL     1      -0.258  10.137  20.193  0.00  0.00    +0.000 N 
ATOM     22  C   UNL     1       0.285   9.968  21.443  0.00  0.00    +0.000 C 
ATOM     23  O   UNL     1       0.623  10.894  22.174  0.00  0.00    +0.000 OA
ATOM     24  H   UNL     1      -0.526   9.332  19.639  0.00  0.00    +0.000 HD
BRANCH  21  25
ATOM     25  C   UNL     1      -0.481  11.440  19.600  0.00  0.00    +0.000 C 
BRANCH  25  30
ATOM     26  C   UNL     1      -4.176  12.018  18.697  0.00  0.00    +0.000 A 
ATOM     27  C   UNL     1      -4.588  12.735  19.831  0.00  0.00    +0.000 A 
ATOM     28  C   UNL     1      -3.687  13.053  20.840  0.00  0.00    +0.000 A 
ATOM     29  C   UNL     1      -2.366  12.626  20.746  0.00  0.00    +0.000 A 
ATOM     30  C   UNL     1      -1.936  11.855  19.651  0.00  0.00    +0.000 A 
ATOM     31  C   UNL     1      -2.856  11.520  18.627  0.00  0.00    +0.000 A 
BRANCH  26  33
ATOM     32  C   UNL     1      -6.376  12.295  17.858  0.00  0.00    +0.000 C 
ATOM     33  O   UNL     1      -5.061  11.768  17.679  0.00  0.00    +0.000 OA
ENDBRANCH  26  33
BRANCH  31  34
ATOM     34  O   UNL     1      -2.322  10.716  17.652  0.00  0.00    +0.000 OA
ATOM     35  C   UNL     1      -2.979   9.510  17.294  0.00  0.00    +0.000 C 
ENDBRANCH  31  34
ENDBRANCH  25  30
ENDBRANCH  21  25
ENDBRANCH  20  22
ENDBRANCH  19  20
ENDBRANCH   1  19
TORSDOF 9
ENDMDL
MODEL 5
REMARK VINA RESULT:      -7.1      3.080      3.994
REMARK  Name = 
REMARK  12 active torsions:
REMARK  status: ('A' for Active; 'I' for Inactive)
REMARK    1  A    between atoms: C_1  and  O_2
REMARK    2  A    between atoms: O_2  and  C_3
REMARK    3  A    between atoms: C_7  and  C_8
REMARK    4  A    between atoms: C_8  and  N_9
REMARK    5  A    between atoms: C_10  and  C_12
REMARK    6  A    between atoms: C_12  and  C_13
REMARK    7  A    between atoms: C_13  and  C_14
REMARK    8  A    between atoms: C_14  and  N_15
REMARK    9  A    between atoms: C_22  and  C_23
REMARK   10  A    between atoms: N_25  and  C_26
REMARK   11  A    between atoms: C_32  and  O_33
REMARK   12  A    between atoms: O_33  and  C_34
REMARK                            x       y       z     vdW  Elec       q    Type
REMARK                         _______ _______ _______ _____ _____    ______ ____
ROOT
ATOM      1  C   UNL     1       0.980   6.194  20.454  0.00  0.00    +0.000 C 
ENDROOT
BRANCH   1   2
ATOM      2  N   UNL     1       2.232   5.594  19.995  0.00  0.00    +0.000 N 
ATOM      3  C   UNL     1       2.577   4.393  20.654  0.00  0.00    +0.000 C 
ATOM      4  O   UNL     1       2.128   4.100  21.769  0.00  0.00    +0.000 OA
ATOM      5  C   UNL     1       3.351   3.344  19.879  0.00  0.00    +0.000 C 
ATOM      6  S   UNL     1       4.833   4.005  19.119  0.00  0.00    +0.000 S 
ATOM      7  C   UNL     1       4.040   5.349  18.356  0.00  0.00    +0.000 A 
ATOM      8  C   UNL     1       2.950   6.031  18.856  0.00  0.00    +0.000 A 
ATOM      9  C   UNL     1       2.889   7.188  18.016  0.00  0.00    +0.000 A 
ATOM     10  C   UNL     1       2.040   8.411  18.059  0.00  0.00    +0.000 C 
ATOM     11  N   UNL     1       3.831   7.161  17.053  0.00  0.00    +0.000 NA
ATOM     12  N   UNL     1       4.447   5.956  17.191  0.00  0.00    +0.000 N 
BRANCH  12  13
ATOM     13  C   UNL     1       5.354   5.488  16.195  0.00  0.00    +0.000 A 
ATOM     14  C   UNL     1       6.726   5.762  16.313  0.00  0.00    +0.000 A 
ATOM     15  C   UNL     1       7.626   5.199  15.400  0.00  0.00    +0.000 A 
ATOM     16  C   UNL     1       7.164   4.399  14.355  0.00  0.00    +0.000 A 
ATOM     17  C   UNL     1       5.799   4.190  14.189  0.00  0.00    +0.000 A 
ATOM     18  C   UNL     1       4.898   4.745  15.099  0.00  0.00    +0.000 A 
ENDBRANCH  12  13
ENDBRANCH   1   2
BRANCH   1  19
ATOM     19  C   UNL     1       1.293   7.464  21.257  0.00  0.00    +0.000 C 
BRANCH  19  20
ATOM     20  C   UNL     1       0.044   8.241  21.652  0.00  0.00    +0.000 C 
BRANCH  20  22
ATOM     21  N   UNL     1      -0.030  10.642  21.261  0.00  0.00    +0.000 N 
ATOM     22  C   UNL     1       0.409   9.647  22.099  0.00  0.00    +0.000 C 
ATOM     23  O   UNL     1       1.086   9.845  23.103  0.00  0.00    +0.000 OA
ATOM     24  H   UNL     1      -0.595  10.415  20.450  0.00  0.00    +0.000 HD
BRANCH  21  25
ATOM     25  C   UNL     1       0.271  12.042  21.474  0.00  0.00    +0.000 C 
BRANCH  25  30
ATOM     26  C   UNL     1       2.901  14.221  19.705  0.00  0.00    +0.000 A 
ATOM     27  C   UNL     1       3.031  13.507  18.502  0.00  0.00    +0.000 A 
ATOM     28  C   UNL     1       2.262  12.375  18.259  0.00  0.00    +0.000 A 
ATOM     29  C   UNL     1       1.378  11.919  19.230  0.00  0.00    +0.000 A 
ATOM     30  C   UNL     1       1.267  12.578  20.468  0.00  0.00    +0.000 A 
ATOM     31  C   UNL     1       2.059  13.725  20.723  0.00  0.00    +0.000 A 
BRANCH  26  33
ATOM     32  C   UNL     1       5.040  15.229  19.877  0.00  0.00    +0.000 C 
ATOM     33  O   UNL     1       3.620  15.372  19.904  0.00  0.00    +0.000 OA
ENDBRANCH  26  33
BRANCH  31  34
ATOM     34  O   UNL     1       1.898  14.232  21.988  0.00  0.00    +0.000 OA
ATOM     35  C   UNL     1       1.191  15.447  22.177  0.00  0.00    +0.000 C 
ENDBRANCH  31  34
ENDBRANCH  25  30
ENDBRANCH  21  25
ENDBRANCH  20  22
ENDBRANCH  19  20
ENDBRANCH   1  19
TORSDOF 9
ENDMDL
MODEL 6
REMARK VINA RESULT:      -7.1      2.780      3.180
REMARK  Name = 
REMARK  12 active torsions:
REMARK  status: ('A' for Active; 'I' for Inactive)
REMARK    1  A    between atoms: C_1  and  O_2
REMARK    2  A    between atoms: O_2  and  C_3
REMARK    3  A    between atoms: C_7  and  C_8
REMARK    4  A    between atoms: C_8  and  N_9
REMARK    5  A    between atoms: C_10  and  C_12
REMARK    6  A    between atoms: C_12  and  C_13
REMARK    7  A    between atoms: C_13  and  C_14
REMARK    8  A    between atoms: C_14  and  N_15
REMARK    9  A    between atoms: C_22  and  C_23
REMARK   10  A    between atoms: N_25  and  C_26
REMARK   11  A    between atoms: C_32  and  O_33
REMARK   12  A    between atoms: O_33  and  C_34
REMARK                            x       y       z     vdW  Elec       q    Type
REMARK                         _______ _______ _______ _____ _____    ______ ____
ROOT
ATOM      1  C   UNL     1       1.227   6.430  20.437  0.00  0.00    +0.000 C 
ENDROOT
BRANCH   1   2
ATOM      2  N   UNL     1       2.409   5.717  19.957  0.00  0.00    +0.000 N 
ATOM      3  C   UNL     1       2.662   4.497  20.624  0.00  0.00    +0.000 C 
ATOM      4  O   UNL     1       2.216   4.257  21.752  0.00  0.00    +0.000 OA
ATOM      5  C   UNL     1       3.321   3.375  19.845  0.00  0.00    +0.000 C 
ATOM      6  S   UNL     1       4.838   3.894  19.042  0.00  0.00    +0.000 S 
ATOM      7  C   UNL     1       4.149   5.294  18.280  0.00  0.00    +0.000 A 
ATOM      8  C   UNL     1       3.136   6.075  18.797  0.00  0.00    +0.000 A 
ATOM      9  C   UNL     1       3.157   7.224  17.944  0.00  0.00    +0.000 A 
ATOM     10  C   UNL     1       2.421   8.518  17.991  0.00  0.00    +0.000 C 
ATOM     11  N   UNL     1       4.070   7.103  16.960  0.00  0.00    +0.000 NA
ATOM     12  N   UNL     1       4.580   5.850  17.099  0.00  0.00    +0.000 N 
BRANCH  12  13
ATOM     13  C   UNL     1       5.417   5.292  16.088  0.00  0.00    +0.000 A 
ATOM     14  C   UNL     1       4.861   4.477  15.090  0.00  0.00    +0.000 A 
ATOM     15  C   UNL     1       5.664   4.031  14.032  0.00  0.00    +0.000 A 
ATOM     16  C   UNL     1       7.019   4.362  13.986  0.00  0.00    +0.000 A 
ATOM     17  C   UNL     1       7.589   5.103  15.015  0.00  0.00    +0.000 A 
ATOM     18  C   UNL     1       6.792   5.554  16.069  0.00  0.00    +0.000 A 
ENDBRANCH  12  13
ENDBRANCH   1   2
BRANCH   1  19
ATOM     19  C   UNL     1       1.670   7.646  21.262  0.00  0.00    +0.000 C 
BRANCH  19  20
ATOM     20  C   UNL     1       0.876   8.905  20.941  0.00  0.00    +0.000 C 
BRANCH  20  22
ATOM     21  N   UNL     1      -0.755  10.255  22.142  0.00  0.00    +0.000 N 
ATOM     22  C   UNL     1       0.456   9.612  22.219  0.00  0.00    +0.000 C 
ATOM     23  O   UNL     1       1.183   9.634  23.208  0.00  0.00    +0.000 OA
ATOM     24  H   UNL     1      -1.315  10.191  21.300  0.00  0.00    +0.000 HD
BRANCH  21  25
ATOM     25  C   UNL     1      -1.300  11.040  23.229  0.00  0.00    +0.000 C 
BRANCH  25  30
ATOM     26  C   UNL     1      -1.808  14.620  21.916  0.00  0.00    +0.000 A 
ATOM     27  C   UNL     1      -3.210  14.688  21.948  0.00  0.00    +0.000 A 
ATOM     28  C   UNL     1      -3.966  13.619  22.416  0.00  0.00    +0.000 A 
ATOM     29  C   UNL     1      -3.329  12.451  22.825  0.00  0.00    +0.000 A 
ATOM     30  C   UNL     1      -1.930  12.330  22.750  0.00  0.00    +0.000 A 
ATOM     31  C   UNL     1      -1.160  13.414  22.262  0.00  0.00    +0.000 A 
BRANCH  26  33
ATOM     32  C   UNL     1      -1.297  16.141  20.170  0.00  0.00    +0.000 C 
ATOM     33  O   UNL     1      -1.075  15.706  21.512  0.00  0.00    +0.000 OA
ENDBRANCH  26  33
BRANCH  31  34
ATOM     34  O   UNL     1       0.183  13.141  22.183  0.00  0.00    +0.000 OA
ATOM     35  C   UNL     1       0.825  13.116  20.918  0.00  0.00    +0.000 C 
ENDBRANCH  31  34
ENDBRANCH  25  30
ENDBRANCH  21  25
ENDBRANCH  20  22
ENDBRANCH  19  20
ENDBRANCH   1  19
TORSDOF 9
ENDMDL
MODEL 7
REMARK VINA RESULT:      -7.1      3.567     10.655
REMARK  Name = 
REMARK  12 active torsions:
REMARK  status: ('A' for Active; 'I' for Inactive)
REMARK    1  A    between atoms: C_1  and  O_2
REMARK    2  A    between atoms: O_2  and  C_3
REMARK    3  A    between atoms: C_7  and  C_8
REMARK    4  A    between atoms: C_8  and  N_9
REMARK    5  A    between atoms: C_10  and  C_12
REMARK    6  A    between atoms: C_12  and  C_13
REMARK    7  A    between atoms: C_13  and  C_14
REMARK    8  A    between atoms: C_14  and  N_15
REMARK    9  A    between atoms: C_22  and  C_23
REMARK   10  A    between atoms: N_25  and  C_26
REMARK   11  A    between atoms: C_32  and  O_33
REMARK   12  A    between atoms: O_33  and  C_34
REMARK                            x       y       z     vdW  Elec       q    Type
REMARK                         _______ _______ _______ _____ _____    ______ ____
ROOT
ATOM      1  C   UNL     1       0.930  10.711  20.233  0.00  0.00    +0.000 C 
ENDROOT
BRANCH   1   2
ATOM      2  N   UNL     1       0.200  11.948  20.503  0.00  0.00    +0.000 N 
ATOM      3  C   UNL     1       0.416  12.970  19.551  0.00  0.00    +0.000 C 
ATOM      4  O   UNL     1       1.416  12.993  18.823  0.00  0.00    +0.000 OA
ATOM      5  C   UNL     1      -0.714  13.943  19.272  0.00  0.00    +0.000 C 
ATOM      6  S   UNL     1      -1.352  14.701  20.765  0.00  0.00    +0.000 S 
ATOM      7  C   UNL     1      -1.582  13.208  21.622  0.00  0.00    +0.000 A 
ATOM      8  C   UNL     1      -0.801  12.078  21.495  0.00  0.00    +0.000 A 
ATOM      9  C   UNL     1      -1.226  11.275  22.601  0.00  0.00    +0.000 A 
ATOM     10  C   UNL     1      -0.727   9.983  23.147  0.00  0.00    +0.000 C 
ATOM     11  N   UNL     1      -2.225  11.858  23.291  0.00  0.00    +0.000 NA
ATOM     12  N   UNL     1      -2.528  12.987  22.596  0.00  0.00    +0.000 N 
BRANCH  12  13
ATOM     13  C   UNL     1      -3.694  13.743  22.913  0.00  0.00    +0.000 A 
ATOM     14  C   UNL     1      -4.950  13.318  22.452  0.00  0.00    +0.000 A 
ATOM     15  C   UNL     1      -6.106  13.993  22.866  0.00  0.00    +0.000 A 
ATOM     16  C   UNL     1      -6.012  15.106  23.702  0.00  0.00    +0.000 A 
ATOM     17  C   UNL     1      -4.764  15.577  24.096  0.00  0.00    +0.000 A 
ATOM     18  C   UNL     1      -3.610  14.905  23.690  0.00  0.00    +0.000 A 
ENDBRANCH  12  13
ENDBRANCH   1   2
BRANCH   1  19
ATOM     19  C   UNL     1       0.014   9.737  19.478  0.00  0.00    +0.000 C 
BRANCH  19  20
ATOM     20  C   UNL     1       0.379   9.597  18.006  0.00  0.00    +0.000 C 
BRANCH  20  22
ATOM     21  N   UNL     1       2.278   8.082  18.162  0.00  0.00    +0.000 N 
ATOM     22  C   UNL     1       1.871   9.355  17.847  0.00  0.00    +0.000 C 
ATOM     23  O   UNL     1       2.635  10.256  17.513  0.00  0.00    +0.000 OA
ATOM     24  H   UNL     1       1.598   7.377  18.422  0.00  0.00    +0.000 HD
BRANCH  21  25
ATOM     25  C   UNL     1       3.666   7.670  18.139  0.00  0.00    +0.000 C 
BRANCH  25  30
ATOM     26  C   UNL     1       3.396   3.885  17.506  0.00  0.00    +0.000 A 
ATOM     27  C   UNL     1       4.317   3.753  16.455  0.00  0.00    +0.000 A 
ATOM     28  C   UNL     1       5.030   4.853  15.990  0.00  0.00    +0.000 A 
ATOM     29  C   UNL     1       4.805   6.107  16.547  0.00  0.00    +0.000 A 
ATOM     30  C   UNL     1       3.847   6.282  17.562  0.00  0.00    +0.000 A 
ATOM     31  C   UNL     1       3.111   5.166  18.029  0.00  0.00    +0.000 A 
BRANCH  26  33
ATOM     32  C   UNL     1       3.533   1.913  18.815  0.00  0.00    +0.000 C 
ATOM     33  O   UNL     1       2.748   2.781  17.997  0.00  0.00    +0.000 OA
ENDBRANCH  26  33
BRANCH  31  34
ATOM     34  O   UNL     1       2.169   5.486  18.974  0.00  0.00    +0.000 OA
ATOM     35  C   UNL     1       2.391   5.148  20.334  0.00  0.00    +0.000 C 
ENDBRANCH  31  34
ENDBRANCH  25  30
ENDBRANCH  21  25
ENDBRANCH  20  22
ENDBRANCH  19  20
ENDBRANCH   1  19
TORSDOF 9
ENDMDL
MODEL 8
REMARK VINA RESULT:      -7.0      3.455     10.742
REMARK  Name = 
REMARK  12 active torsions:
REMARK  status: ('A' for Active; 'I' for Inactive)
REMARK    1  A    between atoms: C_1  and  O_2
REMARK    2  A    between atoms: O_2  and  C_3
REMARK    3  A    between atoms: C_7  and  C_8
REMARK    4  A    between atoms: C_8  and  N_9
REMARK    5  A    between atoms: C_10  and  C_12
REMARK    6  A    between atoms: C_12  and  C_13
REMARK    7  A    between atoms: C_13  and  C_14
REMARK    8  A    between atoms: C_14  and  N_15
REMARK    9  A    between atoms: C_22  and  C_23
REMARK   10  A    between atoms: N_25  and  C_26
REMARK   11  A    between atoms: C_32  and  O_33
REMARK   12  A    between atoms: O_33  and  C_34
REMARK                            x       y       z     vdW  Elec       q    Type
REMARK                         _______ _______ _______ _____ _____    ______ ____
ROOT
ATOM      1  C   UNL     1      -0.141  10.801  18.533  0.00  0.00    +0.000 C 
ENDROOT
BRANCH   1   2
ATOM      2  N   UNL     1      -1.568  11.104  18.435  0.00  0.00    +0.000 N 
ATOM      3  C   UNL     1      -2.269  10.306  17.504  0.00  0.00    +0.000 C 
ATOM      4  O   UNL     1      -1.700   9.724  16.573  0.00  0.00    +0.000 OA
ATOM      5  C   UNL     1      -3.726   9.986  17.783  0.00  0.00    +0.000 C 
ATOM      6  S   UNL     1      -4.702  11.455  18.102  0.00  0.00    +0.000 S 
ATOM      7  C   UNL     1      -3.631  12.107  19.304  0.00  0.00    +0.000 A 
ATOM      8  C   UNL     1      -2.259  11.963  19.323  0.00  0.00    +0.000 A 
ATOM      9  C   UNL     1      -1.857  12.909  20.318  0.00  0.00    +0.000 A 
ATOM     10  C   UNL     1      -0.516  13.374  20.771  0.00  0.00    +0.000 C 
ATOM     11  N   UNL     1      -2.914  13.520  20.888  0.00  0.00    +0.000 NA
ATOM     12  N   UNL     1      -4.008  12.917  20.349  0.00  0.00    +0.000 N 
BRANCH  12  13
ATOM     13  C   UNL     1      -5.306  13.157  20.887  0.00  0.00    +0.000 A 
ATOM     14  C   UNL     1      -5.643  14.435  21.358  0.00  0.00    +0.000 A 
ATOM     15  C   UNL     1      -6.955  14.698  21.773  0.00  0.00    +0.000 A 
ATOM     16  C   UNL     1      -7.917  13.686  21.755  0.00  0.00    +0.000 A 
ATOM     17  C   UNL     1      -7.565  12.399  21.364  0.00  0.00    +0.000 A 
ATOM     18  C   UNL     1      -6.260  12.134  20.945  0.00  0.00    +0.000 A 
ENDBRANCH  12  13
ENDBRANCH   1   2
BRANCH   1  19
ATOM     19  C   UNL     1       0.091   9.828  19.697  0.00  0.00    +0.000 C 
BRANCH  19  20
ATOM     20  C   UNL     1       1.458   9.160  19.651  0.00  0.00    +0.000 C 
BRANCH  20  22
ATOM     21  N   UNL     1       2.070   6.828  19.981  0.00  0.00    +0.000 N 
ATOM     22  C   UNL     1       1.484   7.933  20.547  0.00  0.00    +0.000 C 
ATOM     23  O   UNL     1       0.969   7.942  21.660  0.00  0.00    +0.000 OA
ATOM     24  H   UNL     1       2.487   6.886  19.059  0.00  0.00    +0.000 HD
BRANCH  21  25
ATOM     25  C   UNL     1       2.133   5.543  20.645  0.00  0.00    +0.000 C 
BRANCH  25  30
ATOM     26  C   UNL     1       3.827   3.362  17.967  0.00  0.00    +0.000 A 
ATOM     27  C   UNL     1       2.913   2.298  17.913  0.00  0.00    +0.000 A 
ATOM     28  C   UNL     1       1.763   2.306  18.695  0.00  0.00    +0.000 A 
ATOM     29  C   UNL     1       1.531   3.362  19.570  0.00  0.00    +0.000 A 
ATOM     30  C   UNL     1       2.457   4.414  19.690  0.00  0.00    +0.000 A 
ATOM     31  C   UNL     1       3.634   4.402  18.902  0.00  0.00    +0.000 A 
BRANCH  26  33
ATOM     32  C   UNL     1       4.838   4.232  16.006  0.00  0.00    +0.000 C 
ATOM     33  O   UNL     1       4.923   3.371  17.142  0.00  0.00    +0.000 OA
ENDBRANCH  26  33
BRANCH  31  34
ATOM     34  O   UNL     1       4.478   5.453  19.162  0.00  0.00    +0.000 OA
ATOM     35  C   UNL     1       5.858   5.211  19.385  0.00  0.00    +0.000 C 
ENDBRANCH  31  34
ENDBRANCH  25  30
ENDBRANCH  21  25
ENDBRANCH  20  22
ENDBRANCH  19  20
ENDBRANCH   1  19
TORSDOF 9
ENDMDL
MODEL 9
REMARK VINA RESULT:      -7.0      3.894     10.597
REMARK  Name = 
REMARK  12 active torsions:
REMARK  status: ('A' for Active; 'I' for Inactive)
REMARK    1  A    between atoms: C_1  and  O_2
REMARK    2  A    between atoms: O_2  and  C_3
REMARK    3  A    between atoms: C_7  and  C_8
REMARK    4  A    between atoms: C_8  and  N_9
REMARK    5  A    between atoms: C_10  and  C_12
REMARK    6  A    between atoms: C_12  and  C_13
REMARK    7  A    between atoms: C_13  and  C_14
REMARK    8  A    between atoms: C_14  and  N_15
REMARK    9  A    between atoms: C_22  and  C_23
REMARK   10  A    between atoms: N_25  and  C_26
REMARK   11  A    between atoms: C_32  and  O_33
REMARK   12  A    between atoms: O_33  and  C_34
REMARK                            x       y       z     vdW  Elec       q    Type
REMARK                         _______ _______ _______ _____ _____    ______ ____
ROOT
ATOM      1  C   UNL     1       1.916  12.653  19.942  0.00  0.00    +0.000 C 
ENDROOT
BRANCH   1   2
ATOM      2  N   UNL     1       0.823  13.315  20.652  0.00  0.00    +0.000 N 
ATOM      3  C   UNL     1       0.703  14.696  20.377  0.00  0.00    +0.000 C 
ATOM      4  O   UNL     1       1.648  15.366  19.942  0.00  0.00    +0.000 OA
ATOM      5  C   UNL     1      -0.678  15.321  20.419  0.00  0.00    +0.000 C 
ATOM      6  S   UNL     1      -1.539  14.983  21.955  0.00  0.00    +0.000 S 
ATOM      7  C   UNL     1      -1.280  13.266  21.914  0.00  0.00    +0.000 A 
ATOM      8  C   UNL     1      -0.174  12.631  21.388  0.00  0.00    +0.000 A 
ATOM      9  C   UNL     1      -0.324  11.290  21.865  0.00  0.00    +0.000 A 
ATOM     10  C   UNL     1       0.563  10.096  21.785  0.00  0.00    +0.000 C 
ATOM     11  N   UNL     1      -1.463  11.130  22.566  0.00  0.00    +0.000 NA
ATOM     12  N   UNL     1      -2.110  12.323  22.473  0.00  0.00    +0.000 N 
BRANCH  12  13
ATOM     13  C   UNL     1      -3.460  12.451  22.911  0.00  0.00    +0.000 A 
ATOM     14  C   UNL     1      -3.776  12.275  24.267  0.00  0.00    +0.000 A 
ATOM     15  C   UNL     1      -5.081  12.521  24.713  0.00  0.00    +0.000 A 
ATOM     16  C   UNL     1      -6.075  12.903  23.811  0.00  0.00    +0.000 A 
ATOM     17  C   UNL     1      -5.783  13.001  22.455  0.00  0.00    +0.000 A 
ATOM     18  C   UNL     1      -4.483  12.762  22.007  0.00  0.00    +0.000 A 
ENDBRANCH  12  13
ENDBRANCH   1   2
BRANCH   1  19
ATOM     19  C   UNL     1       1.402  12.132  18.594  0.00  0.00    +0.000 C 
BRANCH  19  20
ATOM     20  C   UNL     1       2.304  11.067  17.984  0.00  0.00    +0.000 C 
BRANCH  20  22
ATOM     21  N   UNL     1       2.488   8.648  18.183  0.00  0.00    +0.000 N 
ATOM     22  C   UNL     1       1.628   9.706  18.026  0.00  0.00    +0.000 C 
ATOM     23  O   UNL     1       0.415   9.588  17.878  0.00  0.00    +0.000 OA
ATOM     24  H   UNL     1       3.480   8.810  18.311  0.00  0.00    +0.000 HD
BRANCH  21  25
ATOM     25  C   UNL     1       2.049   7.268  18.181  0.00  0.00    +0.000 C 
BRANCH  25  30
ATOM     26  C   UNL     1       4.319   4.214  18.741  0.00  0.00    +0.000 A 
ATOM     27  C   UNL     1       5.434   4.604  17.982  0.00  0.00    +0.000 A 
ATOM     28  C   UNL     1       5.463   5.836  17.338  0.00  0.00    +0.000 A 
ATOM     29  C   UNL     1       4.360   6.681  17.416  0.00  0.00    +0.000 A 
ATOM     30  C   UNL     1       3.206   6.294  18.119  0.00  0.00    +0.000 A 
ATOM     31  C   UNL     1       3.170   5.034  18.766  0.00  0.00    +0.000 A 
BRANCH  26  33
ATOM     32  C   UNL     1       3.700   1.925  18.764  0.00  0.00    +0.000 C 
ATOM     33  O   UNL     1       4.332   3.024  19.423  0.00  0.00    +0.000 OA
ENDBRANCH  26  33
BRANCH  31  34
ATOM     34  O   UNL     1       1.965   4.758  19.362  0.00  0.00    +0.000 OA
ATOM     35  C   UNL     1       1.853   4.792  20.776  0.00  0.00    +0.000 C 
ENDBRANCH  31  34
ENDBRANCH  25  30
ENDBRANCH  21  25
ENDBRANCH  20  22
ENDBRANCH  19  20
ENDBRANCH   1  19
TORSDOF 9
ENDMDL
