MODEL 1
REMARK VINA RESULT:      -8.3      0.000      0.000
REMARK  Name = 
REMARK  4 active torsions:
REMARK  status: ('A' for Active; 'I' for Inactive)
REMARK    1  A    between atoms: C_2  and  C_12
REMARK    2  A    between atoms: N_3  and  C_4
REMARK    3  A    between atoms: C_4  and  C_5
REMARK    4  A    between atoms: N_20  and  C_21
REMARK                            x       y       z     vdW  Elec       q    Type
REMARK                         _______ _______ _______ _____ _____    ______ ____
ROOT
ATOM      1  C   UNL     1       1.154   9.362  19.504  0.00  0.00    +0.000 A 
ATOM      2  C   UNL     1       0.326  10.407  19.067  0.00  0.00    +0.000 A 
ATOM      3  C   UNL     1      -0.453  11.148  19.958  0.00  0.00    +0.000 A 
ATOM      4  C   UNL     1      -0.343  10.806  21.308  0.00  0.00    +0.000 A 
ATOM      5  C   UNL     1       0.472   9.780  21.769  0.00  0.00    +0.000 A 
ATOM      6  C   UNL     1       1.237   9.028  20.863  0.00  0.00    +0.000 A 
ATOM      7  N   UNL     1       0.377   9.695  23.131  0.00  0.00    +0.000 NA
ATOM      8  N   UNL     1      -0.471  10.628  23.544  0.00  0.00    +0.000 NA
ATOM      9  N   UNL     1      -0.904  11.301  22.458  0.00  0.00    +0.000 N 
ENDROOT
BRANCH   9  10
ATOM     10  C   UNL     1      -1.838  12.397  22.593  0.00  0.00    +0.000 C 
ATOM     11  C   UNL     1      -3.035  12.075  23.485  0.00  0.00    +0.000 C 
ATOM     12  C   UNL     1      -3.584  13.435  23.889  0.00  0.00    +0.000 C 
ATOM     13  C   UNL     1      -2.408  14.407  23.838  0.00  0.00    +0.000 C 
ATOM     14  C   UNL     1      -1.234  13.653  23.222  0.00  0.00    +0.000 C 
ENDBRANCH   9  10
BRANCH   1  16
ATOM     15  O   UNL     1       2.072   9.189  17.363  0.00  0.00    +0.000 OA
ATOM     16  C   UNL     1       1.977   8.684  18.475  0.00  0.00    +0.000 C 
ATOM     17  N   UNL     1       2.559   7.485  18.817  0.00  0.00    +0.000 N 
ATOM     18  H   UNL     1       2.349   7.047  19.700  0.00  0.00    +0.000 HD
BRANCH  17  19
ATOM     19  C   UNL     1       3.314   6.733  17.839  0.00  0.00    +0.000 C 
BRANCH  19  20
ATOM     20  C   UNL     1       3.203   5.250  18.081  0.00  0.00    +0.000 A 
ATOM     21  C   UNL     1       4.272   4.535  18.639  0.00  0.00    +0.000 A 
ATOM     22  C   UNL     1       4.156   3.163  18.868  0.00  0.00    +0.000 A 
ATOM     23  C   UNL     1       2.977   2.506  18.535  0.00  0.00    +0.000 A 
ATOM     24  F   UNL     1       2.871   1.189  18.757  0.00  0.00    +0.000 F 
ATOM     25  C   UNL     1       1.911   3.195  17.972  0.00  0.00    +0.000 A 
ATOM     26  C   UNL     1       2.023   4.566  17.740  0.00  0.00    +0.000 A 
ENDBRANCH  19  20
ENDBRANCH  17  19
ENDBRANCH   1  16
TORSDOF 4
ENDMDL
MODEL 2
REMARK VINA RESULT:      -8.2      3.996      9.144
REMARK  Name = 
REMARK  4 active torsions:
REMARK  status: ('A' for Active; 'I' for Inactive)
REMARK    1  A    between atoms: C_2  and  C_12
REMARK    2  A    between atoms: N_3  and  C_4
REMARK    3  A    between atoms: C_4  and  C_5
REMARK    4  A    between atoms: N_20  and  C_21
REMARK                            x       y       z     vdW  Elec       q    Type
REMARK                         _______ _______ _______ _____ _____    ______ ____
ROOT
ATOM      1  C   UNL     1       2.153   7.518  19.513  0.00  0.00    +0.000 A 
ATOM      2  C   UNL     1       2.871   7.753  18.331  0.00  0.00    +0.000 A 
ATOM      3  C   UNL     1       3.687   6.773  17.760  0.00  0.00    +0.000 A 
ATOM      4  C   UNL     1       3.727   5.542  18.419  0.00  0.00    +0.000 A 
ATOM      5  C   UNL     1       3.023   5.280  19.588  0.00  0.00    +0.000 A 
ATOM      6  C   UNL     1       2.220   6.279  20.164  0.00  0.00    +0.000 A 
ATOM      7  N   UNL     1       3.253   3.991  19.984  0.00  0.00    +0.000 NA
ATOM      8  N   UNL     1       4.080   3.433  19.109  0.00  0.00    +0.000 NA
ATOM      9  N   UNL     1       4.365   4.354  18.166  0.00  0.00    +0.000 N 
ENDROOT
BRANCH   9  10
ATOM     10  C   UNL     1       5.241   4.031  17.061  0.00  0.00    +0.000 C 
ATOM     11  C   UNL     1       4.680   4.430  15.698  0.00  0.00    +0.000 C 
ATOM     12  C   UNL     1       5.897   4.478  14.786  0.00  0.00    +0.000 C 
ATOM     13  C   UNL     1       7.094   4.789  15.681  0.00  0.00    +0.000 C 
ATOM     14  C   UNL     1       6.599   4.730  17.122  0.00  0.00    +0.000 C 
ENDBRANCH   9  10
BRANCH   1  16
ATOM     15  O   UNL     1       0.846   8.569  21.140  0.00  0.00    +0.000 OA
ATOM     16  C   UNL     1       1.277   8.613  19.994  0.00  0.00    +0.000 C 
ATOM     17  N   UNL     1       0.956   9.607  19.099  0.00  0.00    +0.000 N 
ATOM     18  H   UNL     1       1.230   9.534  18.132  0.00  0.00    +0.000 HD
BRANCH  17  19
ATOM     19  C   UNL     1       0.047  10.666  19.477  0.00  0.00    +0.000 C 
BRANCH  19  20
ATOM     20  C   UNL     1      -1.169  10.692  18.588  0.00  0.00    +0.000 A 
ATOM     21  C   UNL     1      -2.253  11.531  18.881  0.00  0.00    +0.000 A 
ATOM     22  C   UNL     1      -3.370  11.555  18.045  0.00  0.00    +0.000 A 
ATOM     23  C   UNL     1      -3.408  10.737  16.922  0.00  0.00    +0.000 A 
ATOM     24  F   UNL     1      -4.482  10.763  16.123  0.00  0.00    +0.000 F 
ATOM     25  C   UNL     1      -2.348   9.891  16.620  0.00  0.00    +0.000 A 
ATOM     26  C   UNL     1      -1.230   9.864  17.453  0.00  0.00    +0.000 A 
ENDBRANCH  19  20
ENDBRANCH  17  19
ENDBRANCH   1  16
TORSDOF 4
ENDMDL
MODEL 3
REMARK VINA RESULT:      -8.2      4.437     10.248
REMARK  Name = 
REMARK  4 active torsions:
REMARK  status: ('A' for Active; 'I' for Inactive)
REMARK    1  A    between atoms: C_2  and  C_12
REMARK    2  A    between atoms: N_3  and  C_4
REMARK    3  A    between atoms: C_4  and  C_5
REMARK    4  A    between atoms: N_20  and  C_21
REMARK                            x       y       z     vdW  Elec       q    Type
REMARK                         _______ _______ _______ _____ _____    ______ ____
ROOT
ATOM      1  C   UNL     1       3.925   5.499  18.545  0.00  0.00    +0.000 A 
ATOM      2  C   UNL     1       3.612   4.458  17.658  0.00  0.00    +0.000 A 
ATOM      3  C   UNL     1       4.402   4.183  16.539  0.00  0.00    +0.000 A 
ATOM      4  C   UNL     1       5.532   4.987  16.369  0.00  0.00    +0.000 A 
ATOM      5  C   UNL     1       5.868   6.022  17.233  0.00  0.00    +0.000 A 
ATOM      6  C   UNL     1       5.056   6.301  18.344  0.00  0.00    +0.000 A 
ATOM      7  N   UNL     1       7.027   6.614  16.811  0.00  0.00    +0.000 NA
ATOM      8  N   UNL     1       7.431   5.993  15.711  0.00  0.00    +0.000 NA
ATOM      9  N   UNL     1       6.543   5.013  15.441  0.00  0.00    +0.000 N 
ENDROOT
BRANCH   9  10
ATOM     10  C   UNL     1       6.724   4.148  14.296  0.00  0.00    +0.000 C 
ATOM     11  C   UNL     1       5.419   3.774  13.598  0.00  0.00    +0.000 C 
ATOM     12  C   UNL     1       5.847   3.322  12.210  0.00  0.00    +0.000 C 
ATOM     13  C   UNL     1       7.156   4.047  11.905  0.00  0.00    +0.000 C 
ATOM     14  C   UNL     1       7.577   4.761  13.185  0.00  0.00    +0.000 C 
ENDBRANCH   9  10
BRANCH   1  16
ATOM     15  O   UNL     1       2.852   4.695  20.458  0.00  0.00    +0.000 OA
ATOM     16  C   UNL     1       3.046   5.659  19.726  0.00  0.00    +0.000 C 
ATOM     17  N   UNL     1       2.450   6.885  19.912  0.00  0.00    +0.000 N 
ATOM     18  H   UNL     1       2.538   7.609  19.216  0.00  0.00    +0.000 HD
BRANCH  17  19
ATOM     19  C   UNL     1       1.522   7.091  21.003  0.00  0.00    +0.000 C 
BRANCH  19  20
ATOM     20  C   UNL     1       0.990   8.500  21.013  0.00  0.00    +0.000 A 
ATOM     21  C   UNL     1       0.411   9.037  22.172  0.00  0.00    +0.000 A 
ATOM     22  C   UNL     1      -0.071  10.347  22.174  0.00  0.00    +0.000 A 
ATOM     23  C   UNL     1       0.020  11.117  21.019  0.00  0.00    +0.000 A 
ATOM     24  F   UNL     1      -0.444  12.373  21.027  0.00  0.00    +0.000 F 
ATOM     25  C   UNL     1       0.581  10.599  19.859  0.00  0.00    +0.000 A 
ATOM     26  C   UNL     1       1.062   9.289  19.852  0.00  0.00    +0.000 A 
ENDBRANCH  19  20
ENDBRANCH  17  19
ENDBRANCH   1  16
TORSDOF 4
ENDMDL
MODEL 4
REMARK VINA RESULT:      -8.1      1.978      2.556
REMARK  Name = 
REMARK  4 active torsions:
REMARK  status: ('A' for Active; 'I' for Inactive)
REMARK    1  A    between atoms: C_2  and  C_12
REMARK    2  A    between atoms: N_3  and  C_4
REMARK    3  A    between atoms: C_4  and  C_5
REMARK    4  A    between atoms: N_20  and  C_21
REMARK                            x       y       z     vdW  Elec       q    Type
REMARK                         _______ _______ _______ _____ _____    ______ ____
ROOT
ATOM      1  C   UNL     1       1.270   8.961  19.467  0.00  0.00    +0.000 A 
ATOM      2  C   UNL     1       0.483  10.017  18.984  0.00  0.00    +0.000 A 
ATOM      3  C   UNL     1      -0.271  10.822  19.841  0.00  0.00    +0.000 A 
ATOM      4  C   UNL     1      -0.178  10.531  21.204  0.00  0.00    +0.000 A 
ATOM      5  C   UNL     1       0.597   9.494  21.710  0.00  0.00    +0.000 A 
ATOM      6  C   UNL     1       1.336   8.679  20.838  0.00  0.00    +0.000 A 
ATOM      7  N   UNL     1       0.493   9.468  23.074  0.00  0.00    +0.000 NA
ATOM      8  N   UNL     1      -0.321  10.447  23.445  0.00  0.00    +0.000 NA
ATOM      9  N   UNL     1      -0.724  11.092  22.331  0.00  0.00    +0.000 N 
ENDROOT
BRANCH   9  10
ATOM     10  C   UNL     1      -1.617  12.226  22.418  0.00  0.00    +0.000 C 
ATOM     11  C   UNL     1      -2.778  12.019  23.389  0.00  0.00    +0.000 C 
ATOM     12  C   UNL     1      -3.264  13.426  23.703  0.00  0.00    +0.000 C 
ATOM     13  C   UNL     1      -2.064  14.350  23.515  0.00  0.00    +0.000 C 
ATOM     14  C   UNL     1      -0.945  13.508  22.911  0.00  0.00    +0.000 C 
ENDBRANCH   9  10
BRANCH   1  16
ATOM     15  O   UNL     1       2.425   8.781  17.444  0.00  0.00    +0.000 OA
ATOM     16  C   UNL     1       2.071   8.212  18.470  0.00  0.00    +0.000 C 
ATOM     17  N   UNL     1       2.336   6.888  18.734  0.00  0.00    +0.000 N 
ATOM     18  H   UNL     1       1.918   6.430  19.529  0.00  0.00    +0.000 HD
BRANCH  17  19
ATOM     19  C   UNL     1       3.048   6.078  17.771  0.00  0.00    +0.000 C 
BRANCH  19  20
ATOM     20  C   UNL     1       4.531   6.084  18.037  0.00  0.00    +0.000 A 
ATOM     21  C   UNL     1       5.404   6.808  17.212  0.00  0.00    +0.000 A 
ATOM     22  C   UNL     1       6.775   6.814  17.473  0.00  0.00    +0.000 A 
ATOM     23  C   UNL     1       7.274   6.094  18.552  0.00  0.00    +0.000 A 
ATOM     24  F   UNL     1       8.591   6.103  18.798  0.00  0.00    +0.000 F 
ATOM     25  C   UNL     1       6.427   5.362  19.375  0.00  0.00    +0.000 A 
ATOM     26  C   UNL     1       5.056   5.352  19.116  0.00  0.00    +0.000 A 
ENDBRANCH  19  20
ENDBRANCH  17  19
ENDBRANCH   1  16
TORSDOF 4
ENDMDL
MODEL 5
REMARK VINA RESULT:      -8.1      3.945      9.056
REMARK  Name = 
REMARK  4 active torsions:
REMARK  status: ('A' for Active; 'I' for Inactive)
REMARK    1  A    between atoms: C_2  and  C_12
REMARK    2  A    between atoms: N_3  and  C_4
REMARK    3  A    between atoms: C_4  and  C_5
REMARK    4  A    between atoms: N_20  and  C_21
REMARK                            x       y       z     vdW  Elec       q    Type
REMARK                         _______ _______ _______ _____ _____    ______ ____
ROOT
ATOM      1  C   UNL     1       2.204   8.335  18.717  0.00  0.00    +0.000 A 
ATOM      2  C   UNL     1       3.072   8.197  17.624  0.00  0.00    +0.000 A 
ATOM      3  C   UNL     1       3.855   7.054  17.448  0.00  0.00    +0.000 A 
ATOM      4  C   UNL     1       3.707   6.050  18.408  0.00  0.00    +0.000 A 
ATOM      5  C   UNL     1       2.852   6.158  19.498  0.00  0.00    +0.000 A 
ATOM      6  C   UNL     1       2.083   7.320  19.675  0.00  0.00    +0.000 A 
ATOM      7  N   UNL     1       2.917   5.016  20.248  0.00  0.00    +0.000 NA
ATOM      8  N   UNL     1       3.784   4.194  19.672  0.00  0.00    +0.000 NA
ATOM      9  N   UNL     1       4.259   4.804  18.567  0.00  0.00    +0.000 N 
ENDROOT
BRANCH   9  10
ATOM     10  C   UNL     1       5.223   4.142  17.716  0.00  0.00    +0.000 C 
ATOM     11  C   UNL     1       4.793   4.057  16.253  0.00  0.00    +0.000 C 
ATOM     12  C   UNL     1       6.088   3.813  15.491  0.00  0.00    +0.000 C 
ATOM     13  C   UNL     1       7.206   4.419  16.335  0.00  0.00    +0.000 C 
ATOM     14  C   UNL     1       6.584   4.837  17.664  0.00  0.00    +0.000 C 
ENDBRANCH   9  10
BRANCH   1  16
ATOM     15  O   UNL     1       1.810  10.589  18.243  0.00  0.00    +0.000 OA
ATOM     16  C   UNL     1       1.382   9.567  18.768  0.00  0.00    +0.000 C 
ATOM     17  N   UNL     1       0.189   9.507  19.451  0.00  0.00    +0.000 N 
ATOM     18  H   UNL     1      -0.061   8.682  19.973  0.00  0.00    +0.000 HD
BRANCH  17  19
ATOM     19  C   UNL     1      -0.628  10.690  19.603  0.00  0.00    +0.000 C 
BRANCH  19  20
ATOM     20  C   UNL     1      -1.718  10.742  18.565  0.00  0.00    +0.000 A 
ATOM     21  C   UNL     1      -1.623   9.986  17.388  0.00  0.00    +0.000 A 
ATOM     22  C   UNL     1      -2.643  10.034  16.437  0.00  0.00    +0.000 A 
ATOM     23  C   UNL     1      -3.754  10.840  16.658  0.00  0.00    +0.000 A 
ATOM     24  F   UNL     1      -4.731  10.882  15.742  0.00  0.00    +0.000 F 
ATOM     25  C   UNL     1      -3.863  11.604  17.813  0.00  0.00    +0.000 A 
ATOM     26  C   UNL     1      -2.844  11.560  18.765  0.00  0.00    +0.000 A 
ENDBRANCH  19  20
ENDBRANCH  17  19
ENDBRANCH   1  16
TORSDOF 4
ENDMDL
MODEL 6
REMARK VINA RESULT:      -8.0      3.909      8.962
REMARK  Name = 
REMARK  4 active torsions:
REMARK  status: ('A' for Active; 'I' for Inactive)
REMARK    1  A    between atoms: C_2  and  C_12
REMARK    2  A    between atoms: N_3  and  C_4
REMARK    3  A    between atoms: C_4  and  C_5
REMARK    4  A    between atoms: N_20  and  C_21
REMARK                            x       y       z     vdW  Elec       q    Type
REMARK                         _______ _______ _______ _____ _____    ______ ____
ROOT
ATOM      1  C   UNL     1       1.785   7.550  19.919  0.00  0.00    +0.000 A 
ATOM      2  C   UNL     1       2.591   7.699  18.779  0.00  0.00    +0.000 A 
ATOM      3  C   UNL     1       3.413   6.667  18.322  0.00  0.00    +0.000 A 
ATOM      4  C   UNL     1       3.371   5.474  19.048  0.00  0.00    +0.000 A 
ATOM      5  C   UNL     1       2.580   5.298  20.177  0.00  0.00    +0.000 A 
ATOM      6  C   UNL     1       1.771   6.348  20.640  0.00  0.00    +0.000 A 
ATOM      7  N   UNL     1       2.744   4.028  20.658  0.00  0.00    +0.000 NA
ATOM      8  N   UNL     1       3.612   3.400  19.876  0.00  0.00    +0.000 NA
ATOM      9  N   UNL     1       3.989   4.258  18.906  0.00  0.00    +0.000 N 
ENDROOT
BRANCH   9  10
ATOM     10  C   UNL     1       4.929   3.850  17.885  0.00  0.00    +0.000 C 
ATOM     11  C   UNL     1       4.407   4.038  16.462  0.00  0.00    +0.000 C 
ATOM     12  C   UNL     1       5.659   4.042  15.597  0.00  0.00    +0.000 C 
ATOM     13  C   UNL     1       6.797   4.535  16.487  0.00  0.00    +0.000 C 
ATOM     14  C   UNL     1       6.243   4.630  17.905  0.00  0.00    +0.000 C 
ENDBRANCH   9  10
BRANCH   1  16
ATOM     15  O   UNL     1       0.272   8.648  21.320  0.00  0.00    +0.000 OA
ATOM     16  C   UNL     1       0.912   8.693  20.275  0.00  0.00    +0.000 C 
ATOM     17  N   UNL     1       0.832   9.734  19.380  0.00  0.00    +0.000 N 
ATOM     18  H   UNL     1       1.277   9.669  18.478  0.00  0.00    +0.000 HD
BRANCH  17  19
ATOM     19  C   UNL     1      -0.057  10.847  19.629  0.00  0.00    +0.000 C 
BRANCH  19  20
ATOM     20  C   UNL     1      -1.238  10.826  18.695  0.00  0.00    +0.000 A 
ATOM     21  C   UNL     1      -1.247   9.988  17.570  0.00  0.00    +0.000 A 
ATOM     22  C   UNL     1      -2.351   9.969  16.716  0.00  0.00    +0.000 A 
ATOM     23  C   UNL     1      -3.441  10.790  16.981  0.00  0.00    +0.000 A 
ATOM     24  F   UNL     1      -4.498  10.768  16.159  0.00  0.00    +0.000 F 
ATOM     25  C   UNL     1      -3.448  11.634  18.084  0.00  0.00    +0.000 A 
ATOM     26  C   UNL     1      -2.346  11.657  18.940  0.00  0.00    +0.000 A 
ENDBRANCH  19  20
ENDBRANCH  17  19
ENDBRANCH   1  16
TORSDOF 4
ENDMDL
MODEL 7
REMARK VINA RESULT:      -7.9      3.901      9.219
REMARK  Name = 
REMARK  4 active torsions:
REMARK  status: ('A' for Active; 'I' for Inactive)
REMARK    1  A    between atoms: C_2  and  C_12
REMARK    2  A    between atoms: N_3  and  C_4
REMARK    3  A    between atoms: C_4  and  C_5
REMARK    4  A    between atoms: N_20  and  C_21
REMARK                            x       y       z     vdW  Elec       q    Type
REMARK                         _______ _______ _______ _____ _____    ______ ____
ROOT
ATOM      1  C   UNL     1       1.728   8.408  19.499  0.00  0.00    +0.000 A 
ATOM      2  C   UNL     1       2.196   8.718  18.213  0.00  0.00    +0.000 A 
ATOM      3  C   UNL     1       3.059   7.866  17.520  0.00  0.00    +0.000 A 
ATOM      4  C   UNL     1       3.408   6.679  18.170  0.00  0.00    +0.000 A 
ATOM      5  C   UNL     1       2.957   6.345  19.441  0.00  0.00    +0.000 A 
ATOM      6  C   UNL     1       2.104   7.218  20.136  0.00  0.00    +0.000 A 
ATOM      7  N   UNL     1       3.459   5.124  19.799  0.00  0.00    +0.000 NA
ATOM      8  N   UNL     1       4.213   4.679  18.803  0.00  0.00    +0.000 NA
ATOM      9  N   UNL     1       4.185   5.603  17.821  0.00  0.00    +0.000 N 
ENDROOT
BRANCH   9  10
ATOM     10  C   UNL     1       4.911   5.391  16.588  0.00  0.00    +0.000 C 
ATOM     11  C   UNL     1       6.405   5.686  16.698  0.00  0.00    +0.000 C 
ATOM     12  C   UNL     1       7.025   4.947  15.521  0.00  0.00    +0.000 C 
ATOM     13  C   UNL     1       6.096   3.776  15.209  0.00  0.00    +0.000 C 
ATOM     14  C   UNL     1       4.852   3.952  16.074  0.00  0.00    +0.000 C 
ENDBRANCH   9  10
BRANCH   1  16
ATOM     15  O   UNL     1       0.265   9.082  21.191  0.00  0.00    +0.000 OA
ATOM     16  C   UNL     1       0.773   9.361  20.112  0.00  0.00    +0.000 C 
ATOM     17  N   UNL     1       0.471  10.500  19.402  0.00  0.00    +0.000 N 
ATOM     18  H   UNL     1       0.815  10.627  18.463  0.00  0.00    +0.000 HD
BRANCH  17  19
ATOM     19  C   UNL     1      -0.509  11.438  19.906  0.00  0.00    +0.000 C 
BRANCH  19  20
ATOM     20  C   UNL     1      -1.821  11.305  19.179  0.00  0.00    +0.000 A 
ATOM     21  C   UNL     1      -2.908  12.128  19.508  0.00  0.00    +0.000 A 
ATOM     22  C   UNL     1      -4.117  12.004  18.822  0.00  0.00    +0.000 A 
ATOM     23  C   UNL     1      -4.243  11.055  17.814  0.00  0.00    +0.000 A 
ATOM     24  F   UNL     1      -5.405  10.940  17.158  0.00  0.00    +0.000 F 
ATOM     25  C   UNL     1      -3.181  10.224  17.480  0.00  0.00    +0.000 A 
ATOM     26  C   UNL     1      -1.971  10.344  18.165  0.00  0.00    +0.000 A 
ENDBRANCH  19  20
ENDBRANCH  17  19
ENDBRANCH   1  16
TORSDOF 4
ENDMDL
MODEL 8
REMARK VINA RESULT:      -7.9      1.268      1.490
REMARK  Name = 
REMARK  4 active torsions:
REMARK  status: ('A' for Active; 'I' for Inactive)
REMARK    1  A    between atoms: C_2  and  C_12
REMARK    2  A    between atoms: N_3  and  C_4
REMARK    3  A    between atoms: C_4  and  C_5
REMARK    4  A    between atoms: N_20  and  C_21
REMARK                            x       y       z     vdW  Elec       q    Type
REMARK                         _______ _______ _______ _____ _____    ______ ____
ROOT
ATOM      1  C   UNL     1       1.332   8.737  20.072  0.00  0.00    +0.000 A 
ATOM      2  C   UNL     1       0.859   9.827  19.325  0.00  0.00    +0.000 A 
ATOM      3  C   UNL     1       0.128  10.860  19.916  0.00  0.00    +0.000 A 
ATOM      4  C   UNL     1      -0.084  10.758  21.293  0.00  0.00    +0.000 A 
ATOM      5  C   UNL     1       0.376   9.692  22.057  0.00  0.00    +0.000 A 
ATOM      6  C   UNL     1       1.093   8.649  21.450  0.00  0.00    +0.000 A 
ATOM      7  N   UNL     1       0.024   9.881  23.366  0.00  0.00    +0.000 NA
ATOM      8  N   UNL     1      -0.644  11.024  23.452  0.00  0.00    +0.000 NA
ATOM      9  N   UNL     1      -0.709  11.558  22.215  0.00  0.00    +0.000 N 
ENDROOT
BRANCH   9  10
ATOM     10  C   UNL     1      -1.373  12.824  21.993  0.00  0.00    +0.000 C 
ATOM     11  C   UNL     1      -2.893  12.748  22.114  0.00  0.00    +0.000 C 
ATOM     12  C   UNL     1      -3.326  14.188  22.348  0.00  0.00    +0.000 C 
ATOM     13  C   UNL     1      -2.146  14.892  23.013  0.00  0.00    +0.000 C 
ATOM     14  C   UNL     1      -0.974  13.916  22.986  0.00  0.00    +0.000 C 
ENDBRANCH   9  10
BRANCH   1  16
ATOM     15  O   UNL     1       2.145   7.739  18.122  0.00  0.00    +0.000 OA
ATOM     16  C   UNL     1       2.143   7.731  19.347  0.00  0.00    +0.000 C 
ATOM     17  N   UNL     1       2.822   6.802  20.101  0.00  0.00    +0.000 N 
ATOM     18  H   UNL     1       2.691   6.756  21.100  0.00  0.00    +0.000 HD
BRANCH  17  19
ATOM     19  C   UNL     1       3.574   5.746  19.459  0.00  0.00    +0.000 C 
BRANCH  19  20
ATOM     20  C   UNL     1       2.713   4.538  19.200  0.00  0.00    +0.000 A 
ATOM     21  C   UNL     1       1.660   4.211  20.066  0.00  0.00    +0.000 A 
ATOM     22  C   UNL     1       0.862   3.094  19.812  0.00  0.00    +0.000 A 
ATOM     23  C   UNL     1       1.119   2.302  18.698  0.00  0.00    +0.000 A 
ATOM     24  F   UNL     1       0.351   1.232  18.459  0.00  0.00    +0.000 F 
ATOM     25  C   UNL     1       2.165   2.604  17.835  0.00  0.00    +0.000 A 
ATOM     26  C   UNL     1       2.966   3.718  18.086  0.00  0.00    +0.000 A 
ENDBRANCH  19  20
ENDBRANCH  17  19
ENDBRANCH   1  16
TORSDOF 4
ENDMDL
MODEL 9
REMARK VINA RESULT:      -7.9      3.899      9.156
REMARK  Name = 
REMARK  4 active torsions:
REMARK  status: ('A' for Active; 'I' for Inactive)
REMARK    1  A    between atoms: C_2  and  C_12
REMARK    2  A    between atoms: N_3  and  C_4
REMARK    3  A    between atoms: C_4  and  C_5
REMARK    4  A    between atoms: N_20  and  C_21
REMARK                            x       y       z     vdW  Elec       q    Type
REMARK                         _______ _______ _______ _____ _____    ______ ____
ROOT
ATOM      1  C   UNL     1       1.535   8.662  19.498  0.00  0.00    +0.000 A 
ATOM      2  C   UNL     1       2.005   8.889  18.196  0.00  0.00    +0.000 A 
ATOM      3  C   UNL     1       2.827   7.968  17.542  0.00  0.00    +0.000 A 
ATOM      4  C   UNL     1       3.134   6.803  18.248  0.00  0.00    +0.000 A 
ATOM      5  C   UNL     1       2.679   6.551  19.537  0.00  0.00    +0.000 A 
ATOM      6  C   UNL     1       1.868   7.491  20.192  0.00  0.00    +0.000 A 
ATOM      7  N   UNL     1       3.135   5.330  19.953  0.00  0.00    +0.000 NA
ATOM      8  N   UNL     1       3.863   4.806  18.976  0.00  0.00    +0.000 NA
ATOM      9  N   UNL     1       3.864   5.680  17.949  0.00  0.00    +0.000 N 
ENDROOT
BRANCH   9  10
ATOM     10  C   UNL     1       4.571   5.378  16.724  0.00  0.00    +0.000 C 
ATOM     11  C   UNL     1       5.959   6.009  16.646  0.00  0.00    +0.000 C 
ATOM     12  C   UNL     1       6.688   5.194  15.588  0.00  0.00    +0.000 C 
ATOM     13  C   UNL     1       6.046   3.809  15.592  0.00  0.00    +0.000 C 
ATOM     14  C   UNL     1       4.829   3.886  16.509  0.00  0.00    +0.000 C 
ENDBRANCH   9  10
BRANCH   1  16
ATOM     15  O   UNL     1       0.216   9.540  21.215  0.00  0.00    +0.000 OA
ATOM     16  C   UNL     1       0.623   9.682  20.068  0.00  0.00    +0.000 C 
ATOM     17  N   UNL     1       0.244  10.721  19.250  0.00  0.00    +0.000 N 
ATOM     18  H   UNL     1       0.503  10.728  18.276  0.00  0.00    +0.000 HD
BRANCH  17  19
ATOM     19  C   UNL     1      -0.701  11.712  19.717  0.00  0.00    +0.000 C 
BRANCH  19  20
ATOM     20  C   UNL     1      -2.064  11.499  19.112  0.00  0.00    +0.000 A 
ATOM     21  C   UNL     1      -2.259  10.540  18.108  0.00  0.00    +0.000 A 
ATOM     22  C   UNL     1      -3.528  10.343  17.561  0.00  0.00    +0.000 A 
ATOM     23  C   UNL     1      -4.599  11.107  18.012  0.00  0.00    +0.000 A 
ATOM     24  F   UNL     1      -5.815  10.913  17.484  0.00  0.00    +0.000 F 
ATOM     25  C   UNL     1      -4.424  12.068  18.999  0.00  0.00    +0.000 A 
ATOM     26  C   UNL     1      -3.157  12.269  19.547  0.00  0.00    +0.000 A 
ENDBRANCH  19  20
ENDBRANCH  17  19
ENDBRANCH   1  16
TORSDOF 4
ENDMDL
