MODEL 1
REMARK VINA RESULT:      -8.4      0.000      0.000
REMARK  Name = 
REMARK  5 active torsions:
REMARK  status: ('A' for Active; 'I' for Inactive)
REMARK    1  A    between atoms: C_1  and  N_2
REMARK    2  A    between atoms: N_2  and  C_17
REMARK    3  A    between atoms: C_6  and  S_7
REMARK    4  A    between atoms: S_7  and  N_10
REMARK    5  A    between atoms: N_20  and  C_21
REMARK                            x       y       z     vdW  Elec       q    Type
REMARK                         _______ _______ _______ _____ _____    ______ ____
ROOT
ATOM      1  C   UNL     1      -0.376  10.532  19.167  0.00  0.00    +0.000 C 
ATOM      2  N   UNL     1       0.473   9.835  20.122  0.00  0.00    +0.000 N 
ATOM      3  C   UNL     1       1.296   8.792  19.719  0.00  0.00    +0.000 A 
ATOM      4  C   UNL     1       1.691   8.633  18.390  0.00  0.00    +0.000 A 
ATOM      5  C   UNL     1       2.469   7.541  18.005  0.00  0.00    +0.000 A 
ATOM      6  C   UNL     1       2.802   6.582  18.950  0.00  0.00    +0.000 A 
ATOM      7  C   UNL     1       2.428   6.807  20.256  0.00  0.00    +0.000 A 
ATOM      8  N   UNL     1       1.696   7.889  20.646  0.00  0.00    +0.000 NA
ENDROOT
BRANCH   2   9
ATOM      9  C   UNL     1       0.824  10.486  21.406  0.00  0.00    +0.000 C 
ATOM     10  C   UNL     1       0.206   9.782  22.613  0.00  0.00    +0.000 C 
ATOM     11  C   UNL     1      -1.083  10.539  22.928  0.00  0.00    +0.000 C 
ATOM     12  N   UNL     1      -0.896  11.862  22.352  0.00  0.00    +0.000 N 
ATOM     13  C   UNL     1       0.301  11.937  21.522  0.00  0.00    +0.000 C 
BRANCH  12  14
ATOM     14  C   UNL     1      -1.551  12.959  22.864  0.00  0.00    +0.000 A 
ATOM     15  N   UNL     1      -0.863  13.799  23.693  0.00  0.00    +0.000 NA
ATOM     16  C   UNL     1      -1.476  14.880  24.214  0.00  0.00    +0.000 A 
ATOM     17  N   UNL     1      -2.746  15.271  24.046  0.00  0.00    +0.000 NA
ATOM     18  C   UNL     1      -3.406  14.426  23.244  0.00  0.00    +0.000 A 
ATOM     19  N   UNL     1      -4.727  14.565  22.913  0.00  0.00    +0.000 N 
ATOM     20  C   UNL     1      -5.105  13.544  22.085  0.00  0.00    +0.000 A 
ATOM     21  C   UNL     1      -4.004  12.745  21.881  0.00  0.00    +0.000 A 
ATOM     22  C   UNL     1      -2.906  13.287  22.622  0.00  0.00    +0.000 A 
ATOM     23  H   UNL     1      -5.311  15.314  23.251  0.00  0.00    +0.000 HD
ENDBRANCH  12  14
ENDBRANCH   2   9
BRANCH   6  24
ATOM     24  S   UNL     1       3.782   5.180  18.519  0.00  0.00    +0.000 S 
ATOM     25  O   UNL     1       3.893   5.187  17.073  0.00  0.00    +0.000 OA
ATOM     26  O   UNL     1       4.959   5.195  19.356  0.00  0.00    +0.000 OA
BRANCH  24  27
ATOM     27  N   UNL     1       2.865   3.839  18.962  0.00  0.00    +0.000 NA
ATOM     28  C   UNL     1       1.418   3.781  18.727  0.00  0.00    +0.000 C 
ATOM     29  C   UNL     1       0.813   3.723  20.118  0.00  0.00    +0.000 C 
ATOM     30  C   UNL     1       1.862   3.037  20.978  0.00  0.00    +0.000 C 
ATOM     31  C   UNL     1       3.175   3.117  20.206  0.00  0.00    +0.000 C 
ENDBRANCH  24  27
ENDBRANCH   6  24
TORSDOF 4
ENDMDL
MODEL 2
REMARK VINA RESULT:      -8.3      0.846      1.070
REMARK  Name = 
REMARK  5 active torsions:
REMARK  status: ('A' for Active; 'I' for Inactive)
REMARK    1  A    between atoms: C_1  and  N_2
REMARK    2  A    between atoms: N_2  and  C_17
REMARK    3  A    between atoms: C_6  and  S_7
REMARK    4  A    between atoms: S_7  and  N_10
REMARK    5  A    between atoms: N_20  and  C_21
REMARK                            x       y       z     vdW  Elec       q    Type
REMARK                         _______ _______ _______ _____ _____    ______ ____
ROOT
ATOM      1  C   UNL     1      -0.664  11.019  19.277  0.00  0.00    +0.000 C 
ATOM      2  N   UNL     1       0.202  10.283  20.187  0.00  0.00    +0.000 N 
ATOM      3  C   UNL     1       1.029   9.268  19.723  0.00  0.00    +0.000 A 
ATOM      4  C   UNL     1       1.408   9.178  18.384  0.00  0.00    +0.000 A 
ATOM      5  C   UNL     1       2.191   8.113  17.936  0.00  0.00    +0.000 A 
ATOM      6  C   UNL     1       2.543   7.112  18.829  0.00  0.00    +0.000 A 
ATOM      7  C   UNL     1       2.184   7.269  20.148  0.00  0.00    +0.000 A 
ATOM      8  N   UNL     1       1.448   8.325  20.601  0.00  0.00    +0.000 NA
ENDROOT
BRANCH   2   9
ATOM      9  C   UNL     1       0.564  10.874  21.498  0.00  0.00    +0.000 C 
ATOM     10  C   UNL     1      -0.015  10.093  22.676  0.00  0.00    +0.000 C 
ATOM     11  C   UNL     1      -1.314  10.803  23.054  0.00  0.00    +0.000 C 
ATOM     12  N   UNL     1      -1.166  12.159  22.546  0.00  0.00    +0.000 N 
ATOM     13  C   UNL     1       0.013  12.304  21.699  0.00  0.00    +0.000 C 
BRANCH  12  14
ATOM     14  C   UNL     1      -1.834  13.213  23.127  0.00  0.00    +0.000 A 
ATOM     15  N   UNL     1      -1.122  14.091  23.893  0.00  0.00    +0.000 NA
ATOM     16  C   UNL     1      -1.747  15.132  24.479  0.00  0.00    +0.000 A 
ATOM     17  N   UNL     1      -3.049  15.444  24.437  0.00  0.00    +0.000 NA
ATOM     18  C   UNL     1      -3.730  14.562  23.695  0.00  0.00    +0.000 A 
ATOM     19  N   UNL     1      -5.083  14.620  23.493  0.00  0.00    +0.000 N 
ATOM     20  C   UNL     1      -5.476  13.579  22.697  0.00  0.00    +0.000 A 
ATOM     21  C   UNL     1      -4.353  12.850  22.382  0.00  0.00    +0.000 A 
ATOM     22  C   UNL     1      -3.224  13.457  23.019  0.00  0.00    +0.000 A 
ATOM     23  H   UNL     1      -5.676  15.331  23.892  0.00  0.00    +0.000 HD
ENDBRANCH  12  14
ENDBRANCH   2   9
BRANCH   6  24
ATOM     24  S   UNL     1       3.529   5.741  18.317  0.00  0.00    +0.000 S 
ATOM     25  O   UNL     1       4.191   6.147  17.093  0.00  0.00    +0.000 OA
ATOM     26  O   UNL     1       4.289   5.298  19.463  0.00  0.00    +0.000 OA
BRANCH  24  27
ATOM     27  N   UNL     1       2.434   4.520  17.935  0.00  0.00    +0.000 NA
ATOM     28  C   UNL     1       1.448   4.035  18.906  0.00  0.00    +0.000 C 
ATOM     29  C   UNL     1       1.838   2.587  19.147  0.00  0.00    +0.000 C 
ATOM     30  C   UNL     1       2.489   2.132  17.851  0.00  0.00    +0.000 C 
ATOM     31  C   UNL     1       2.856   3.397  17.083  0.00  0.00    +0.000 C 
ENDBRANCH  24  27
ENDBRANCH   6  24
TORSDOF 4
ENDMDL
MODEL 3
REMARK VINA RESULT:      -8.2      2.258      3.205
REMARK  Name = 
REMARK  5 active torsions:
REMARK  status: ('A' for Active; 'I' for Inactive)
REMARK    1  A    between atoms: C_1  and  N_2
REMARK    2  A    between atoms: N_2  and  C_17
REMARK    3  A    between atoms: C_6  and  S_7
REMARK    4  A    between atoms: S_7  and  N_10
REMARK    5  A    between atoms: N_20  and  C_21
REMARK                            x       y       z     vdW  Elec       q    Type
REMARK                         _______ _______ _______ _____ _____    ______ ____
ROOT
ATOM      1  C   UNL     1       0.958   9.376  21.163  0.00  0.00    +0.000 C 
ATOM      2  N   UNL     1       1.295   9.115  19.771  0.00  0.00    +0.000 N 
ATOM      3  C   UNL     1       2.016   7.985  19.410  0.00  0.00    +0.000 A 
ATOM      4  C   UNL     1       2.083   6.857  20.229  0.00  0.00    +0.000 A 
ATOM      5  C   UNL     1       2.865   5.760  19.866  0.00  0.00    +0.000 A 
ATOM      6  C   UNL     1       3.621   5.824  18.705  0.00  0.00    +0.000 A 
ATOM      7  C   UNL     1       3.486   6.938  17.908  0.00  0.00    +0.000 A 
ATOM      8  N   UNL     1       2.698   8.001  18.239  0.00  0.00    +0.000 NA
ENDROOT
BRANCH   2   9
ATOM      9  C   UNL     1       0.516   9.767  18.691  0.00  0.00    +0.000 C 
ATOM     10  C   UNL     1       0.983  11.194  18.407  0.00  0.00    +0.000 C 
ATOM     11  C   UNL     1       0.061  12.107  19.212  0.00  0.00    +0.000 C 
ATOM     12  N   UNL     1      -1.146  11.325  19.436  0.00  0.00    +0.000 N 
ATOM     13  C   UNL     1      -0.983   9.934  19.031  0.00  0.00    +0.000 C 
BRANCH  12  14
ATOM     14  C   UNL     1      -2.365  11.937  19.626  0.00  0.00    +0.000 A 
ATOM     15  N   UNL     1      -2.600  12.561  20.818  0.00  0.00    +0.000 NA
ATOM     16  C   UNL     1      -3.784  13.167  21.036  0.00  0.00    +0.000 A 
ATOM     17  N   UNL     1      -4.841  13.236  20.216  0.00  0.00    +0.000 NA
ATOM     18  C   UNL     1      -4.594  12.605  19.061  0.00  0.00    +0.000 A 
ATOM     19  N   UNL     1      -5.503  12.497  18.043  0.00  0.00    +0.000 N 
ATOM     20  C   UNL     1      -4.953  11.793  17.007  0.00  0.00    +0.000 A 
ATOM     21  C   UNL     1      -3.671  11.452  17.369  0.00  0.00    +0.000 A 
ATOM     22  C   UNL     1      -3.423  11.956  18.687  0.00  0.00    +0.000 A 
ATOM     23  H   UNL     1      -6.434  12.883  18.083  0.00  0.00    +0.000 HD
ENDBRANCH  12  14
ENDBRANCH   2   9
BRANCH   6  24
ATOM     24  S   UNL     1       4.629   4.467  18.199  0.00  0.00    +0.000 S 
ATOM     25  O   UNL     1       5.061   4.759  16.846  0.00  0.00    +0.000 OA
ATOM     26  O   UNL     1       5.589   4.220  19.250  0.00  0.00    +0.000 OA
BRANCH  24  27
ATOM     27  N   UNL     1       3.595   3.139  18.138  0.00  0.00    +0.000 NA
ATOM     28  C   UNL     1       2.403   3.128  17.282  0.00  0.00    +0.000 C 
ATOM     29  C   UNL     1       1.241   3.047  18.255  0.00  0.00    +0.000 C 
ATOM     30  C   UNL     1       1.790   2.308  19.466  0.00  0.00    +0.000 C 
ATOM     31  C   UNL     1       3.310   2.374  19.362  0.00  0.00    +0.000 C 
ENDBRANCH  24  27
ENDBRANCH   6  24
TORSDOF 4
ENDMDL
MODEL 4
REMARK VINA RESULT:      -8.1      3.249      4.833
REMARK  Name = 
REMARK  5 active torsions:
REMARK  status: ('A' for Active; 'I' for Inactive)
REMARK    1  A    between atoms: C_1  and  N_2
REMARK    2  A    between atoms: N_2  and  C_17
REMARK    3  A    between atoms: C_6  and  S_7
REMARK    4  A    between atoms: S_7  and  N_10
REMARK    5  A    between atoms: N_20  and  C_21
REMARK                            x       y       z     vdW  Elec       q    Type
REMARK                         _______ _______ _______ _____ _____    ______ ____
ROOT
ATOM      1  C   UNL     1       1.058   9.128  20.835  0.00  0.00    +0.000 C 
ATOM      2  N   UNL     1       1.644   8.871  19.526  0.00  0.00    +0.000 N 
ATOM      3  C   UNL     1       2.275   7.665  19.250  0.00  0.00    +0.000 A 
ATOM      4  C   UNL     1       2.024   6.511  19.994  0.00  0.00    +0.000 A 
ATOM      5  C   UNL     1       2.718   5.330  19.731  0.00  0.00    +0.000 A 
ATOM      6  C   UNL     1       3.703   5.329  18.755  0.00  0.00    +0.000 A 
ATOM      7  C   UNL     1       3.882   6.478  18.018  0.00  0.00    +0.000 A 
ATOM      8  N   UNL     1       3.184   7.627  18.246  0.00  0.00    +0.000 NA
ENDROOT
BRANCH   2   9
ATOM      9  C   UNL     1       1.199   9.661  18.354  0.00  0.00    +0.000 C 
ATOM     10  C   UNL     1       1.452  11.158  18.521  0.00  0.00    +0.000 C 
ATOM     11  C   UNL     1       0.142  11.750  19.037  0.00  0.00    +0.000 C 
ATOM     12  N   UNL     1      -0.888  10.806  18.631  0.00  0.00    +0.000 N 
ATOM     13  C   UNL     1      -0.322   9.572  18.095  0.00  0.00    +0.000 C 
BRANCH  12  14
ATOM     14  C   UNL     1      -2.186  11.214  18.423  0.00  0.00    +0.000 A 
ATOM     15  N   UNL     1      -2.844  11.832  19.448  0.00  0.00    +0.000 NA
ATOM     16  C   UNL     1      -4.117  12.241  19.278  0.00  0.00    +0.000 A 
ATOM     17  N   UNL     1      -4.891  12.107  18.194  0.00  0.00    +0.000 NA
ATOM     18  C   UNL     1      -4.231  11.485  17.208  0.00  0.00    +0.000 A 
ATOM     19  N   UNL     1      -4.782  11.194  15.988  0.00  0.00    +0.000 N 
ATOM     20  C   UNL     1      -3.859  10.555  15.206  0.00  0.00    +0.000 A 
ATOM     21  C   UNL     1      -2.700  10.443  15.939  0.00  0.00    +0.000 A 
ATOM     22  C   UNL     1      -2.919  11.026  17.228  0.00  0.00    +0.000 A 
ATOM     23  H   UNL     1      -5.731  11.422  15.736  0.00  0.00    +0.000 HD
ENDBRANCH  12  14
ENDBRANCH   2   9
BRANCH   6  24
ATOM     24  S   UNL     1       4.614   3.865  18.382  0.00  0.00    +0.000 S 
ATOM     25  O   UNL     1       4.494   3.001  19.541  0.00  0.00    +0.000 OA
ATOM     26  O   UNL     1       4.201   3.415  17.073  0.00  0.00    +0.000 OA
BRANCH  24  27
ATOM     27  N   UNL     1       6.221   4.354  18.263  0.00  0.00    +0.000 NA
ATOM     28  C   UNL     1       6.804   5.321  19.200  0.00  0.00    +0.000 C 
ATOM     29  C   UNL     1       7.153   6.519  18.335  0.00  0.00    +0.000 C 
ATOM     30  C   UNL     1       7.438   5.943  16.957  0.00  0.00    +0.000 C 
ATOM     31  C   UNL     1       6.835   4.543  16.940  0.00  0.00    +0.000 C 
ENDBRANCH  24  27
ENDBRANCH   6  24
TORSDOF 4
ENDMDL
MODEL 5
REMARK VINA RESULT:      -8.1      1.419      1.588
REMARK  Name = 
REMARK  5 active torsions:
REMARK  status: ('A' for Active; 'I' for Inactive)
REMARK    1  A    between atoms: C_1  and  N_2
REMARK    2  A    between atoms: N_2  and  C_17
REMARK    3  A    between atoms: C_6  and  S_7
REMARK    4  A    between atoms: S_7  and  N_10
REMARK    5  A    between atoms: N_20  and  C_21
REMARK                            x       y       z     vdW  Elec       q    Type
REMARK                         _______ _______ _______ _____ _____    ______ ____
ROOT
ATOM      1  C   UNL     1       0.817   9.781  18.306  0.00  0.00    +0.000 C 
ATOM      2  N   UNL     1       1.389   8.957  19.362  0.00  0.00    +0.000 N 
ATOM      3  C   UNL     1       2.234   7.896  19.062  0.00  0.00    +0.000 A 
ATOM      4  C   UNL     1       2.917   7.815  17.848  0.00  0.00    +0.000 A 
ATOM      5  C   UNL     1       3.713   6.708  17.551  0.00  0.00    +0.000 A 
ATOM      6  C   UNL     1       3.773   5.659  18.457  0.00  0.00    +0.000 A 
ATOM      7  C   UNL     1       3.118   5.805  19.658  0.00  0.00    +0.000 A 
ATOM      8  N   UNL     1       2.366   6.900  19.970  0.00  0.00    +0.000 NA
ENDROOT
BRANCH   2   9
ATOM      9  C   UNL     1       1.464   9.482  20.746  0.00  0.00    +0.000 C 
ATOM     10  C   UNL     1       0.526   8.750  21.705  0.00  0.00    +0.000 C 
ATOM     11  C   UNL     1      -0.746   9.595  21.775  0.00  0.00    +0.000 C 
ATOM     12  N   UNL     1      -0.335  10.934  21.381  0.00  0.00    +0.000 N 
ATOM     13  C   UNL     1       1.030  10.961  20.866  0.00  0.00    +0.000 C 
BRANCH  12  14
ATOM     14  C   UNL     1      -1.016  12.046  21.821  0.00  0.00    +0.000 A 
ATOM     15  N   UNL     1      -0.553  12.695  22.930  0.00  0.00    +0.000 NA
ATOM     16  C   UNL     1      -1.200  13.785  23.389  0.00  0.00    +0.000 A 
ATOM     17  N   UNL     1      -2.311  14.352  22.903  0.00  0.00    +0.000 NA
ATOM     18  C   UNL     1      -2.756  13.691  21.826  0.00  0.00    +0.000 A 
ATOM     19  N   UNL     1      -3.886  14.035  21.135  0.00  0.00    +0.000 N 
ATOM     20  C   UNL     1      -4.073  13.166  20.095  0.00  0.00    +0.000 A 
ATOM     21  C   UNL     1      -3.041  12.257  20.122  0.00  0.00    +0.000 A 
ATOM     22  C   UNL     1      -2.189  12.571  21.229  0.00  0.00    +0.000 A 
ATOM     23  H   UNL     1      -4.477  14.814  21.383  0.00  0.00    +0.000 HD
ENDBRANCH  12  14
ENDBRANCH   2   9
BRANCH   6  24
ATOM     24  S   UNL     1       4.760   4.233  18.132  0.00  0.00    +0.000 S 
ATOM     25  O   UNL     1       5.235   4.364  16.768  0.00  0.00    +0.000 OA
ATOM     26  O   UNL     1       5.686   4.083  19.231  0.00  0.00    +0.000 OA
BRANCH  24  27
ATOM     27  N   UNL     1       3.696   2.929  18.188  0.00  0.00    +0.000 NA
ATOM     28  C   UNL     1       2.462   2.905  17.395  0.00  0.00    +0.000 C 
ATOM     29  C   UNL     1       1.351   2.898  18.429  0.00  0.00    +0.000 C 
ATOM     30  C   UNL     1       1.945   2.204  19.644  0.00  0.00    +0.000 C 
ATOM     31  C   UNL     1       3.458   2.229  19.460  0.00  0.00    +0.000 C 
ENDBRANCH  24  27
ENDBRANCH   6  24
TORSDOF 4
ENDMDL
MODEL 6
REMARK VINA RESULT:      -8.1      1.726      2.364
REMARK  Name = 
REMARK  5 active torsions:
REMARK  status: ('A' for Active; 'I' for Inactive)
REMARK    1  A    between atoms: C_1  and  N_2
REMARK    2  A    between atoms: N_2  and  C_17
REMARK    3  A    between atoms: C_6  and  S_7
REMARK    4  A    between atoms: S_7  and  N_10
REMARK    5  A    between atoms: N_20  and  C_21
REMARK                            x       y       z     vdW  Elec       q    Type
REMARK                         _______ _______ _______ _____ _____    ______ ____
ROOT
ATOM      1  C   UNL     1      -0.415  10.746  19.225  0.00  0.00    +0.000 C 
ATOM      2  N   UNL     1       0.413  10.002  20.164  0.00  0.00    +0.000 N 
ATOM      3  C   UNL     1       1.216   8.954  19.735  0.00  0.00    +0.000 A 
ATOM      4  C   UNL     1       1.615   8.824  18.404  0.00  0.00    +0.000 A 
ATOM      5  C   UNL     1       2.372   7.727  17.992  0.00  0.00    +0.000 A 
ATOM      6  C   UNL     1       2.678   6.734  18.911  0.00  0.00    +0.000 A 
ATOM      7  C   UNL     1       2.301   6.929  20.220  0.00  0.00    +0.000 A 
ATOM      8  N   UNL     1       1.590   8.016  20.638  0.00  0.00    +0.000 NA
ENDROOT
BRANCH   2   9
ATOM      9  C   UNL     1       0.770  10.608  21.469  0.00  0.00    +0.000 C 
ATOM     10  C   UNL     1       0.154   9.865  22.652  0.00  0.00    +0.000 C 
ATOM     11  C   UNL     1      -1.132  10.616  22.997  0.00  0.00    +0.000 C 
ATOM     12  N   UNL     1      -0.942  11.957  22.466  0.00  0.00    +0.000 N 
ATOM     13  C   UNL     1       0.253  12.056  21.635  0.00  0.00    +0.000 C 
BRANCH  12  14
ATOM     14  C   UNL     1      -1.591  13.039  23.017  0.00  0.00    +0.000 A 
ATOM     15  N   UNL     1      -0.863  13.923  23.761  0.00  0.00    +0.000 NA
ATOM     16  C   UNL     1      -1.469  14.991  24.317  0.00  0.00    +0.000 A 
ATOM     17  N   UNL     1      -2.765  15.327  24.264  0.00  0.00    +0.000 NA
ATOM     18  C   UNL     1      -3.461  14.438  23.543  0.00  0.00    +0.000 A 
ATOM     19  N   UNL     1      -4.812  14.517  23.336  0.00  0.00    +0.000 N 
ATOM     20  C   UNL     1      -5.224  13.463  22.567  0.00  0.00    +0.000 A 
ATOM     21  C   UNL     1      -4.114  12.704  22.275  0.00  0.00    +0.000 A 
ATOM     22  C   UNL     1      -2.975  13.307  22.898  0.00  0.00    +0.000 A 
ATOM     23  H   UNL     1      -5.393  15.250  23.714  0.00  0.00    +0.000 HD
ENDBRANCH  12  14
ENDBRANCH   2   9
BRANCH   6  24
ATOM     24  S   UNL     1       3.629   5.324  18.444  0.00  0.00    +0.000 S 
ATOM     25  O   UNL     1       3.865   4.568  19.659  0.00  0.00    +0.000 OA
ATOM     26  O   UNL     1       2.982   4.717  17.304  0.00  0.00    +0.000 OA
BRANCH  24  27
ATOM     27  N   UNL     1       5.108   5.935  17.918  0.00  0.00    +0.000 NA
ATOM     28  C   UNL     1       5.411   6.104  16.493  0.00  0.00    +0.000 C 
ATOM     29  C   UNL     1       6.561   5.146  16.237  0.00  0.00    +0.000 C 
ATOM     30  C   UNL     1       7.300   5.052  17.562  0.00  0.00    +0.000 C 
ATOM     31  C   UNL     1       6.345   5.575  18.629  0.00  0.00    +0.000 C 
ENDBRANCH  24  27
ENDBRANCH   6  24
TORSDOF 4
ENDMDL
MODEL 7
REMARK VINA RESULT:      -8.0      1.978      3.005
REMARK  Name = 
REMARK  5 active torsions:
REMARK  status: ('A' for Active; 'I' for Inactive)
REMARK    1  A    between atoms: C_1  and  N_2
REMARK    2  A    between atoms: N_2  and  C_17
REMARK    3  A    between atoms: C_6  and  S_7
REMARK    4  A    between atoms: S_7  and  N_10
REMARK    5  A    between atoms: N_20  and  C_21
REMARK                            x       y       z     vdW  Elec       q    Type
REMARK                         _______ _______ _______ _____ _____    ______ ____
ROOT
ATOM      1  C   UNL     1      -0.424  10.788  18.925  0.00  0.00    +0.000 C 
ATOM      2  N   UNL     1       0.420  10.065  19.865  0.00  0.00    +0.000 N 
ATOM      3  C   UNL     1       1.248   9.035  19.436  0.00  0.00    +0.000 A 
ATOM      4  C   UNL     1       1.650   8.915  18.105  0.00  0.00    +0.000 A 
ATOM      5  C   UNL     1       2.433   7.836  17.693  0.00  0.00    +0.000 A 
ATOM      6  C   UNL     1       2.762   6.851  18.612  0.00  0.00    +0.000 A 
ATOM      7  C   UNL     1       2.380   7.037  19.921  0.00  0.00    +0.000 A 
ATOM      8  N   UNL     1       1.644   8.106  20.339  0.00  0.00    +0.000 NA
ENDROOT
BRANCH   2   9
ATOM      9  C   UNL     1       0.763  10.679  21.169  0.00  0.00    +0.000 C 
ATOM     10  C   UNL     1       0.496   9.745  22.348  0.00  0.00    +0.000 C 
ATOM     11  C   UNL     1      -0.888  10.120  22.877  0.00  0.00    +0.000 C 
ATOM     12  N   UNL     1      -1.106  11.489  22.433  0.00  0.00    +0.000 N 
ATOM     13  C   UNL     1      -0.080  11.933  21.497  0.00  0.00    +0.000 C 
BRANCH  12  14
ATOM     14  C   UNL     1      -1.938  12.337  23.128  0.00  0.00    +0.000 A 
ATOM     15  N   UNL     1      -3.132  11.851  23.579  0.00  0.00    +0.000 NA
ATOM     16  C   UNL     1      -3.971  12.657  24.260  0.00  0.00    +0.000 A 
ATOM     17  N   UNL     1      -3.809  13.951  24.563  0.00  0.00    +0.000 NA
ATOM     18  C   UNL     1      -2.640  14.411  24.098  0.00  0.00    +0.000 A 
ATOM     19  N   UNL     1      -2.219  15.705  24.244  0.00  0.00    +0.000 N 
ATOM     20  C   UNL     1      -0.992  15.859  23.658  0.00  0.00    +0.000 A 
ATOM     21  C   UNL     1      -0.624  14.640  23.137  0.00  0.00    +0.000 A 
ATOM     22  C   UNL     1      -1.671  13.700  23.400  0.00  0.00    +0.000 A 
ATOM     23  H   UNL     1      -2.757  16.418  24.710  0.00  0.00    +0.000 HD
ENDBRANCH  12  14
ENDBRANCH   2   9
BRANCH   6  24
ATOM     24  S   UNL     1       3.747   5.463  18.146  0.00  0.00    +0.000 S 
ATOM     25  O   UNL     1       4.490   5.072  19.328  0.00  0.00    +0.000 OA
ATOM     26  O   UNL     1       2.885   4.525  17.464  0.00  0.00    +0.000 OA
BRANCH  24  27
ATOM     27  N   UNL     1       4.846   6.054  17.015  0.00  0.00    +0.000 NA
ATOM     28  C   UNL     1       5.271   5.254  15.861  0.00  0.00    +0.000 C 
ATOM     29  C   UNL     1       6.755   5.032  16.083  0.00  0.00    +0.000 C 
ATOM     30  C   UNL     1       7.224   6.244  16.871  0.00  0.00    +0.000 C 
ATOM     31  C   UNL     1       5.973   6.891  17.455  0.00  0.00    +0.000 C 
ENDBRANCH  24  27
ENDBRANCH   6  24
TORSDOF 4
ENDMDL
MODEL 8
REMARK VINA RESULT:      -8.0      2.584      3.820
REMARK  Name = 
REMARK  5 active torsions:
REMARK  status: ('A' for Active; 'I' for Inactive)
REMARK    1  A    between atoms: C_1  and  N_2
REMARK    2  A    between atoms: N_2  and  C_17
REMARK    3  A    between atoms: C_6  and  S_7
REMARK    4  A    between atoms: S_7  and  N_10
REMARK    5  A    between atoms: N_20  and  C_21
REMARK                            x       y       z     vdW  Elec       q    Type
REMARK                         _______ _______ _______ _____ _____    ______ ____
ROOT
ATOM      1  C   UNL     1       0.408  11.451  21.166  0.00  0.00    +0.000 C 
ATOM      2  N   UNL     1       0.654  10.699  19.943  0.00  0.00    +0.000 N 
ATOM      3  C   UNL     1       1.093   9.383  19.990  0.00  0.00    +0.000 A 
ATOM      4  C   UNL     1       0.916   8.583  21.119  0.00  0.00    +0.000 A 
ATOM      5  C   UNL     1       1.421   7.283  21.158  0.00  0.00    +0.000 A 
ATOM      6  C   UNL     1       2.153   6.812  20.078  0.00  0.00    +0.000 A 
ATOM      7  C   UNL     1       2.262   7.621  18.970  0.00  0.00    +0.000 A 
ATOM      8  N   UNL     1       1.742   8.880  18.912  0.00  0.00    +0.000 NA
ENDROOT
BRANCH   2   9
ATOM      9  C   UNL     1       0.026  11.135  18.673  0.00  0.00    +0.000 C 
ATOM     10  C   UNL     1      -0.074  12.655  18.556  0.00  0.00    +0.000 C 
ATOM     11  C   UNL     1      -1.481  13.021  19.026  0.00  0.00    +0.000 C 
ATOM     12  N   UNL     1      -2.267  11.809  18.851  0.00  0.00    +0.000 N 
ATOM     13  C   UNL     1      -1.436  10.658  18.516  0.00  0.00    +0.000 C 
BRANCH  12  14
ATOM     14  C   UNL     1      -3.626  11.867  18.643  0.00  0.00    +0.000 A 
ATOM     15  N   UNL     1      -4.109  11.547  17.406  0.00  0.00    +0.000 NA
ATOM     16  C   UNL     1      -5.435  11.597  17.169  0.00  0.00    +0.000 A 
ATOM     17  N   UNL     1      -6.412  11.956  18.011  0.00  0.00    +0.000 NA
ATOM     18  C   UNL     1      -5.915  12.280  19.212  0.00  0.00    +0.000 A 
ATOM     19  N   UNL     1      -6.682  12.705  20.264  0.00  0.00    +0.000 N 
ATOM     20  C   UNL     1      -5.882  12.961  21.344  0.00  0.00    +0.000 A 
ATOM     21  C   UNL     1      -4.585  12.689  20.974  0.00  0.00    +0.000 A 
ATOM     22  C   UNL     1      -4.583  12.260  19.609  0.00  0.00    +0.000 A 
ATOM     23  H   UNL     1      -7.684  12.811  20.217  0.00  0.00    +0.000 HD
ENDBRANCH  12  14
ENDBRANCH   2   9
BRANCH   6  24
ATOM     24  S   UNL     1       2.818   5.177  20.074  0.00  0.00    +0.000 S 
ATOM     25  O   UNL     1       4.205   5.300  19.670  0.00  0.00    +0.000 OA
ATOM     26  O   UNL     1       2.460   4.556  21.328  0.00  0.00    +0.000 OA
BRANCH  24  27
ATOM     27  N   UNL     1       1.993   4.361  18.853  0.00  0.00    +0.000 NA
ATOM     28  C   UNL     1       0.972   3.351  19.153  0.00  0.00    +0.000 C 
ATOM     29  C   UNL     1       1.549   2.059  18.604  0.00  0.00    +0.000 C 
ATOM     30  C   UNL     1       2.436   2.482  17.443  0.00  0.00    +0.000 C 
ATOM     31  C   UNL     1       2.700   3.974  17.622  0.00  0.00    +0.000 C 
ENDBRANCH  24  27
ENDBRANCH   6  24
TORSDOF 4
ENDMDL
MODEL 9
REMARK VINA RESULT:      -8.0      2.148      3.351
REMARK  Name = 
REMARK  5 active torsions:
REMARK  status: ('A' for Active; 'I' for Inactive)
REMARK    1  A    between atoms: C_1  and  N_2
REMARK    2  A    between atoms: N_2  and  C_17
REMARK    3  A    between atoms: C_6  and  S_7
REMARK    4  A    between atoms: S_7  and  N_10
REMARK    5  A    between atoms: N_20  and  C_21
REMARK                            x       y       z     vdW  Elec       q    Type
REMARK                         _______ _______ _______ _____ _____    ______ ____
ROOT
ATOM      1  C   UNL     1       0.729  11.502  21.027  0.00  0.00    +0.000 C 
ATOM      2  N   UNL     1       0.764  10.895  19.703  0.00  0.00    +0.000 N 
ATOM      3  C   UNL     1       1.236   9.602  19.522  0.00  0.00    +0.000 A 
ATOM      4  C   UNL     1       1.287   8.680  20.569  0.00  0.00    +0.000 A 
ATOM      5  C   UNL     1       1.821   7.407  20.370  0.00  0.00    +0.000 A 
ATOM      6  C   UNL     1       2.354   7.084  19.130  0.00  0.00    +0.000 A 
ATOM      7  C   UNL     1       2.239   8.010  18.119  0.00  0.00    +0.000 A 
ATOM      8  N   UNL     1       1.687   9.245  18.296  0.00  0.00    +0.000 NA
ENDROOT
BRANCH   2   9
ATOM      9  C   UNL     1      -0.095  11.436  18.623  0.00  0.00    +0.000 C 
ATOM     10  C   UNL     1      -0.220  12.957  18.676  0.00  0.00    +0.000 C 
ATOM     11  C   UNL     1      -1.513  13.247  19.437  0.00  0.00    +0.000 C 
ATOM     12  N   UNL     1      -2.314  12.041  19.297  0.00  0.00    +0.000 N 
ATOM     13  C   UNL     1      -1.559  10.945  18.701  0.00  0.00    +0.000 C 
BRANCH  12  14
ATOM     14  C   UNL     1      -3.689  12.089  19.357  0.00  0.00    +0.000 A 
ATOM     15  N   UNL     1      -4.399  11.800  18.227  0.00  0.00    +0.000 NA
ATOM     16  C   UNL     1      -5.746  11.841  18.252  0.00  0.00    +0.000 A 
ATOM     17  N   UNL     1      -6.545  12.164  19.278  0.00  0.00    +0.000 NA
ATOM     18  C   UNL     1      -5.827  12.459  20.370  0.00  0.00    +0.000 A 
ATOM     19  N   UNL     1      -6.379  12.843  21.562  0.00  0.00    +0.000 N 
ATOM     20  C   UNL     1      -5.387  13.077  22.475  0.00  0.00    +0.000 A 
ATOM     21  C   UNL     1      -4.184  12.831  21.854  0.00  0.00    +0.000 A 
ATOM     22  C   UNL     1      -4.443  12.442  20.501  0.00  0.00    +0.000 A 
ATOM     23  H   UNL     1      -7.371  12.938  21.713  0.00  0.00    +0.000 HD
ENDBRANCH  12  14
ENDBRANCH   2   9
BRANCH   6  24
ATOM     24  S   UNL     1       3.045   5.490  18.823  0.00  0.00    +0.000 S 
ATOM     25  O   UNL     1       3.460   5.484  17.434  0.00  0.00    +0.000 OA
ATOM     26  O   UNL     1       3.987   5.211  19.882  0.00  0.00    +0.000 OA
BRANCH  24  27
ATOM     27  N   UNL     1       1.765   4.408  18.988  0.00  0.00    +0.000 NA
ATOM     28  C   UNL     1       1.104   4.185  20.278  0.00  0.00    +0.000 C 
ATOM     29  C   UNL     1       1.398   2.732  20.606  0.00  0.00    +0.000 C 
ATOM     30  C   UNL     1       1.542   2.043  19.258  0.00  0.00    +0.000 C 
ATOM     31  C   UNL     1       1.769   3.147  18.230  0.00  0.00    +0.000 C 
ENDBRANCH  24  27
ENDBRANCH   6  24
TORSDOF 4
ENDMDL
