MODEL 1
REMARK VINA RESULT:      -8.2      0.000      0.000
REMARK  Name = 
REMARK  5 active torsions:
REMARK  status: ('A' for Active; 'I' for Inactive)
REMARK    1  A    between atoms: C_1  and  C_2
REMARK    2  A    between atoms: C_3  and  C_4
REMARK    3  A    between atoms: N_6  and  C_7
REMARK    4  A    between atoms: N_17  and  C_18
REMARK    5  A    between atoms: C_18  and  C_19
REMARK                            x       y       z     vdW  Elec       q    Type
REMARK                         _______ _______ _______ _____ _____    ______ ____
ROOT
ATOM      1  C   UNL     1       1.204  10.902  18.396  0.00  0.00    +0.000 C 
ATOM      2  C   UNL     1       1.022   9.855  19.454  0.00  0.00    +0.000 A 
ATOM      3  C   UNL     1       0.263   9.978  20.619  0.00  0.00    +0.000 A 
ATOM      4  S   UNL     1       0.411   8.579  21.611  0.00  0.00    +0.000 S 
ATOM      5  C   UNL     1       1.381   7.773  20.477  0.00  0.00    +0.000 A 
ATOM      6  N   UNL     1       1.837   6.516  20.700  0.00  0.00    +0.000 NA
ATOM      7  C   UNL     1       2.523   6.017  19.719  0.00  0.00    +0.000 A 
ATOM      8  N   UNL     1       2.800   6.649  18.523  0.00  0.00    +0.000 N 
ATOM      9  C   UNL     1       2.414   7.962  18.291  0.00  0.00    +0.000 A 
ATOM     10  O   UNL     1       2.713   8.594  17.281  0.00  0.00    +0.000 OA
ATOM     11  C   UNL     1       1.615   8.544  19.364  0.00  0.00    +0.000 A 
ENDROOT
BRANCH   3  12
ATOM     12  C   UNL     1      -0.609  11.085  21.026  0.00  0.00    +0.000 C 
ATOM     13  O   UNL     1      -1.221  11.768  20.208  0.00  0.00    +0.000 OA
ATOM     14  N   UNL     1      -0.651  11.341  22.389  0.00  0.00    +0.000 N 
ATOM     15  H   UNL     1       0.089  10.932  22.946  0.00  0.00    +0.000 HD
BRANCH  14  16
ATOM     16  C   UNL     1      -1.457  12.325  22.988  0.00  0.00    +0.000 A 
ATOM     17  C   UNL     1      -1.004  13.630  23.201  0.00  0.00    +0.000 A 
ATOM     18  C   UNL     1      -1.846  14.579  23.785  0.00  0.00    +0.000 A 
ATOM     19  C   UNL     1      -3.130  14.218  24.187  0.00  0.00    +0.000 A 
ATOM     20  C   UNL     1      -3.582  12.915  23.981  0.00  0.00    +0.000 A 
ATOM     21  C   UNL     1      -2.759  11.978  23.354  0.00  0.00    +0.000 A 
ENDBRANCH  14  16
ENDBRANCH   3  12
BRANCH   8  22
ATOM     22  C   UNL     1       3.630   5.980  17.525  0.00  0.00    +0.000 C 
BRANCH  22  23
ATOM     23  C   UNL     1       5.119   6.084  17.789  0.00  0.00    +0.000 A 
ATOM     24  C   UNL     1       5.834   7.167  17.239  0.00  0.00    +0.000 A 
ATOM     25  C   UNL     1       7.186   7.369  17.544  0.00  0.00    +0.000 A 
ATOM     26  C   UNL     1       7.847   6.490  18.389  0.00  0.00    +0.000 A 
ATOM     27  C   UNL     1       7.171   5.390  18.911  0.00  0.00    +0.000 A 
ATOM     28  C   UNL     1       5.819   5.182  18.609  0.00  0.00    +0.000 A 
ATOM     29 CL   UNL     1       5.065   3.798  19.315  0.00  0.00    +0.000 Cl
ENDBRANCH  22  23
ENDBRANCH   8  22
TORSDOF 4
ENDMDL
MODEL 2
REMARK VINA RESULT:      -8.0      3.100      9.841
REMARK  Name = 
REMARK  5 active torsions:
REMARK  status: ('A' for Active; 'I' for Inactive)
REMARK    1  A    between atoms: C_1  and  C_2
REMARK    2  A    between atoms: C_3  and  C_4
REMARK    3  A    between atoms: N_6  and  C_7
REMARK    4  A    between atoms: N_17  and  C_18
REMARK    5  A    between atoms: C_18  and  C_19
REMARK                            x       y       z     vdW  Elec       q    Type
REMARK                         _______ _______ _______ _____ _____    ______ ____
ROOT
ATOM      1  C   UNL     1      -0.156  10.108  18.128  0.00  0.00    +0.000 C 
ATOM      2  C   UNL     1       0.205   9.850  19.560  0.00  0.00    +0.000 A 
ATOM      3  C   UNL     1       1.112   8.897  20.026  0.00  0.00    +0.000 A 
ATOM      4  S   UNL     1       1.151   8.861  21.747  0.00  0.00    +0.000 S 
ATOM      5  C   UNL     1       0.063  10.155  21.883  0.00  0.00    +0.000 A 
ATOM      6  N   UNL     1      -0.314  10.640  23.091  0.00  0.00    +0.000 NA
ATOM      7  C   UNL     1      -1.110  11.663  23.030  0.00  0.00    +0.000 A 
ATOM      8  N   UNL     1      -1.570  12.259  21.873  0.00  0.00    +0.000 N 
ATOM      9  C   UNL     1      -1.266  11.743  20.620  0.00  0.00    +0.000 A 
ATOM     10  O   UNL     1      -1.722  12.185  19.569  0.00  0.00    +0.000 OA
ATOM     11  C   UNL     1      -0.348  10.610  20.653  0.00  0.00    +0.000 A 
ENDROOT
BRANCH   3  12
ATOM     12  C   UNL     1       1.993   8.019  19.248  0.00  0.00    +0.000 C 
ATOM     13  O   UNL     1       2.611   8.421  18.265  0.00  0.00    +0.000 OA
ATOM     14  N   UNL     1       2.034   6.695  19.663  0.00  0.00    +0.000 N 
ATOM     15  H   UNL     1       1.290   6.394  20.280  0.00  0.00    +0.000 HD
BRANCH  14  16
ATOM     16  C   UNL     1       2.847   5.706  19.083  0.00  0.00    +0.000 A 
ATOM     17  C   UNL     1       4.157   5.475  19.512  0.00  0.00    +0.000 A 
ATOM     18  C   UNL     1       4.923   4.470  18.917  0.00  0.00    +0.000 A 
ATOM     19  C   UNL     1       4.394   3.718  17.871  0.00  0.00    +0.000 A 
ATOM     20  C   UNL     1       3.090   3.951  17.437  0.00  0.00    +0.000 A 
ATOM     21  C   UNL     1       2.306   4.922  18.063  0.00  0.00    +0.000 A 
ENDBRANCH  14  16
ENDBRANCH   3  12
BRANCH   8  22
ATOM     22  C   UNL     1      -2.505  13.378  21.957  0.00  0.00    +0.000 C 
BRANCH  22  23
ATOM     23  C   UNL     1      -3.863  13.008  22.519  0.00  0.00    +0.000 A 
ATOM     24  C   UNL     1      -4.004  12.856  23.914  0.00  0.00    +0.000 A 
ATOM     25  C   UNL     1      -5.259  12.625  24.492  0.00  0.00    +0.000 A 
ATOM     26  C   UNL     1      -6.387  12.529  23.689  0.00  0.00    +0.000 A 
ATOM     27  C   UNL     1      -6.265  12.636  22.306  0.00  0.00    +0.000 A 
ATOM     28  C   UNL     1      -5.013  12.866  21.723  0.00  0.00    +0.000 A 
ATOM     29 CL   UNL     1      -4.965  12.997  20.002  0.00  0.00    +0.000 Cl
ENDBRANCH  22  23
ENDBRANCH   8  22
TORSDOF 4
ENDMDL
MODEL 3
REMARK VINA RESULT:      -7.9      1.032      1.317
REMARK  Name = 
REMARK  5 active torsions:
REMARK  status: ('A' for Active; 'I' for Inactive)
REMARK    1  A    between atoms: C_1  and  C_2
REMARK    2  A    between atoms: C_3  and  C_4
REMARK    3  A    between atoms: N_6  and  C_7
REMARK    4  A    between atoms: N_17  and  C_18
REMARK    5  A    between atoms: C_18  and  C_19
REMARK                            x       y       z     vdW  Elec       q    Type
REMARK                         _______ _______ _______ _____ _____    ______ ____
ROOT
ATOM      1  C   UNL     1       1.322  10.864  18.507  0.00  0.00    +0.000 C 
ATOM      2  C   UNL     1       1.065   9.864  19.594  0.00  0.00    +0.000 A 
ATOM      3  C   UNL     1       0.322  10.077  20.756  0.00  0.00    +0.000 A 
ATOM      4  S   UNL     1       0.367   8.698  21.787  0.00  0.00    +0.000 S 
ATOM      5  C   UNL     1       1.269   7.790  20.674  0.00  0.00    +0.000 A 
ATOM      6  N   UNL     1       1.629   6.509  20.931  0.00  0.00    +0.000 NA
ATOM      7  C   UNL     1       2.271   5.932  19.963  0.00  0.00    +0.000 A 
ATOM      8  N   UNL     1       2.592   6.508  18.750  0.00  0.00    +0.000 N 
ATOM      9  C   UNL     1       2.306   7.840  18.482  0.00  0.00    +0.000 A 
ATOM     10  O   UNL     1       2.648   8.419  17.454  0.00  0.00    +0.000 OA
ATOM     11  C   UNL     1       1.557   8.510  19.539  0.00  0.00    +0.000 A 
ENDROOT
BRANCH   3  12
ATOM     12  C   UNL     1      -0.462  11.257  21.134  0.00  0.00    +0.000 C 
ATOM     13  O   UNL     1      -0.776  12.120  20.317  0.00  0.00    +0.000 OA
ATOM     14  N   UNL     1      -0.774  11.360  22.482  0.00  0.00    +0.000 N 
ATOM     15  H   UNL     1      -0.241  10.774  23.113  0.00  0.00    +0.000 HD
BRANCH  14  16
ATOM     16  C   UNL     1      -1.555  12.387  23.040  0.00  0.00    +0.000 A 
ATOM     17  C   UNL     1      -1.041  13.664  23.282  0.00  0.00    +0.000 A 
ATOM     18  C   UNL     1      -1.857  14.659  23.824  0.00  0.00    +0.000 A 
ATOM     19  C   UNL     1      -3.179  14.371  24.155  0.00  0.00    +0.000 A 
ATOM     20  C   UNL     1      -3.693  13.096  23.921  0.00  0.00    +0.000 A 
ATOM     21  C   UNL     1      -2.892  12.115  23.335  0.00  0.00    +0.000 A 
ENDBRANCH  14  16
ENDBRANCH   3  12
BRANCH   8  22
ATOM     22  C   UNL     1       3.365   5.750  17.769  0.00  0.00    +0.000 C 
BRANCH  22  23
ATOM     23  C   UNL     1       4.866   5.870  17.939  0.00  0.00    +0.000 A 
ATOM     24  C   UNL     1       5.446   5.482  19.164  0.00  0.00    +0.000 A 
ATOM     25  C   UNL     1       6.836   5.469  19.332  0.00  0.00    +0.000 A 
ATOM     26  C   UNL     1       7.667   5.854  18.289  0.00  0.00    +0.000 A 
ATOM     27  C   UNL     1       7.114   6.279  17.084  0.00  0.00    +0.000 A 
ATOM     28  C   UNL     1       5.724   6.295  16.910  0.00  0.00    +0.000 A 
ATOM     29 CL   UNL     1       5.135   6.826  15.376  0.00  0.00    +0.000 Cl
ENDBRANCH  22  23
ENDBRANCH   8  22
TORSDOF 4
ENDMDL
MODEL 4
REMARK VINA RESULT:      -7.8      1.685      2.253
REMARK  Name = 
REMARK  5 active torsions:
REMARK  status: ('A' for Active; 'I' for Inactive)
REMARK    1  A    between atoms: C_1  and  C_2
REMARK    2  A    between atoms: C_3  and  C_4
REMARK    3  A    between atoms: N_6  and  C_7
REMARK    4  A    between atoms: N_17  and  C_18
REMARK    5  A    between atoms: C_18  and  C_19
REMARK                            x       y       z     vdW  Elec       q    Type
REMARK                         _______ _______ _______ _____ _____    ______ ____
ROOT
ATOM      1  C   UNL     1      -0.244   8.760  22.012  0.00  0.00    +0.000 C 
ATOM      2  C   UNL     1       0.218   9.369  20.722  0.00  0.00    +0.000 A 
ATOM      3  C   UNL     1      -0.170  10.606  20.205  0.00  0.00    +0.000 A 
ATOM      4  S   UNL     1       0.514  10.873  18.648  0.00  0.00    +0.000 S 
ATOM      5  C   UNL     1       1.395   9.424  18.693  0.00  0.00    +0.000 A 
ATOM      6  N   UNL     1       2.207   9.057  17.671  0.00  0.00    +0.000 NA
ATOM      7  C   UNL     1       2.851   7.950  17.875  0.00  0.00    +0.000 A 
ATOM      8  N   UNL     1       2.769   7.164  19.008  0.00  0.00    +0.000 N 
ATOM      9  C   UNL     1       1.891   7.470  20.039  0.00  0.00    +0.000 A 
ATOM     10  O   UNL     1       1.720   6.756  21.024  0.00  0.00    +0.000 OA
ATOM     11  C   UNL     1       1.173   8.725  19.855  0.00  0.00    +0.000 A 
ENDROOT
BRANCH   3  12
ATOM     12  C   UNL     1      -1.008  11.633  20.831  0.00  0.00    +0.000 C 
ATOM     13  O   UNL     1      -1.681  12.419  20.168  0.00  0.00    +0.000 OA
ATOM     14  N   UNL     1      -0.944  11.693  22.217  0.00  0.00    +0.000 N 
ATOM     15  H   UNL     1      -0.164  11.217  22.651  0.00  0.00    +0.000 HD
BRANCH  14  16
ATOM     16  C   UNL     1      -1.702  12.572  23.009  0.00  0.00    +0.000 A 
ATOM     17  C   UNL     1      -1.239  13.842  23.363  0.00  0.00    +0.000 A 
ATOM     18  C   UNL     1      -2.034  14.689  24.139  0.00  0.00    +0.000 A 
ATOM     19  C   UNL     1      -3.278  14.256  24.590  0.00  0.00    +0.000 A 
ATOM     20  C   UNL     1      -3.740  12.987  24.245  0.00  0.00    +0.000 A 
ATOM     21  C   UNL     1      -2.968  12.158  23.429  0.00  0.00    +0.000 A 
ENDBRANCH  14  16
ENDBRANCH   3  12
BRANCH   8  22
ATOM     22  C   UNL     1       3.518   5.912  19.077  0.00  0.00    +0.000 C 
BRANCH  22  23
ATOM     23  C   UNL     1       4.357   5.625  17.848  0.00  0.00    +0.000 A 
ATOM     24  C   UNL     1       5.497   6.416  17.603  0.00  0.00    +0.000 A 
ATOM     25  C   UNL     1       6.367   6.122  16.545  0.00  0.00    +0.000 A 
ATOM     26  C   UNL     1       6.107   5.044  15.711  0.00  0.00    +0.000 A 
ATOM     27  C   UNL     1       4.965   4.273  15.911  0.00  0.00    +0.000 A 
ATOM     28  C   UNL     1       4.091   4.563  16.967  0.00  0.00    +0.000 A 
ATOM     29 CL   UNL     1       2.710   3.542  17.141  0.00  0.00    +0.000 Cl
ENDBRANCH  22  23
ENDBRANCH   8  22
TORSDOF 4
ENDMDL
MODEL 5
REMARK VINA RESULT:      -7.8      2.262      3.509
REMARK  Name = 
REMARK  5 active torsions:
REMARK  status: ('A' for Active; 'I' for Inactive)
REMARK    1  A    between atoms: C_1  and  C_2
REMARK    2  A    between atoms: C_3  and  C_4
REMARK    3  A    between atoms: N_6  and  C_7
REMARK    4  A    between atoms: N_17  and  C_18
REMARK    5  A    between atoms: C_18  and  C_19
REMARK                            x       y       z     vdW  Elec       q    Type
REMARK                         _______ _______ _______ _____ _____    ______ ____
ROOT
ATOM      1  C   UNL     1      -0.193   9.180  22.478  0.00  0.00    +0.000 C 
ATOM      2  C   UNL     1       0.049   9.626  21.068  0.00  0.00    +0.000 A 
ATOM      3  C   UNL     1      -0.491  10.758  20.453  0.00  0.00    +0.000 A 
ATOM      4  S   UNL     1      -0.041  10.841  18.794  0.00  0.00    +0.000 S 
ATOM      5  C   UNL     1       0.939   9.461  18.902  0.00  0.00    +0.000 A 
ATOM      6  N   UNL     1       1.632   8.998  17.833  0.00  0.00    +0.000 NA
ATOM      7  C   UNL     1       2.375   7.965  18.087  0.00  0.00    +0.000 A 
ATOM      8  N   UNL     1       2.500   7.341  19.313  0.00  0.00    +0.000 N 
ATOM      9  C   UNL     1       1.748   7.741  20.409  0.00  0.00    +0.000 A 
ATOM     10  O   UNL     1       1.759   7.164  21.493  0.00  0.00    +0.000 OA
ATOM     11  C   UNL     1       0.923   8.920  20.166  0.00  0.00    +0.000 A 
ENDROOT
BRANCH   3  12
ATOM     12  C   UNL     1      -1.310  11.817  21.052  0.00  0.00    +0.000 C 
ATOM     13  O   UNL     1      -2.047  12.531  20.376  0.00  0.00    +0.000 OA
ATOM     14  N   UNL     1      -1.151  11.993  22.419  0.00  0.00    +0.000 N 
ATOM     15  H   UNL     1      -0.331  11.570  22.835  0.00  0.00    +0.000 HD
BRANCH  14  16
ATOM     16  C   UNL     1      -1.875  12.919  23.189  0.00  0.00    +0.000 A 
ATOM     17  C   UNL     1      -3.177  12.666  23.629  0.00  0.00    +0.000 A 
ATOM     18  C   UNL     1      -3.852  13.610  24.406  0.00  0.00    +0.000 A 
ATOM     19  C   UNL     1      -3.241  14.822  24.717  0.00  0.00    +0.000 A 
ATOM     20  C   UNL     1      -1.944  15.081  24.274  0.00  0.00    +0.000 A 
ATOM     21  C   UNL     1      -1.250  14.118  23.539  0.00  0.00    +0.000 A 
ENDBRANCH  14  16
ENDBRANCH   3  12
BRANCH   8  22
ATOM     22  C   UNL     1       3.338   6.152  19.439  0.00  0.00    +0.000 C 
BRANCH  22  23
ATOM     23  C   UNL     1       2.616   4.852  19.146  0.00  0.00    +0.000 A 
ATOM     24  C   UNL     1       1.604   4.423  20.028  0.00  0.00    +0.000 A 
ATOM     25  C   UNL     1       0.833   3.289  19.744  0.00  0.00    +0.000 A 
ATOM     26  C   UNL     1       1.066   2.561  18.585  0.00  0.00    +0.000 A 
ATOM     27  C   UNL     1       2.087   2.945  17.720  0.00  0.00    +0.000 A 
ATOM     28  C   UNL     1       2.863   4.077  18.000  0.00  0.00    +0.000 A 
ATOM     29 CL   UNL     1       4.096   4.480  16.860  0.00  0.00    +0.000 Cl
ENDBRANCH  22  23
ENDBRANCH   8  22
TORSDOF 4
ENDMDL
MODEL 6
REMARK VINA RESULT:      -7.8      1.854      2.377
REMARK  Name = 
REMARK  5 active torsions:
REMARK  status: ('A' for Active; 'I' for Inactive)
REMARK    1  A    between atoms: C_1  and  C_2
REMARK    2  A    between atoms: C_3  and  C_4
REMARK    3  A    between atoms: N_6  and  C_7
REMARK    4  A    between atoms: N_17  and  C_18
REMARK    5  A    between atoms: C_18  and  C_19
REMARK                            x       y       z     vdW  Elec       q    Type
REMARK                         _______ _______ _______ _____ _____    ______ ____
ROOT
ATOM      1  C   UNL     1       0.291   8.544  21.976  0.00  0.00    +0.000 C 
ATOM      2  C   UNL     1       0.645   9.319  20.743  0.00  0.00    +0.000 A 
ATOM      3  C   UNL     1       0.332  10.656  20.488  0.00  0.00    +0.000 A 
ATOM      4  S   UNL     1       0.832  11.122  18.908  0.00  0.00    +0.000 S 
ATOM      5  C   UNL     1       1.545   9.615  18.596  0.00  0.00    +0.000 A 
ATOM      6  N   UNL     1       2.171   9.356  17.422  0.00  0.00    +0.000 NA
ATOM      7  C   UNL     1       2.709   8.178  17.354  0.00  0.00    +0.000 A 
ATOM      8  N   UNL     1       2.689   7.222  18.350  0.00  0.00    +0.000 N 
ATOM      9  C   UNL     1       1.993   7.424  19.534  0.00  0.00    +0.000 A 
ATOM     10  O   UNL     1       1.874   6.572  20.411  0.00  0.00    +0.000 OA
ATOM     11  C   UNL     1       1.400   8.751  19.655  0.00  0.00    +0.000 A 
ENDROOT
BRANCH   3  12
ATOM     12  C   UNL     1      -0.298  11.632  21.383  0.00  0.00    +0.000 C 
ATOM     13  O   UNL     1       0.360  12.352  22.129  0.00  0.00    +0.000 OA
ATOM     14  N   UNL     1      -1.686  11.644  21.369  0.00  0.00    +0.000 N 
ATOM     15  H   UNL     1      -2.139  10.840  20.954  0.00  0.00    +0.000 HD
BRANCH  14  16
ATOM     16  C   UNL     1      -2.479  12.533  22.115  0.00  0.00    +0.000 A 
ATOM     17  C   UNL     1      -2.852  13.788  21.626  0.00  0.00    +0.000 A 
ATOM     18  C   UNL     1      -3.655  14.632  22.397  0.00  0.00    +0.000 A 
ATOM     19  C   UNL     1      -4.058  14.238  23.670  0.00  0.00    +0.000 A 
ATOM     20  C   UNL     1      -3.682  12.989  24.164  0.00  0.00    +0.000 A 
ATOM     21  C   UNL     1      -2.920  12.125  23.376  0.00  0.00    +0.000 A 
ENDBRANCH  14  16
ENDBRANCH   3  12
BRANCH   8  22
ATOM     22  C   UNL     1       3.297   5.916  18.113  0.00  0.00    +0.000 C 
BRANCH  22  23
ATOM     23  C   UNL     1       4.812   5.920  18.168  0.00  0.00    +0.000 A 
ATOM     24  C   UNL     1       5.450   5.582  19.378  0.00  0.00    +0.000 A 
ATOM     25  C   UNL     1       6.844   5.463  19.451  0.00  0.00    +0.000 A 
ATOM     26  C   UNL     1       7.621   5.690  18.324  0.00  0.00    +0.000 A 
ATOM     27  C   UNL     1       7.014   6.064  17.128  0.00  0.00    +0.000 A 
ATOM     28  C   UNL     1       5.621   6.185  17.049  0.00  0.00    +0.000 A 
ATOM     29 CL   UNL     1       4.961   6.641  15.520  0.00  0.00    +0.000 Cl
ENDBRANCH  22  23
ENDBRANCH   8  22
TORSDOF 4
ENDMDL
MODEL 7
REMARK VINA RESULT:      -7.8      3.255      9.790
REMARK  Name = 
REMARK  5 active torsions:
REMARK  status: ('A' for Active; 'I' for Inactive)
REMARK    1  A    between atoms: C_1  and  C_2
REMARK    2  A    between atoms: C_3  and  C_4
REMARK    3  A    between atoms: N_6  and  C_7
REMARK    4  A    between atoms: N_17  and  C_18
REMARK    5  A    between atoms: C_18  and  C_19
REMARK                            x       y       z     vdW  Elec       q    Type
REMARK                         _______ _______ _______ _____ _____    ______ ____
ROOT
ATOM      1  C   UNL     1      -0.056  10.243  18.048  0.00  0.00    +0.000 C 
ATOM      2  C   UNL     1       0.243   9.975  19.493  0.00  0.00    +0.000 A 
ATOM      3  C   UNL     1       1.082   8.979  19.994  0.00  0.00    +0.000 A 
ATOM      4  S   UNL     1       1.060   8.951  21.715  0.00  0.00    +0.000 S 
ATOM      5  C   UNL     1       0.037  10.300  21.808  0.00  0.00    +0.000 A 
ATOM      6  N   UNL     1      -0.355  10.811  23.001  0.00  0.00    +0.000 NA
ATOM      7  C   UNL     1      -1.095  11.873  22.908  0.00  0.00    +0.000 A 
ATOM      8  N   UNL     1      -1.484  12.486  21.734  0.00  0.00    +0.000 N 
ATOM      9  C   UNL     1      -1.165  11.947  20.495  0.00  0.00    +0.000 A 
ATOM     10  O   UNL     1      -1.561  12.406  19.427  0.00  0.00    +0.000 OA
ATOM     11  C   UNL     1      -0.308  10.768  20.563  0.00  0.00    +0.000 A 
ENDROOT
BRANCH   3  12
ATOM     12  C   UNL     1       1.942   8.052  19.250  0.00  0.00    +0.000 C 
ATOM     13  O   UNL     1       2.594   8.410  18.272  0.00  0.00    +0.000 OA
ATOM     14  N   UNL     1       1.924   6.736  19.691  0.00  0.00    +0.000 N 
ATOM     15  H   UNL     1       1.158   6.477  20.299  0.00  0.00    +0.000 HD
BRANCH  14  16
ATOM     16  C   UNL     1       2.709   5.706  19.146  0.00  0.00    +0.000 A 
ATOM     17  C   UNL     1       4.002   5.434  19.602  0.00  0.00    +0.000 A 
ATOM     18  C   UNL     1       4.740   4.389  19.042  0.00  0.00    +0.000 A 
ATOM     19  C   UNL     1       4.200   3.635  18.002  0.00  0.00    +0.000 A 
ATOM     20  C   UNL     1       2.913   3.908  17.540  0.00  0.00    +0.000 A 
ATOM     21  C   UNL     1       2.156   4.921  18.132  0.00  0.00    +0.000 A 
ENDBRANCH  14  16
ENDBRANCH   3  12
BRANCH   8  22
ATOM     22  C   UNL     1      -2.363  13.651  21.781  0.00  0.00    +0.000 C 
BRANCH  22  23
ATOM     23  C   UNL     1      -3.812  13.322  22.079  0.00  0.00    +0.000 A 
ATOM     24  C   UNL     1      -4.634  12.860  21.031  0.00  0.00    +0.000 A 
ATOM     25  C   UNL     1      -5.946  12.437  21.276  0.00  0.00    +0.000 A 
ATOM     26  C   UNL     1      -6.462  12.481  22.563  0.00  0.00    +0.000 A 
ATOM     27  C   UNL     1      -5.681  12.972  23.606  0.00  0.00    +0.000 A 
ATOM     28  C   UNL     1      -4.368  13.396  23.367  0.00  0.00    +0.000 A 
ATOM     29 CL   UNL     1      -3.475  13.977  24.727  0.00  0.00    +0.000 Cl
ENDBRANCH  22  23
ENDBRANCH   8  22
TORSDOF 4
ENDMDL
MODEL 8
REMARK VINA RESULT:      -7.8      1.669      2.540
REMARK  Name = 
REMARK  5 active torsions:
REMARK  status: ('A' for Active; 'I' for Inactive)
REMARK    1  A    between atoms: C_1  and  C_2
REMARK    2  A    between atoms: C_3  and  C_4
REMARK    3  A    between atoms: N_6  and  C_7
REMARK    4  A    between atoms: N_17  and  C_18
REMARK    5  A    between atoms: C_18  and  C_19
REMARK                            x       y       z     vdW  Elec       q    Type
REMARK                         _______ _______ _______ _____ _____    ______ ____
ROOT
ATOM      1  C   UNL     1       0.591  11.499  18.672  0.00  0.00    +0.000 C 
ATOM      2  C   UNL     1       0.527  10.500  19.789  0.00  0.00    +0.000 A 
ATOM      3  C   UNL     1      -0.156  10.650  20.996  0.00  0.00    +0.000 A 
ATOM      4  S   UNL     1       0.121   9.311  22.041  0.00  0.00    +0.000 S 
ATOM      5  C   UNL     1       1.047   8.489  20.882  0.00  0.00    +0.000 A 
ATOM      6  N   UNL     1       1.574   7.266  21.133  0.00  0.00    +0.000 NA
ATOM      7  C   UNL     1       2.214   6.746  20.131  0.00  0.00    +0.000 A 
ATOM      8  N   UNL     1       2.382   7.328  18.890  0.00  0.00    +0.000 N 
ATOM      9  C   UNL     1       1.922   8.611  18.623  0.00  0.00    +0.000 A 
ATOM     10  O   UNL     1       2.123   9.203  17.566  0.00  0.00    +0.000 OA
ATOM     11  C   UNL     1       1.172   9.212  19.720  0.00  0.00    +0.000 A 
ENDROOT
BRANCH   3  12
ATOM     12  C   UNL     1      -1.048  11.739  21.410  0.00  0.00    +0.000 C 
ATOM     13  O   UNL     1      -1.636  12.445  20.594  0.00  0.00    +0.000 OA
ATOM     14  N   UNL     1      -1.135  11.951  22.779  0.00  0.00    +0.000 N 
ATOM     15  H   UNL     1      -0.412  11.528  23.346  0.00  0.00    +0.000 HD
BRANCH  14  16
ATOM     16  C   UNL     1      -1.967  12.911  23.381  0.00  0.00    +0.000 A 
ATOM     17  C   UNL     1      -3.309  12.654  23.674  0.00  0.00    +0.000 A 
ATOM     18  C   UNL     1      -4.094  13.632  24.288  0.00  0.00    +0.000 A 
ATOM     19  C   UNL     1      -3.549  14.880  24.580  0.00  0.00    +0.000 A 
ATOM     20  C   UNL     1      -2.212  15.141  24.284  0.00  0.00    +0.000 A 
ATOM     21  C   UNL     1      -1.413  14.148  23.715  0.00  0.00    +0.000 A 
ENDBRANCH  14  16
ENDBRANCH   3  12
BRANCH   8  22
ATOM     22  C   UNL     1       3.172   6.644  17.870  0.00  0.00    +0.000 C 
BRANCH  22  23
ATOM     23  C   UNL     1       3.095   5.132  17.939  0.00  0.00    +0.000 A 
ATOM     24  C   UNL     1       1.845   4.505  17.766  0.00  0.00    +0.000 A 
ATOM     25  C   UNL     1       1.738   3.110  17.710  0.00  0.00    +0.000 A 
ATOM     26  C   UNL     1       2.872   2.320  17.838  0.00  0.00    +0.000 A 
ATOM     27  C   UNL     1       4.112   2.917  18.050  0.00  0.00    +0.000 A 
ATOM     28  C   UNL     1       4.225   4.312  18.108  0.00  0.00    +0.000 A 
ATOM     29 CL   UNL     1       5.806   4.959  18.361  0.00  0.00    +0.000 Cl
ENDBRANCH  22  23
ENDBRANCH   8  22
TORSDOF 4
ENDMDL
MODEL 9
REMARK VINA RESULT:      -7.8      3.105      9.704
REMARK  Name = 
REMARK  5 active torsions:
REMARK  status: ('A' for Active; 'I' for Inactive)
REMARK    1  A    between atoms: C_1  and  C_2
REMARK    2  A    between atoms: C_3  and  C_4
REMARK    3  A    between atoms: N_6  and  C_7
REMARK    4  A    between atoms: N_17  and  C_18
REMARK    5  A    between atoms: C_18  and  C_19
REMARK                            x       y       z     vdW  Elec       q    Type
REMARK                         _______ _______ _______ _____ _____    ______ ____
ROOT
ATOM      1  C   UNL     1      -0.016  10.048  18.108  0.00  0.00    +0.000 C 
ATOM      2  C   UNL     1       0.324   9.734  19.534  0.00  0.00    +0.000 A 
ATOM      3  C   UNL     1       1.224   8.762  19.976  0.00  0.00    +0.000 A 
ATOM      4  S   UNL     1       1.236   8.658  21.694  0.00  0.00    +0.000 S 
ATOM      5  C   UNL     1       0.146   9.946  21.865  0.00  0.00    +0.000 A 
ATOM      6  N   UNL     1      -0.250  10.383  23.085  0.00  0.00    +0.000 NA
ATOM      7  C   UNL     1      -1.045  11.407  23.053  0.00  0.00    +0.000 A 
ATOM      8  N   UNL     1      -1.488  12.050  21.913  0.00  0.00    +0.000 N 
ATOM      9  C   UNL     1      -1.164  11.583  20.646  0.00  0.00    +0.000 A 
ATOM     10  O   UNL     1      -1.604  12.067  19.606  0.00  0.00    +0.000 OA
ATOM     11  C   UNL     1      -0.247  10.449  20.647  0.00  0.00    +0.000 A 
ENDROOT
BRANCH   3  12
ATOM     12  C   UNL     1       2.117   7.916  19.177  0.00  0.00    +0.000 C 
ATOM     13  O   UNL     1       2.755   8.358  18.225  0.00  0.00    +0.000 OA
ATOM     14  N   UNL     1       2.146   6.575  19.535  0.00  0.00    +0.000 N 
ATOM     15  H   UNL     1       1.389   6.251  20.124  0.00  0.00    +0.000 HD
BRANCH  14  16
ATOM     16  C   UNL     1       2.967   5.610  18.928  0.00  0.00    +0.000 A 
ATOM     17  C   UNL     1       2.527   4.824  17.859  0.00  0.00    +0.000 A 
ATOM     18  C   UNL     1       3.383   3.887  17.276  0.00  0.00    +0.000 A 
ATOM     19  C   UNL     1       4.669   3.710  17.782  0.00  0.00    +0.000 A 
ATOM     20  C   UNL     1       5.109   4.488  18.852  0.00  0.00    +0.000 A 
ATOM     21  C   UNL     1       4.271   5.458  19.404  0.00  0.00    +0.000 A 
ENDBRANCH  14  16
ENDBRANCH   3  12
BRANCH   8  22
ATOM     22  C   UNL     1      -2.425  13.164  22.027  0.00  0.00    +0.000 C 
BRANCH  22  23
ATOM     23  C   UNL     1      -2.232  14.009  23.271  0.00  0.00    +0.000 A 
ATOM     24  C   UNL     1      -1.160  14.924  23.312  0.00  0.00    +0.000 A 
ATOM     25  C   UNL     1      -1.004  15.805  24.390  0.00  0.00    +0.000 A 
ATOM     26  C   UNL     1      -1.905  15.778  25.445  0.00  0.00    +0.000 A 
ATOM     27  C   UNL     1      -2.947  14.855  25.444  0.00  0.00    +0.000 A 
ATOM     28  C   UNL     1      -3.108  13.972  24.369  0.00  0.00    +0.000 A 
ATOM     29 CL   UNL     1      -4.438  12.873  24.453  0.00  0.00    +0.000 Cl
ENDBRANCH  22  23
ENDBRANCH   8  22
TORSDOF 4
ENDMDL
