MODEL 1
REMARK VINA RESULT:      -8.0      0.000      0.000
REMARK  Name = 
REMARK  4 active torsions:
REMARK  status: ('A' for Active; 'I' for Inactive)
REMARK    1  A    between atoms: C_1  and  C_2
REMARK    2  A    between atoms: C_5  and  C_6
REMARK    3  A    between atoms: C_14  and  C_15
REMARK    4  A    between atoms: C_14  and  C_16
REMARK                            x       y       z     vdW  Elec       q    Type
REMARK                         _______ _______ _______ _____ _____    ______ ____
ROOT
ATOM      1  C   UNL     1       3.406   6.194  19.427  0.00  0.00    +0.000 C 
ATOM      2  C   UNL     1       3.039   4.928  19.186  0.00  0.00    +0.000 C 
ATOM      3  C   UNL     1       3.941   3.724  19.313  0.00  0.00    +0.000 C 
ATOM      4  O   UNL     1       5.128   3.751  19.571  0.00  0.00    +0.000 OA
ATOM      5  C   UNL     1       3.093   2.506  18.968  0.00  0.00    +0.000 C 
ATOM      6  C   UNL     1       2.891   2.599  17.443  0.00  0.00    +0.000 C 
ATOM      7  C   UNL     1       1.959   3.829  17.293  0.00  0.00    +0.000 C 
ATOM      8  C   UNL     1       1.730   4.287  18.757  0.00  0.00    +0.000 C 
ATOM      9  C   UNL     1       1.725   2.952  19.544  0.00  0.00    +0.000 C 
ATOM     10  C   UNL     1       0.529   2.051  19.180  0.00  0.00    +0.000 C 
ATOM     11  C   UNL     1       1.710   3.113  21.079  0.00  0.00    +0.000 C 
ENDROOT
BRANCH   1  16
ATOM     12  C   UNL     1       0.015  10.861  18.793  0.00  0.00    +0.000 C 
ATOM     13  C   UNL     1       0.896   9.657  18.937  0.00  0.00    +0.000 A 
ATOM     14  C   UNL     1       1.631   9.144  17.864  0.00  0.00    +0.000 A 
ATOM     15  C   UNL     1       2.452   8.018  18.038  0.00  0.00    +0.000 A 
ATOM     16  C   UNL     1       2.547   7.383  19.282  0.00  0.00    +0.000 A 
ATOM     17  C   UNL     1       1.764   7.877  20.332  0.00  0.00    +0.000 A 
ATOM     18  C   UNL     1       0.975   9.016  20.175  0.00  0.00    +0.000 A 
ENDBRANCH   1  16
TORSDOF 1
ENDMDL
MODEL 2
REMARK VINA RESULT:      -8.0      0.091      1.135
REMARK  Name = 
REMARK  4 active torsions:
REMARK  status: ('A' for Active; 'I' for Inactive)
REMARK    1  A    between atoms: C_1  and  C_2
REMARK    2  A    between atoms: C_5  and  C_6
REMARK    3  A    between atoms: C_14  and  C_15
REMARK    4  A    between atoms: C_14  and  C_16
REMARK                            x       y       z     vdW  Elec       q    Type
REMARK                         _______ _______ _______ _____ _____    ______ ____
ROOT
ATOM      1  C   UNL     1       3.421   6.238  19.326  0.00  0.00    +0.000 C 
ATOM      2  C   UNL     1       3.045   4.966  19.135  0.00  0.00    +0.000 C 
ATOM      3  C   UNL     1       3.950   3.765  19.272  0.00  0.00    +0.000 C 
ATOM      4  O   UNL     1       5.144   3.797  19.494  0.00  0.00    +0.000 OA
ATOM      5  C   UNL     1       3.091   2.538  18.990  0.00  0.00    +0.000 C 
ATOM      6  C   UNL     1       2.843   2.584  17.470  0.00  0.00    +0.000 C 
ATOM      7  C   UNL     1       1.908   3.812  17.310  0.00  0.00    +0.000 C 
ATOM      8  C   UNL     1       1.724   4.315  18.766  0.00  0.00    +0.000 C 
ATOM      9  C   UNL     1       1.741   3.004  19.593  0.00  0.00    +0.000 C 
ATOM     10  C   UNL     1       0.534   2.094  19.294  0.00  0.00    +0.000 C 
ATOM     11  C   UNL     1       1.773   3.212  21.122  0.00  0.00    +0.000 C 
ENDROOT
BRANCH   1  16
ATOM     12  C   UNL     1       0.034  10.919  18.781  0.00  0.00    +0.000 C 
ATOM     13  C   UNL     1       0.903   9.708  18.941  0.00  0.00    +0.000 A 
ATOM     14  C   UNL     1       0.979   9.004  20.147  0.00  0.00    +0.000 A 
ATOM     15  C   UNL     1       1.798   7.869  20.259  0.00  0.00    +0.000 A 
ATOM     16  C   UNL     1       2.559   7.423  19.171  0.00  0.00    +0.000 A 
ATOM     17  C   UNL     1       2.513   8.169  17.988  0.00  0.00    +0.000 A 
ATOM     18  C   UNL     1       1.673   9.276  17.861  0.00  0.00    +0.000 A 
ENDBRANCH   1  16
TORSDOF 1
ENDMDL
MODEL 3
REMARK VINA RESULT:      -7.8      3.008      4.352
REMARK  Name = 
REMARK  4 active torsions:
REMARK  status: ('A' for Active; 'I' for Inactive)
REMARK    1  A    between atoms: C_1  and  C_2
REMARK    2  A    between atoms: C_5  and  C_6
REMARK    3  A    between atoms: C_14  and  C_15
REMARK    4  A    between atoms: C_14  and  C_16
REMARK                            x       y       z     vdW  Elec       q    Type
REMARK                         _______ _______ _______ _____ _____    ______ ____
ROOT
ATOM      1  C   UNL     1       5.281   3.806  17.917  0.00  0.00    +0.000 C 
ATOM      2  C   UNL     1       4.019   3.644  18.337  0.00  0.00    +0.000 C 
ATOM      3  C   UNL     1       3.255   2.341  18.306  0.00  0.00    +0.000 C 
ATOM      4  O   UNL     1       3.652   1.297  17.830  0.00  0.00    +0.000 OA
ATOM      5  C   UNL     1       1.882   2.628  18.902  0.00  0.00    +0.000 C 
ATOM      6  C   UNL     1       1.159   3.452  17.819  0.00  0.00    +0.000 C 
ATOM      7  C   UNL     1       1.927   4.799  17.840  0.00  0.00    +0.000 C 
ATOM      8  C   UNL     1       2.995   4.586  18.945  0.00  0.00    +0.000 C 
ATOM      9  C   UNL     1       2.261   3.685  19.971  0.00  0.00    +0.000 C 
ATOM     10  C   UNL     1       1.074   4.396  20.648  0.00  0.00    +0.000 C 
ATOM     11  C   UNL     1       3.159   3.142  21.103  0.00  0.00    +0.000 C 
ENDROOT
BRANCH   1  16
ATOM     12  C   UNL     1       8.295   8.765  17.924  0.00  0.00    +0.000 C 
ATOM     13  C   UNL     1       7.529   7.477  17.936  0.00  0.00    +0.000 A 
ATOM     14  C   UNL     1       7.893   6.406  18.758  0.00  0.00    +0.000 A 
ATOM     15  C   UNL     1       7.148   5.216  18.749  0.00  0.00    +0.000 A 
ATOM     16  C   UNL     1       6.032   5.074  17.914  0.00  0.00    +0.000 A 
ATOM     17  C   UNL     1       5.713   6.134  17.059  0.00  0.00    +0.000 A 
ATOM     18  C   UNL     1       6.428   7.332  17.090  0.00  0.00    +0.000 A 
ENDBRANCH   1  16
TORSDOF 1
ENDMDL
MODEL 4
REMARK VINA RESULT:      -7.8      2.980      4.283
REMARK  Name = 
REMARK  4 active torsions:
REMARK  status: ('A' for Active; 'I' for Inactive)
REMARK    1  A    between atoms: C_1  and  C_2
REMARK    2  A    between atoms: C_5  and  C_6
REMARK    3  A    between atoms: C_14  and  C_15
REMARK    4  A    between atoms: C_14  and  C_16
REMARK                            x       y       z     vdW  Elec       q    Type
REMARK                         _______ _______ _______ _____ _____    ______ ____
ROOT
ATOM      1  C   UNL     1       5.314   3.798  17.924  0.00  0.00    +0.000 C 
ATOM      2  C   UNL     1       4.047   3.658  18.337  0.00  0.00    +0.000 C 
ATOM      3  C   UNL     1       3.257   2.371  18.293  0.00  0.00    +0.000 C 
ATOM      4  O   UNL     1       3.634   1.323  17.809  0.00  0.00    +0.000 OA
ATOM      5  C   UNL     1       1.887   2.681  18.885  0.00  0.00    +0.000 C 
ATOM      6  C   UNL     1       1.185   3.529  17.806  0.00  0.00    +0.000 C 
ATOM      7  C   UNL     1       1.981   4.860  17.842  0.00  0.00    +0.000 C 
ATOM      8  C   UNL     1       3.039   4.616  18.949  0.00  0.00    +0.000 C 
ATOM      9  C   UNL     1       2.283   3.720  19.964  0.00  0.00    +0.000 C 
ATOM     10  C   UNL     1       1.107   4.450  20.642  0.00  0.00    +0.000 C 
ATOM     11  C   UNL     1       3.164   3.150  21.096  0.00  0.00    +0.000 C 
ENDROOT
BRANCH   1  16
ATOM     12  C   UNL     1       8.319   8.762  17.951  0.00  0.00    +0.000 C 
ATOM     13  C   UNL     1       7.530   7.487  17.930  0.00  0.00    +0.000 A 
ATOM     14  C   UNL     1       6.422   7.315  17.095  0.00  0.00    +0.000 A 
ATOM     15  C   UNL     1       5.711   6.104  17.096  0.00  0.00    +0.000 A 
ATOM     16  C   UNL     1       6.090   5.049  17.936  0.00  0.00    +0.000 A 
ATOM     17  C   UNL     1       7.169   5.257  18.804  0.00  0.00    +0.000 A 
ATOM     18  C   UNL     1       7.901   6.445  18.780  0.00  0.00    +0.000 A 
ENDBRANCH   1  16
TORSDOF 1
ENDMDL
MODEL 5
REMARK VINA RESULT:      -7.5      2.985      4.347
REMARK  Name = 
REMARK  4 active torsions:
REMARK  status: ('A' for Active; 'I' for Inactive)
REMARK    1  A    between atoms: C_1  and  C_2
REMARK    2  A    between atoms: C_5  and  C_6
REMARK    3  A    between atoms: C_14  and  C_15
REMARK    4  A    between atoms: C_14  and  C_16
REMARK                            x       y       z     vdW  Elec       q    Type
REMARK                         _______ _______ _______ _____ _____    ______ ____
ROOT
ATOM      1  C   UNL     1       4.455   3.984  17.397  0.00  0.00    +0.000 C 
ATOM      2  C   UNL     1       3.544   3.645  18.320  0.00  0.00    +0.000 C 
ATOM      3  C   UNL     1       2.544   2.522  18.180  0.00  0.00    +0.000 C 
ATOM      4  O   UNL     1       2.382   1.835  17.191  0.00  0.00    +0.000 OA
ATOM      5  C   UNL     1       1.739   2.492  19.474  0.00  0.00    +0.000 C 
ATOM      6  C   UNL     1       0.837   3.739  19.394  0.00  0.00    +0.000 C 
ATOM      7  C   UNL     1       1.849   4.906  19.542  0.00  0.00    +0.000 C 
ATOM      8  C   UNL     1       3.211   4.182  19.701  0.00  0.00    +0.000 C 
ATOM      9  C   UNL     1       2.836   2.900  20.489  0.00  0.00    +0.000 C 
ATOM     10  C   UNL     1       2.338   3.203  21.916  0.00  0.00    +0.000 C 
ATOM     11  C   UNL     1       3.982   1.875  20.626  0.00  0.00    +0.000 C 
ENDROOT
BRANCH   1  16
ATOM     12  C   UNL     1       8.204   8.393  17.821  0.00  0.00    +0.000 C 
ATOM     13  C   UNL     1       7.222   7.266  17.701  0.00  0.00    +0.000 A 
ATOM     14  C   UNL     1       5.990   7.422  17.060  0.00  0.00    +0.000 A 
ATOM     15  C   UNL     1       5.098   6.342  16.960  0.00  0.00    +0.000 A 
ATOM     16  C   UNL     1       5.419   5.092  17.505  0.00  0.00    +0.000 A 
ATOM     17  C   UNL     1       6.633   4.968  18.190  0.00  0.00    +0.000 A 
ATOM     18  C   UNL     1       7.538   6.027  18.260  0.00  0.00    +0.000 A 
ENDBRANCH   1  16
TORSDOF 1
ENDMDL
MODEL 6
REMARK VINA RESULT:      -7.4      2.998      4.391
REMARK  Name = 
REMARK  4 active torsions:
REMARK  status: ('A' for Active; 'I' for Inactive)
REMARK    1  A    between atoms: C_1  and  C_2
REMARK    2  A    between atoms: C_5  and  C_6
REMARK    3  A    between atoms: C_14  and  C_15
REMARK    4  A    between atoms: C_14  and  C_16
REMARK                            x       y       z     vdW  Elec       q    Type
REMARK                         _______ _______ _______ _____ _____    ______ ____
ROOT
ATOM      1  C   UNL     1       4.369   3.944  17.440  0.00  0.00    +0.000 C 
ATOM      2  C   UNL     1       3.452   3.611  18.359  0.00  0.00    +0.000 C 
ATOM      3  C   UNL     1       2.467   2.474  18.229  0.00  0.00    +0.000 C 
ATOM      4  O   UNL     1       2.323   1.767  17.252  0.00  0.00    +0.000 OA
ATOM      5  C   UNL     1       1.649   2.459  19.515  0.00  0.00    +0.000 C 
ATOM      6  C   UNL     1       0.734   3.693  19.403  0.00  0.00    +0.000 C 
ATOM      7  C   UNL     1       1.731   4.874  19.541  0.00  0.00    +0.000 C 
ATOM      8  C   UNL     1       3.100   4.169  19.727  0.00  0.00    +0.000 C 
ATOM      9  C   UNL     1       2.731   2.898  20.535  0.00  0.00    +0.000 C 
ATOM     10  C   UNL     1       2.214   3.221  21.950  0.00  0.00    +0.000 C 
ATOM     11  C   UNL     1       3.887   1.889  20.702  0.00  0.00    +0.000 C 
ENDROOT
BRANCH   1  16
ATOM     12  C   UNL     1       8.164   8.317  17.825  0.00  0.00    +0.000 C 
ATOM     13  C   UNL     1       7.197   7.175  17.736  0.00  0.00    +0.000 A 
ATOM     14  C   UNL     1       7.476   5.922  18.289  0.00  0.00    +0.000 A 
ATOM     15  C   UNL     1       6.543   4.877  18.193  0.00  0.00    +0.000 A 
ATOM     16  C   UNL     1       5.320   5.065  17.537  0.00  0.00    +0.000 A 
ATOM     17  C   UNL     1       5.078   6.309  16.943  0.00  0.00    +0.000 A 
ATOM     18  C   UNL     1       5.986   7.361  17.068  0.00  0.00    +0.000 A 
ENDBRANCH   1  16
TORSDOF 1
ENDMDL
MODEL 7
REMARK VINA RESULT:      -7.3      3.417      5.865
REMARK  Name = 
REMARK  4 active torsions:
REMARK  status: ('A' for Active; 'I' for Inactive)
REMARK    1  A    between atoms: C_1  and  C_2
REMARK    2  A    between atoms: C_5  and  C_6
REMARK    3  A    between atoms: C_14  and  C_15
REMARK    4  A    between atoms: C_14  and  C_16
REMARK                            x       y       z     vdW  Elec       q    Type
REMARK                         _______ _______ _______ _____ _____    ______ ____
ROOT
ATOM      1  C   UNL     1       3.704   3.571  16.903  0.00  0.00    +0.000 C 
ATOM      2  C   UNL     1       4.779   4.346  16.704  0.00  0.00    +0.000 C 
ATOM      3  C   UNL     1       5.454   4.567  15.371  0.00  0.00    +0.000 C 
ATOM      4  O   UNL     1       5.163   4.016  14.328  0.00  0.00    +0.000 OA
ATOM      5  C   UNL     1       6.605   5.534  15.621  0.00  0.00    +0.000 C 
ATOM      6  C   UNL     1       7.653   4.695  16.378  0.00  0.00    +0.000 C 
ATOM      7  C   UNL     1       6.978   4.463  17.755  0.00  0.00    +0.000 C 
ATOM      8  C   UNL     1       5.625   5.209  17.623  0.00  0.00    +0.000 C 
ATOM      9  C   UNL     1       5.982   6.423  16.727  0.00  0.00    +0.000 C 
ATOM     10  C   UNL     1       6.952   7.405  17.411  0.00  0.00    +0.000 C 
ATOM     11  C   UNL     1       4.767   7.252  16.259  0.00  0.00    +0.000 C 
ENDROOT
BRANCH   1  16
ATOM     12  C   UNL     1       1.184   2.601  22.040  0.00  0.00    +0.000 C 
ATOM     13  C   UNL     1       1.853   2.844  20.720  0.00  0.00    +0.000 A 
ATOM     14  C   UNL     1       3.206   2.561  20.512  0.00  0.00    +0.000 A 
ATOM     15  C   UNL     1       3.798   2.795  19.260  0.00  0.00    +0.000 A 
ATOM     16  C   UNL     1       3.050   3.322  18.199  0.00  0.00    +0.000 A 
ATOM     17  C   UNL     1       1.711   3.650  18.440  0.00  0.00    +0.000 A 
ATOM     18  C   UNL     1       1.109   3.385  19.671  0.00  0.00    +0.000 A 
ENDBRANCH   1  16
TORSDOF 1
ENDMDL
MODEL 8
REMARK VINA RESULT:      -7.3      3.443      5.884
REMARK  Name = 
REMARK  4 active torsions:
REMARK  status: ('A' for Active; 'I' for Inactive)
REMARK    1  A    between atoms: C_1  and  C_2
REMARK    2  A    between atoms: C_5  and  C_6
REMARK    3  A    between atoms: C_14  and  C_15
REMARK    4  A    between atoms: C_14  and  C_16
REMARK                            x       y       z     vdW  Elec       q    Type
REMARK                         _______ _______ _______ _____ _____    ______ ____
ROOT
ATOM      1  C   UNL     1       3.756   3.562  16.899  0.00  0.00    +0.000 C 
ATOM      2  C   UNL     1       4.823   4.344  16.686  0.00  0.00    +0.000 C 
ATOM      3  C   UNL     1       5.482   4.568  15.346  0.00  0.00    +0.000 C 
ATOM      4  O   UNL     1       5.183   4.014  14.307  0.00  0.00    +0.000 OA
ATOM      5  C   UNL     1       6.630   5.542  15.582  0.00  0.00    +0.000 C 
ATOM      6  C   UNL     1       7.691   4.711  16.328  0.00  0.00    +0.000 C 
ATOM      7  C   UNL     1       7.034   4.475  17.713  0.00  0.00    +0.000 C 
ATOM      8  C   UNL     1       5.675   5.213  17.596  0.00  0.00    +0.000 C 
ATOM      9  C   UNL     1       6.013   6.428  16.694  0.00  0.00    +0.000 C 
ATOM     10  C   UNL     1       6.986   7.416  17.367  0.00  0.00    +0.000 C 
ATOM     11  C   UNL     1       4.788   7.250  16.240  0.00  0.00    +0.000 C 
ENDROOT
BRANCH   1  16
ATOM     12  C   UNL     1       1.183   2.561  22.003  0.00  0.00    +0.000 C 
ATOM     13  C   UNL     1       1.830   2.826  20.677  0.00  0.00    +0.000 A 
ATOM     14  C   UNL     1       1.108   3.318  19.586  0.00  0.00    +0.000 A 
ATOM     15  C   UNL     1       1.748   3.561  18.360  0.00  0.00    +0.000 A 
ATOM     16  C   UNL     1       3.118   3.311  18.202  0.00  0.00    +0.000 A 
ATOM     17  C   UNL     1       3.814   2.768  19.288  0.00  0.00    +0.000 A 
ATOM     18  C   UNL     1       3.191   2.559  20.519  0.00  0.00    +0.000 A 
ENDBRANCH   1  16
TORSDOF 1
ENDMDL
MODEL 9
REMARK VINA RESULT:      -7.3      1.732      2.519
REMARK  Name = 
REMARK  4 active torsions:
REMARK  status: ('A' for Active; 'I' for Inactive)
REMARK    1  A    between atoms: C_1  and  C_2
REMARK    2  A    between atoms: C_5  and  C_6
REMARK    3  A    between atoms: C_14  and  C_15
REMARK    4  A    between atoms: C_14  and  C_16
REMARK                            x       y       z     vdW  Elec       q    Type
REMARK                         _______ _______ _______ _____ _____    ______ ____
ROOT
ATOM      1  C   UNL     1       3.294   7.475  17.601  0.00  0.00    +0.000 C 
ATOM      2  C   UNL     1       3.631   6.182  17.696  0.00  0.00    +0.000 C 
ATOM      3  C   UNL     1       4.573   5.460  16.762  0.00  0.00    +0.000 C 
ATOM      4  O   UNL     1       5.083   5.931  15.765  0.00  0.00    +0.000 OA
ATOM      5  C   UNL     1       4.675   4.027  17.270  0.00  0.00    +0.000 C 
ATOM      6  C   UNL     1       3.316   3.395  16.910  0.00  0.00    +0.000 C 
ATOM      7  C   UNL     1       2.335   4.121  17.866  0.00  0.00    +0.000 C 
ATOM      8  C   UNL     1       3.256   5.077  18.668  0.00  0.00    +0.000 C 
ATOM      9  C   UNL     1       4.572   4.267  18.797  0.00  0.00    +0.000 C 
ATOM     10  C   UNL     1       4.409   2.999  19.657  0.00  0.00    +0.000 C 
ATOM     11  C   UNL     1       5.755   5.060  19.392  0.00  0.00    +0.000 C 
ENDROOT
BRANCH   1  16
ATOM     12  C   UNL     1      -0.432  10.304  21.035  0.00  0.00    +0.000 C 
ATOM     13  C   UNL     1       0.526   9.587  20.132  0.00  0.00    +0.000 A 
ATOM     14  C   UNL     1       0.737   9.984  18.809  0.00  0.00    +0.000 A 
ATOM     15  C   UNL     1       1.649   9.293  17.995  0.00  0.00    +0.000 A 
ATOM     16  C   UNL     1       2.357   8.189  18.487  0.00  0.00    +0.000 A 
ATOM     17  C   UNL     1       2.095   7.771  19.796  0.00  0.00    +0.000 A 
ATOM     18  C   UNL     1       1.217   8.477  20.621  0.00  0.00    +0.000 A 
ENDBRANCH   1  16
TORSDOF 1
ENDMDL
