MODEL 1
REMARK VINA RESULT:      -8.1      0.000      0.000
REMARK  Name = 
REMARK  9 active torsions:
REMARK  status: ('A' for Active; 'I' for Inactive)
REMARK    1  A    between atoms: C_1  and  N_2
REMARK    2  A    between atoms: N_2  and  C_3
REMARK    3  A    between atoms: C_4  and  C_6
REMARK    4  A    between atoms: N_8  and  C_9
REMARK    5  A    between atoms: N_8  and  C_10
REMARK    6  A    between atoms: C_17  and  C_18
REMARK    7  A    between atoms: N_20  and  C_21
REMARK    8  A    between atoms: C_21  and  C_22
REMARK    9  A    between atoms: C_29  and  O_30
REMARK                            x       y       z     vdW  Elec       q    Type
REMARK                         _______ _______ _______ _____ _____    ______ ____
ROOT
ATOM      1  C   UNL     1      -0.977  12.849  20.471  0.00  0.00    +0.000 C 
ATOM      2  C   UNL     1      -2.099  13.276  21.420  0.00  0.00    +0.000 C 
ATOM      3  C   UNL     1      -1.702  13.123  22.875  0.00  0.00    +0.000 C 
ATOM      4  C   UNL     1      -1.255  11.705  23.168  0.00  0.00    +0.000 C 
ATOM      5  N   UNL     1      -0.415  11.075  22.157  0.00  0.00    +0.000 N 
ATOM      6  C   UNL     1      -0.362  11.485  20.842  0.00  0.00    +0.000 A 
ATOM      7  N   UNL     1       0.249  10.821  19.905  0.00  0.00    +0.000 NA
ATOM      8  C   UNL     1       0.847   9.626  20.242  0.00  0.00    +0.000 A 
ATOM      9  C   UNL     1       0.838   9.093  21.479  0.00  0.00    +0.000 A 
ATOM     10  C   UNL     1       0.143   9.869  22.537  0.00  0.00    +0.000 A 
ATOM     11  O   UNL     1       0.085   9.421  23.685  0.00  0.00    +0.000 OA
ENDROOT
BRANCH   1  14
ATOM     12  C   UNL     1       0.225  14.367  18.938  0.00  0.00    +0.000 C 
ATOM     13  O   UNL     1      -0.352  13.888  17.965  0.00  0.00    +0.000 OA
ATOM     14  N   UNL     1       0.045  13.901  20.254  0.00  0.00    +0.000 N 
ATOM     15  C   UNL     1       0.737  14.492  21.395  0.00  0.00    +0.000 C 
BRANCH  12  19
ATOM     16  C   UNL     1       3.380  16.422  18.136  0.00  0.00    +0.000 C 
ATOM     17  N   UNL     1       2.522  15.298  18.457  0.00  0.00    +0.000 N 
ATOM     18  C   UNL     1       3.050  13.950  18.308  0.00  0.00    +0.000 C 
ATOM     19  C   UNL     1       1.171  15.568  18.707  0.00  0.00    +0.000 C 
ATOM     20  O   UNL     1       0.697  16.701  18.757  0.00  0.00    +0.000 OA
ENDBRANCH  12  19
ENDBRANCH   1  14
BRANCH   8  21
ATOM     21  C   UNL     1       1.546   8.862  19.132  0.00  0.00    +0.000 C 
ATOM     22  O   UNL     1       1.464   9.188  17.951  0.00  0.00    +0.000 OA
ATOM     23  N   UNL     1       2.232   7.747  19.569  0.00  0.00    +0.000 N 
ATOM     24  H   UNL     1       2.076   7.457  20.529  0.00  0.00    +0.000 HD
BRANCH  23  25
ATOM     25  C   UNL     1       2.896   6.859  18.645  0.00  0.00    +0.000 C 
BRANCH  25  26
ATOM     26  C   UNL     1       2.386   5.438  18.728  0.00  0.00    +0.000 A 
ATOM     27  C   UNL     1       1.681   4.993  19.859  0.00  0.00    +0.000 A 
ATOM     28  C   UNL     1       1.156   3.699  19.907  0.00  0.00    +0.000 A 
ATOM     29  C   UNL     1       1.329   2.846  18.824  0.00  0.00    +0.000 A 
ATOM     30  F   UNL     1       0.818   1.608  18.869  0.00  0.00    +0.000 F 
ATOM     31  C   UNL     1       2.018   3.264  17.693  0.00  0.00    +0.000 A 
ATOM     32  C   UNL     1       2.545   4.557  17.643  0.00  0.00    +0.000 A 
ENDBRANCH  25  26
ENDBRANCH  23  25
ENDBRANCH   8  21
BRANCH   9  33
ATOM     33  O   UNL     1       1.349   7.862  21.841  0.00  0.00    +0.000 OA
ATOM     34  H   UNL     1       0.995   7.650  22.721  0.00  0.00    +0.000 HD
ENDBRANCH   9  33
TORSDOF 6
ENDMDL
MODEL 2
REMARK VINA RESULT:      -8.0      0.838      1.017
REMARK  Name = 
REMARK  9 active torsions:
REMARK  status: ('A' for Active; 'I' for Inactive)
REMARK    1  A    between atoms: C_1  and  N_2
REMARK    2  A    between atoms: N_2  and  C_3
REMARK    3  A    between atoms: C_4  and  C_6
REMARK    4  A    between atoms: N_8  and  C_9
REMARK    5  A    between atoms: N_8  and  C_10
REMARK    6  A    between atoms: C_17  and  C_18
REMARK    7  A    between atoms: N_20  and  C_21
REMARK    8  A    between atoms: C_21  and  C_22
REMARK    9  A    between atoms: C_29  and  O_30
REMARK                            x       y       z     vdW  Elec       q    Type
REMARK                         _______ _______ _______ _____ _____    ______ ____
ROOT
ATOM      1  C   UNL     1      -1.265  12.552  20.429  0.00  0.00    +0.000 C 
ATOM      2  C   UNL     1      -2.389  12.783  21.441  0.00  0.00    +0.000 C 
ATOM      3  C   UNL     1      -1.914  12.602  22.869  0.00  0.00    +0.000 C 
ATOM      4  C   UNL     1      -1.283  11.238  23.062  0.00  0.00    +0.000 C 
ATOM      5  N   UNL     1      -0.415  10.774  21.986  0.00  0.00    +0.000 N 
ATOM      6  C   UNL     1      -0.471  11.258  20.697  0.00  0.00    +0.000 A 
ATOM      7  N   UNL     1       0.177  10.728  19.701  0.00  0.00    +0.000 NA
ATOM      8  C   UNL     1       0.932   9.601  19.946  0.00  0.00    +0.000 A 
ATOM      9  C   UNL     1       1.043   9.005  21.149  0.00  0.00    +0.000 A 
ATOM     10  C   UNL     1       0.303   9.630  22.275  0.00  0.00    +0.000 A 
ATOM     11  O   UNL     1       0.351   9.117  23.396  0.00  0.00    +0.000 OA
ENDROOT
BRANCH   1  14
ATOM     12  C   UNL     1      -0.158  14.160  18.916  0.00  0.00    +0.000 C 
ATOM     13  O   UNL     1      -0.565  13.554  17.928  0.00  0.00    +0.000 OA
ATOM     14  N   UNL     1      -0.391  13.734  20.237  0.00  0.00    +0.000 N 
ATOM     15  C   UNL     1       0.097  14.476  21.396  0.00  0.00    +0.000 C 
BRANCH  12  19
ATOM     16  C   UNL     1       2.722  16.625  18.246  0.00  0.00    +0.000 C 
ATOM     17  N   UNL     1       2.012  15.400  18.559  0.00  0.00    +0.000 N 
ATOM     18  C   UNL     1       2.739  14.140  18.517  0.00  0.00    +0.000 C 
ATOM     19  C   UNL     1       0.620  15.477  18.695  0.00  0.00    +0.000 C 
ATOM     20  O   UNL     1      -0.014  16.530  18.654  0.00  0.00    +0.000 OA
ENDBRANCH  12  19
ENDBRANCH   1  14
BRANCH   8  21
ATOM     21  C   UNL     1       1.672   8.992  18.768  0.00  0.00    +0.000 C 
ATOM     22  O   UNL     1       1.728   9.537  17.668  0.00  0.00    +0.000 OA
ATOM     23  N   UNL     1       2.224   7.757  19.035  0.00  0.00    +0.000 N 
ATOM     24  H   UNL     1       1.956   7.310  19.907  0.00  0.00    +0.000 HD
BRANCH  23  25
ATOM     25  C   UNL     1       2.902   6.995  18.013  0.00  0.00    +0.000 C 
BRANCH  25  26
ATOM     26  C   UNL     1       2.895   5.508  18.288  0.00  0.00    +0.000 A 
ATOM     27  C   UNL     1       1.876   4.688  17.776  0.00  0.00    +0.000 A 
ATOM     28  C   UNL     1       1.906   3.305  17.979  0.00  0.00    +0.000 A 
ATOM     29  C   UNL     1       2.956   2.737  18.690  0.00  0.00    +0.000 A 
ATOM     30  F   UNL     1       2.987   1.410  18.876  0.00  0.00    +0.000 F 
ATOM     31  C   UNL     1       3.978   3.526  19.202  0.00  0.00    +0.000 A 
ATOM     32  C   UNL     1       3.950   4.909  19.001  0.00  0.00    +0.000 A 
ENDBRANCH  25  26
ENDBRANCH  23  25
ENDBRANCH   8  21
BRANCH   9  33
ATOM     33  O   UNL     1       1.718   7.831  21.419  0.00  0.00    +0.000 OA
ATOM     34  H   UNL     1       1.644   7.268  20.630  0.00  0.00    +0.000 HD
ENDBRANCH   9  33
TORSDOF 6
ENDMDL
MODEL 3
REMARK VINA RESULT:      -7.8      1.203      1.595
REMARK  Name = 
REMARK  9 active torsions:
REMARK  status: ('A' for Active; 'I' for Inactive)
REMARK    1  A    between atoms: C_1  and  N_2
REMARK    2  A    between atoms: N_2  and  C_3
REMARK    3  A    between atoms: C_4  and  C_6
REMARK    4  A    between atoms: N_8  and  C_9
REMARK    5  A    between atoms: N_8  and  C_10
REMARK    6  A    between atoms: C_17  and  C_18
REMARK    7  A    between atoms: N_20  and  C_21
REMARK    8  A    between atoms: C_21  and  C_22
REMARK    9  A    between atoms: C_29  and  O_30
REMARK                            x       y       z     vdW  Elec       q    Type
REMARK                         _______ _______ _______ _____ _____    ______ ____
ROOT
ATOM      1  C   UNL     1      -1.016  12.540  20.431  0.00  0.00    +0.000 C 
ATOM      2  C   UNL     1      -2.143  12.771  21.439  0.00  0.00    +0.000 C 
ATOM      3  C   UNL     1      -1.706  12.472  22.860  0.00  0.00    +0.000 C 
ATOM      4  C   UNL     1      -1.158  11.064  22.973  0.00  0.00    +0.000 C 
ATOM      5  N   UNL     1      -0.299  10.619  21.882  0.00  0.00    +0.000 N 
ATOM      6  C   UNL     1      -0.303  11.187  20.626  0.00  0.00    +0.000 A 
ATOM      7  N   UNL     1       0.332  10.684  19.607  0.00  0.00    +0.000 NA
ATOM      8  C   UNL     1       1.016   9.501  19.790  0.00  0.00    +0.000 A 
ATOM      9  C   UNL     1       1.070   8.825  20.953  0.00  0.00    +0.000 A 
ATOM     10  C   UNL     1       0.347   9.419  22.106  0.00  0.00    +0.000 A 
ATOM     11  O   UNL     1       0.344   8.833  23.192  0.00  0.00    +0.000 OA
ENDROOT
BRANCH   1  14
ATOM     12  C   UNL     1       0.103  14.262  19.060  0.00  0.00    +0.000 C 
ATOM     13  O   UNL     1      -0.412  13.823  18.036  0.00  0.00    +0.000 OA
ATOM     14  N   UNL     1      -0.071  13.678  20.329  0.00  0.00    +0.000 N 
ATOM     15  C   UNL     1       0.546  14.224  21.534  0.00  0.00    +0.000 C 
BRANCH  12  19
ATOM     16  C   UNL     1       1.127  17.974  19.053  0.00  0.00    +0.000 C 
ATOM     17  N   UNL     1       0.305  16.779  19.046  0.00  0.00    +0.000 N 
ATOM     18  C   UNL     1      -1.116  16.907  19.331  0.00  0.00    +0.000 C 
ATOM     19  C   UNL     1       0.960  15.545  18.955  0.00  0.00    +0.000 C 
ATOM     20  O   UNL     1       2.173  15.424  18.793  0.00  0.00    +0.000 OA
ENDBRANCH  12  19
ENDBRANCH   1  14
BRANCH   8  21
ATOM     21  C   UNL     1       1.741   8.927  18.586  0.00  0.00    +0.000 C 
ATOM     22  O   UNL     1       1.617   9.390  17.455  0.00  0.00    +0.000 OA
ATOM     23  N   UNL     1       2.503   7.813  18.873  0.00  0.00    +0.000 N 
ATOM     24  H   UNL     1       2.383   7.397  19.792  0.00  0.00    +0.000 HD
BRANCH  23  25
ATOM     25  C   UNL     1       3.204   7.089  17.840  0.00  0.00    +0.000 C 
BRANCH  25  26
ATOM     26  C   UNL     1       3.061   5.590  17.973  0.00  0.00    +0.000 A 
ATOM     27  C   UNL     1       4.188   4.778  18.180  0.00  0.00    +0.000 A 
ATOM     28  C   UNL     1       4.047   3.399  18.365  0.00  0.00    +0.000 A 
ATOM     29  C   UNL     1       2.780   2.829  18.350  0.00  0.00    +0.000 A 
ATOM     30  F   UNL     1       2.647   1.509  18.536  0.00  0.00    +0.000 F 
ATOM     31  C   UNL     1       1.650   3.612  18.153  0.00  0.00    +0.000 A 
ATOM     32  C   UNL     1       1.789   4.990  17.965  0.00  0.00    +0.000 A 
ENDBRANCH  25  26
ENDBRANCH  23  25
ENDBRANCH   8  21
BRANCH   9  33
ATOM     33  O   UNL     1       1.670   7.598  21.156  0.00  0.00    +0.000 OA
ATOM     34  H   UNL     1       2.138   7.366  20.336  0.00  0.00    +0.000 HD
ENDBRANCH   9  33
TORSDOF 6
ENDMDL
MODEL 4
REMARK VINA RESULT:      -7.8      1.628      1.975
REMARK  Name = 
REMARK  9 active torsions:
REMARK  status: ('A' for Active; 'I' for Inactive)
REMARK    1  A    between atoms: C_1  and  N_2
REMARK    2  A    between atoms: N_2  and  C_3
REMARK    3  A    between atoms: C_4  and  C_6
REMARK    4  A    between atoms: N_8  and  C_9
REMARK    5  A    between atoms: N_8  and  C_10
REMARK    6  A    between atoms: C_17  and  C_18
REMARK    7  A    between atoms: N_20  and  C_21
REMARK    8  A    between atoms: C_21  and  C_22
REMARK    9  A    between atoms: C_29  and  O_30
REMARK                            x       y       z     vdW  Elec       q    Type
REMARK                         _______ _______ _______ _____ _____    ______ ____
ROOT
ATOM      1  C   UNL     1       0.676  13.923  20.013  0.00  0.00    +0.000 C 
ATOM      2  C   UNL     1      -0.304  14.805  20.789  0.00  0.00    +0.000 C 
ATOM      3  C   UNL     1      -0.321  14.471  22.268  0.00  0.00    +0.000 C 
ATOM      4  C   UNL     1      -0.623  13.002  22.488  0.00  0.00    +0.000 C 
ATOM      5  N   UNL     1       0.034  12.069  21.581  0.00  0.00    +0.000 N 
ATOM      6  C   UNL     1       0.529  12.424  20.345  0.00  0.00    +0.000 A 
ATOM      7  N   UNL     1       0.956  11.565  19.467  0.00  0.00    +0.000 NA
ATOM      8  C   UNL     1       0.876  10.225  19.779  0.00  0.00    +0.000 A 
ATOM      9  C   UNL     1       0.380   9.741  20.934  0.00  0.00    +0.000 A 
ATOM     10  C   UNL     1      -0.095  10.738  21.928  0.00  0.00    +0.000 A 
ATOM     11  O   UNL     1      -0.578  10.353  22.996  0.00  0.00    +0.000 OA
ENDROOT
BRANCH   1  14
ATOM     12  C   UNL     1       2.485  15.372  19.162  0.00  0.00    +0.000 C 
ATOM     13  O   UNL     1       1.768  15.782  18.254  0.00  0.00    +0.000 OA
ATOM     14  N   UNL     1       2.081  14.393  20.088  0.00  0.00    +0.000 N 
ATOM     15  C   UNL     1       2.950  13.927  21.164  0.00  0.00    +0.000 C 
BRANCH  12  19
ATOM     16  C   UNL     1       5.353  17.671  20.307  0.00  0.00    +0.000 C 
ATOM     17  N   UNL     1       4.016  17.159  20.079  0.00  0.00    +0.000 N 
ATOM     18  C   UNL     1       2.905  17.753  20.807  0.00  0.00    +0.000 C 
ATOM     19  C   UNL     1       3.894  15.991  19.315  0.00  0.00    +0.000 C 
ATOM     20  O   UNL     1       4.839  15.435  18.760  0.00  0.00    +0.000 OA
ENDBRANCH  12  19
ENDBRANCH   1  14
BRANCH   8  21
ATOM     21  C   UNL     1       1.370   9.238  18.736  0.00  0.00    +0.000 C 
ATOM     22  O   UNL     1       1.028   9.293  17.558  0.00  0.00    +0.000 OA
ATOM     23  N   UNL     1       2.190   8.253  19.247  0.00  0.00    +0.000 N 
ATOM     24  H   UNL     1       2.253   8.182  20.258  0.00  0.00    +0.000 HD
BRANCH  23  25
ATOM     25  C   UNL     1       2.696   7.186  18.416  0.00  0.00    +0.000 C 
BRANCH  25  26
ATOM     26  C   UNL     1       2.227   5.820  18.866  0.00  0.00    +0.000 A 
ATOM     27  C   UNL     1       2.006   5.550  20.227  0.00  0.00    +0.000 A 
ATOM     28  C   UNL     1       1.513   4.307  20.634  0.00  0.00    +0.000 A 
ATOM     29  C   UNL     1       1.236   3.332  19.683  0.00  0.00    +0.000 A 
ATOM     30  F   UNL     1       0.756   2.144  20.076  0.00  0.00    +0.000 F 
ATOM     31  C   UNL     1       1.442   3.577  18.332  0.00  0.00    +0.000 A 
ATOM     32  C   UNL     1       1.936   4.819  17.922  0.00  0.00    +0.000 A 
ENDBRANCH  25  26
ENDBRANCH  23  25
ENDBRANCH   8  21
BRANCH   9  33
ATOM     33  O   UNL     1       0.204   8.409  21.253  0.00  0.00    +0.000 OA
ATOM     34  H   UNL     1      -0.374   8.023  20.572  0.00  0.00    +0.000 HD
ENDBRANCH   9  33
TORSDOF 6
ENDMDL
MODEL 5
REMARK VINA RESULT:      -7.7      1.545      2.030
REMARK  Name = 
REMARK  9 active torsions:
REMARK  status: ('A' for Active; 'I' for Inactive)
REMARK    1  A    between atoms: C_1  and  N_2
REMARK    2  A    between atoms: N_2  and  C_3
REMARK    3  A    between atoms: C_4  and  C_6
REMARK    4  A    between atoms: N_8  and  C_9
REMARK    5  A    between atoms: N_8  and  C_10
REMARK    6  A    between atoms: C_17  and  C_18
REMARK    7  A    between atoms: N_20  and  C_21
REMARK    8  A    between atoms: C_21  and  C_22
REMARK    9  A    between atoms: C_29  and  O_30
REMARK                            x       y       z     vdW  Elec       q    Type
REMARK                         _______ _______ _______ _____ _____    ______ ____
ROOT
ATOM      1  C   UNL     1       0.712  14.109  20.152  0.00  0.00    +0.000 C 
ATOM      2  C   UNL     1      -0.261  14.997  20.931  0.00  0.00    +0.000 C 
ATOM      3  C   UNL     1      -0.297  14.645  22.405  0.00  0.00    +0.000 C 
ATOM      4  C   UNL     1      -0.624  13.178  22.603  0.00  0.00    +0.000 C 
ATOM      5  N   UNL     1       0.026  12.246  21.690  0.00  0.00    +0.000 N 
ATOM      6  C   UNL     1       0.538  12.609  20.463  0.00  0.00    +0.000 A 
ATOM      7  N   UNL     1       0.959  11.755  19.578  0.00  0.00    +0.000 NA
ATOM      8  C   UNL     1       0.854  10.412  19.872  0.00  0.00    +0.000 A 
ATOM      9  C   UNL     1       0.340   9.921  21.016  0.00  0.00    +0.000 A 
ATOM     10  C   UNL     1      -0.127  10.913  22.019  0.00  0.00    +0.000 A 
ATOM     11  O   UNL     1      -0.625  10.522  23.077  0.00  0.00    +0.000 OA
ENDROOT
BRANCH   1  14
ATOM     12  C   UNL     1       2.519  15.625  19.419  0.00  0.00    +0.000 C 
ATOM     13  O   UNL     1       1.787  16.136  18.577  0.00  0.00    +0.000 OA
ATOM     14  N   UNL     1       2.123  14.556  20.245  0.00  0.00    +0.000 N 
ATOM     15  C   UNL     1       3.009  13.969  21.246  0.00  0.00    +0.000 C 
BRANCH  12  19
ATOM     16  C   UNL     1       6.290  16.260  18.973  0.00  0.00    +0.000 C 
ATOM     17  N   UNL     1       4.984  15.637  18.873  0.00  0.00    +0.000 N 
ATOM     18  C   UNL     1       4.781  14.593  17.879  0.00  0.00    +0.000 C 
ATOM     19  C   UNL     1       3.937  16.210  19.607  0.00  0.00    +0.000 C 
ATOM     20  O   UNL     1       4.084  17.146  20.391  0.00  0.00    +0.000 OA
ENDBRANCH  12  19
ENDBRANCH   1  14
BRANCH   8  21
ATOM     21  C   UNL     1       1.342   9.431  18.821  0.00  0.00    +0.000 C 
ATOM     22  O   UNL     1       1.038   9.526  17.635  0.00  0.00    +0.000 OA
ATOM     23  N   UNL     1       2.108   8.403  19.331  0.00  0.00    +0.000 N 
ATOM     24  H   UNL     1       2.138   8.307  20.342  0.00  0.00    +0.000 HD
BRANCH  23  25
ATOM     25  C   UNL     1       2.598   7.336  18.490  0.00  0.00    +0.000 C 
BRANCH  25  26
ATOM     26  C   UNL     1       2.115   5.973  18.932  0.00  0.00    +0.000 A 
ATOM     27  C   UNL     1       1.899   4.950  17.994  0.00  0.00    +0.000 A 
ATOM     28  C   UNL     1       1.513   3.673  18.411  0.00  0.00    +0.000 A 
ATOM     29  C   UNL     1       1.346   3.412  19.765  0.00  0.00    +0.000 A 
ATOM     30  F   UNL     1       0.984   2.185  20.163  0.00  0.00    +0.000 F 
ATOM     31  C   UNL     1       1.559   4.406  20.712  0.00  0.00    +0.000 A 
ATOM     32  C   UNL     1       1.943   5.684  20.298  0.00  0.00    +0.000 A 
ENDBRANCH  25  26
ENDBRANCH  23  25
ENDBRANCH   8  21
BRANCH   9  33
ATOM     33  O   UNL     1       0.140   8.589  21.316  0.00  0.00    +0.000 OA
ATOM     34  H   UNL     1      -0.249   8.548  22.206  0.00  0.00    +0.000 HD
ENDBRANCH   9  33
TORSDOF 6
ENDMDL
MODEL 6
REMARK VINA RESULT:      -7.7      1.035      1.256
REMARK  Name = 
REMARK  9 active torsions:
REMARK  status: ('A' for Active; 'I' for Inactive)
REMARK    1  A    between atoms: C_1  and  N_2
REMARK    2  A    between atoms: N_2  and  C_3
REMARK    3  A    between atoms: C_4  and  C_6
REMARK    4  A    between atoms: N_8  and  C_9
REMARK    5  A    between atoms: N_8  and  C_10
REMARK    6  A    between atoms: C_17  and  C_18
REMARK    7  A    between atoms: N_20  and  C_21
REMARK    8  A    between atoms: C_21  and  C_22
REMARK    9  A    between atoms: C_29  and  O_30
REMARK                            x       y       z     vdW  Elec       q    Type
REMARK                         _______ _______ _______ _____ _____    ______ ____
ROOT
ATOM      1  C   UNL     1      -0.351  12.779  20.101  0.00  0.00    +0.000 C 
ATOM      2  C   UNL     1      -1.472  13.348  20.973  0.00  0.00    +0.000 C 
ATOM      3  C   UNL     1      -1.194  13.163  22.451  0.00  0.00    +0.000 C 
ATOM      4  C   UNL     1      -0.941  11.705  22.777  0.00  0.00    +0.000 C 
ATOM      5  N   UNL     1      -0.118  10.968  21.825  0.00  0.00    +0.000 N 
ATOM      6  C   UNL     1       0.070  11.355  20.517  0.00  0.00    +0.000 A 
ATOM      7  N   UNL     1       0.657  10.613  19.624  0.00  0.00    +0.000 NA
ATOM      8  C   UNL     1       1.083   9.358  20.003  0.00  0.00    +0.000 A 
ATOM      9  C   UNL     1       0.929   8.843  21.238  0.00  0.00    +0.000 A 
ATOM     10  C   UNL     1       0.264   9.708  22.245  0.00  0.00    +0.000 A 
ATOM     11  O   UNL     1       0.078   9.283  23.388  0.00  0.00    +0.000 OA
ENDROOT
BRANCH   1  14
ATOM     12  C   UNL     1       0.617  14.845  19.156  0.00  0.00    +0.000 C 
ATOM     13  O   UNL     1      -0.410  15.070  18.522  0.00  0.00    +0.000 OA
ATOM     14  N   UNL     1       0.803  13.698  19.950  0.00  0.00    +0.000 N 
ATOM     15  C   UNL     1       2.031  13.457  20.702  0.00  0.00    +0.000 C 
BRANCH  12  19
ATOM     16  C   UNL     1       2.864  17.831  20.084  0.00  0.00    +0.000 C 
ATOM     17  N   UNL     1       1.741  16.913  20.071  0.00  0.00    +0.000 N 
ATOM     18  C   UNL     1       0.780  16.967  21.163  0.00  0.00    +0.000 C 
ATOM     19  C   UNL     1       1.750  15.896  19.108  0.00  0.00    +0.000 C 
ATOM     20  O   UNL     1       2.602  15.795  18.227  0.00  0.00    +0.000 OA
ENDBRANCH  12  19
ENDBRANCH   1  14
BRANCH   8  21
ATOM     21  C   UNL     1       1.756   8.504  18.943  0.00  0.00    +0.000 C 
ATOM     22  O   UNL     1       1.584   8.683  17.740  0.00  0.00    +0.000 OA
ATOM     23  N   UNL     1       2.531   7.485  19.458  0.00  0.00    +0.000 N 
ATOM     24  H   UNL     1       2.451   7.303  20.455  0.00  0.00    +0.000 HD
BRANCH  23  25
ATOM     25  C   UNL     1       3.188   6.528  18.600  0.00  0.00    +0.000 C 
BRANCH  25  26
ATOM     26  C   UNL     1       2.540   5.163  18.641  0.00  0.00    +0.000 A 
ATOM     27  C   UNL     1       1.696   4.799  19.704  0.00  0.00    +0.000 A 
ATOM     28  C   UNL     1       1.049   3.561  19.707  0.00  0.00    +0.000 A 
ATOM     29  C   UNL     1       1.238   2.683  18.647  0.00  0.00    +0.000 A 
ATOM     30  F   UNL     1       0.610   1.499  18.649  0.00  0.00    +0.000 F 
ATOM     31  C   UNL     1       2.063   3.021  17.582  0.00  0.00    +0.000 A 
ATOM     32  C   UNL     1       2.713   4.258  17.577  0.00  0.00    +0.000 A 
ENDBRANCH  25  26
ENDBRANCH  23  25
ENDBRANCH   8  21
BRANCH   9  33
ATOM     33  O   UNL     1       1.263   7.564  21.636  0.00  0.00    +0.000 OA
ATOM     34  H   UNL     1       0.867   6.949  20.996  0.00  0.00    +0.000 HD
ENDBRANCH   9  33
TORSDOF 6
ENDMDL
MODEL 7
REMARK VINA RESULT:      -7.6      1.128      1.325
REMARK  Name = 
REMARK  9 active torsions:
REMARK  status: ('A' for Active; 'I' for Inactive)
REMARK    1  A    between atoms: C_1  and  N_2
REMARK    2  A    between atoms: N_2  and  C_3
REMARK    3  A    between atoms: C_4  and  C_6
REMARK    4  A    between atoms: N_8  and  C_9
REMARK    5  A    between atoms: N_8  and  C_10
REMARK    6  A    between atoms: C_17  and  C_18
REMARK    7  A    between atoms: N_20  and  C_21
REMARK    8  A    between atoms: C_21  and  C_22
REMARK    9  A    between atoms: C_29  and  O_30
REMARK                            x       y       z     vdW  Elec       q    Type
REMARK                         _______ _______ _______ _____ _____    ______ ____
ROOT
ATOM      1  C   UNL     1      -0.012  13.358  20.215  0.00  0.00    +0.000 C 
ATOM      2  C   UNL     1      -1.120  13.956  21.085  0.00  0.00    +0.000 C 
ATOM      3  C   UNL     1      -0.972  13.563  22.542  0.00  0.00    +0.000 C 
ATOM      4  C   UNL     1      -0.917  12.056  22.694  0.00  0.00    +0.000 C 
ATOM      5  N   UNL     1      -0.119  11.340  21.706  0.00  0.00    +0.000 N 
ATOM      6  C   UNL     1       0.207  11.853  20.470  0.00  0.00    +0.000 A 
ATOM      7  N   UNL     1       0.766  11.155  19.525  0.00  0.00    +0.000 NA
ATOM      8  C   UNL     1       1.013   9.820  19.766  0.00  0.00    +0.000 A 
ATOM      9  C   UNL     1       0.710   9.185  20.915  0.00  0.00    +0.000 A 
ATOM     10  C   UNL     1       0.081  10.002  21.984  0.00  0.00    +0.000 A 
ATOM     11  O   UNL     1      -0.237   9.470  23.051  0.00  0.00    +0.000 OA
ENDROOT
BRANCH   1  14
ATOM     12  C   UNL     1       1.322  15.286  19.438  0.00  0.00    +0.000 C 
ATOM     13  O   UNL     1       0.439  15.617  18.652  0.00  0.00    +0.000 OA
ATOM     14  N   UNL     1       1.250  14.137  20.248  0.00  0.00    +0.000 N 
ATOM     15  C   UNL     1       2.310  13.768  21.181  0.00  0.00    +0.000 C 
BRANCH  12  19
ATOM     16  C   UNL     1       4.806  16.812  18.843  0.00  0.00    +0.000 C 
ATOM     17  N   UNL     1       3.688  15.890  18.794  0.00  0.00    +0.000 N 
ATOM     18  C   UNL     1       3.706  14.819  17.809  0.00  0.00    +0.000 C 
ATOM     19  C   UNL     1       2.563  16.199  19.569  0.00  0.00    +0.000 C 
ATOM     20  O   UNL     1       2.508  17.149  20.348  0.00  0.00    +0.000 OA
ENDBRANCH  12  19
ENDBRANCH   1  14
BRANCH   8  21
ATOM     21  C   UNL     1       1.657   9.020  18.647  0.00  0.00    +0.000 C 
ATOM     22  O   UNL     1       1.572   9.347  17.466  0.00  0.00    +0.000 OA
ATOM     23  N   UNL     1       2.295   7.875  19.077  0.00  0.00    +0.000 N 
ATOM     24  H   UNL     1       2.140   7.595  20.041  0.00  0.00    +0.000 HD
BRANCH  23  25
ATOM     25  C   UNL     1       2.900   6.953  18.146  0.00  0.00    +0.000 C 
BRANCH  25  26
ATOM     26  C   UNL     1       2.658   5.506  18.512  0.00  0.00    +0.000 A 
ATOM     27  C   UNL     1       1.716   4.736  17.810  0.00  0.00    +0.000 A 
ATOM     28  C   UNL     1       1.539   3.382  18.108  0.00  0.00    +0.000 A 
ATOM     29  C   UNL     1       2.305   2.792  19.106  0.00  0.00    +0.000 A 
ATOM     30  F   UNL     1       2.139   1.492  19.385  0.00  0.00    +0.000 F 
ATOM     31  C   UNL     1       3.247   3.531  19.811  0.00  0.00    +0.000 A 
ATOM     32  C   UNL     1       3.424   4.885  19.515  0.00  0.00    +0.000 A 
ENDBRANCH  25  26
ENDBRANCH  23  25
ENDBRANCH   8  21
BRANCH   9  33
ATOM     33  O   UNL     1       0.863   7.836  21.167  0.00  0.00    +0.000 OA
ATOM     34  H   UNL     1       1.575   7.744  21.822  0.00  0.00    +0.000 HD
ENDBRANCH   9  33
TORSDOF 6
ENDMDL
MODEL 8
REMARK VINA RESULT:      -7.6      2.356      2.945
REMARK  Name = 
REMARK  9 active torsions:
REMARK  status: ('A' for Active; 'I' for Inactive)
REMARK    1  A    between atoms: C_1  and  N_2
REMARK    2  A    between atoms: N_2  and  C_3
REMARK    3  A    between atoms: C_4  and  C_6
REMARK    4  A    between atoms: N_8  and  C_9
REMARK    5  A    between atoms: N_8  and  C_10
REMARK    6  A    between atoms: C_17  and  C_18
REMARK    7  A    between atoms: N_20  and  C_21
REMARK    8  A    between atoms: C_21  and  C_22
REMARK    9  A    between atoms: C_29  and  O_30
REMARK                            x       y       z     vdW  Elec       q    Type
REMARK                         _______ _______ _______ _____ _____    ______ ____
ROOT
ATOM      1  C   UNL     1      -0.255  12.706  20.017  0.00  0.00    +0.000 C 
ATOM      2  C   UNL     1      -1.381  13.180  20.939  0.00  0.00    +0.000 C 
ATOM      3  C   UNL     1      -1.080  12.894  22.397  0.00  0.00    +0.000 C 
ATOM      4  C   UNL     1      -0.786  11.423  22.612  0.00  0.00    +0.000 C 
ATOM      5  N   UNL     1       0.043  10.779  21.600  0.00  0.00    +0.000 N 
ATOM      6  C   UNL     1       0.206  11.266  20.321  0.00  0.00    +0.000 A 
ATOM      7  N   UNL     1       0.800  10.608  19.370  0.00  0.00    +0.000 NA
ATOM      8  C   UNL     1       1.262   9.340  19.652  0.00  0.00    +0.000 A 
ATOM      9  C   UNL     1       1.136   8.731  20.847  0.00  0.00    +0.000 A 
ATOM     10  C   UNL     1       0.462   9.503  21.922  0.00  0.00    +0.000 A 
ATOM     11  O   UNL     1       0.300   8.990  23.032  0.00  0.00    +0.000 OA
ENDROOT
BRANCH   1  14
ATOM     12  C   UNL     1       0.669  14.831  19.163  0.00  0.00    +0.000 C 
ATOM     13  O   UNL     1      -0.351  15.046  18.514  0.00  0.00    +0.000 OA
ATOM     14  N   UNL     1       0.873  13.663  19.922  0.00  0.00    +0.000 N 
ATOM     15  C   UNL     1       2.091  13.433  20.693  0.00  0.00    +0.000 C 
BRANCH  12  19
ATOM     16  C   UNL     1       2.802  17.851  20.237  0.00  0.00    +0.000 C 
ATOM     17  N   UNL     1       1.707  16.901  20.168  0.00  0.00    +0.000 N 
ATOM     18  C   UNL     1       0.720  16.893  21.237  0.00  0.00    +0.000 C 
ATOM     19  C   UNL     1       1.770  15.916  19.175  0.00  0.00    +0.000 C 
ATOM     20  O   UNL     1       2.646  15.867  18.313  0.00  0.00    +0.000 OA
ENDBRANCH  12  19
ENDBRANCH   1  14
BRANCH   8  21
ATOM     21  C   UNL     1       1.944   8.584  18.525  0.00  0.00    +0.000 C 
ATOM     22  O   UNL     1       2.193   9.098  17.438  0.00  0.00    +0.000 OA
ATOM     23  N   UNL     1       2.207   7.262  18.820  0.00  0.00    +0.000 N 
ATOM     24  H   UNL     1       1.789   6.886  19.666  0.00  0.00    +0.000 HD
BRANCH  23  25
ATOM     25  C   UNL     1       2.785   6.370  17.843  0.00  0.00    +0.000 C 
BRANCH  25  26
ATOM     26  C   UNL     1       4.272   6.173  18.035  0.00  0.00    +0.000 A 
ATOM     27  C   UNL     1       5.196   6.828  17.204  0.00  0.00    +0.000 A 
ATOM     28  C   UNL     1       6.570   6.694  17.424  0.00  0.00    +0.000 A 
ATOM     29  C   UNL     1       7.025   5.910  18.476  0.00  0.00    +0.000 A 
ATOM     30  F   UNL     1       8.342   5.789  18.689  0.00  0.00    +0.000 F 
ATOM     31  C   UNL     1       6.131   5.256  19.315  0.00  0.00    +0.000 A 
ATOM     32  C   UNL     1       4.757   5.388  19.097  0.00  0.00    +0.000 A 
ENDBRANCH  25  26
ENDBRANCH  23  25
ENDBRANCH   8  21
BRANCH   9  33
ATOM     33  O   UNL     1       1.508   7.436  21.146  0.00  0.00    +0.000 OA
ATOM     34  H   UNL     1       0.753   6.862  20.930  0.00  0.00    +0.000 HD
ENDBRANCH   9  33
TORSDOF 6
ENDMDL
MODEL 9
REMARK VINA RESULT:      -7.5      2.063      2.599
REMARK  Name = 
REMARK  9 active torsions:
REMARK  status: ('A' for Active; 'I' for Inactive)
REMARK    1  A    between atoms: C_1  and  N_2
REMARK    2  A    between atoms: N_2  and  C_3
REMARK    3  A    between atoms: C_4  and  C_6
REMARK    4  A    between atoms: N_8  and  C_9
REMARK    5  A    between atoms: N_8  and  C_10
REMARK    6  A    between atoms: C_17  and  C_18
REMARK    7  A    between atoms: N_20  and  C_21
REMARK    8  A    between atoms: C_21  and  C_22
REMARK    9  A    between atoms: C_29  and  O_30
REMARK                            x       y       z     vdW  Elec       q    Type
REMARK                         _______ _______ _______ _____ _____    ______ ____
ROOT
ATOM      1  C   UNL     1      -0.564  12.682  20.277  0.00  0.00    +0.000 C 
ATOM      2  C   UNL     1      -1.677  13.061  21.256  0.00  0.00    +0.000 C 
ATOM      3  C   UNL     1      -1.294  12.772  22.694  0.00  0.00    +0.000 C 
ATOM      4  C   UNL     1      -0.892  11.321  22.866  0.00  0.00    +0.000 C 
ATOM      5  N   UNL     1      -0.066  10.753  21.807  0.00  0.00    +0.000 N 
ATOM      6  C   UNL     1       0.007  11.272  20.533  0.00  0.00    +0.000 A 
ATOM      7  N   UNL     1       0.603  10.672  19.545  0.00  0.00    +0.000 NA
ATOM      8  C   UNL     1       1.161   9.434  19.780  0.00  0.00    +0.000 A 
ATOM      9  C   UNL     1       1.129   8.798  20.967  0.00  0.00    +0.000 A 
ATOM     10  C   UNL     1       0.452   9.503  22.085  0.00  0.00    +0.000 A 
ATOM     11  O   UNL     1       0.374   8.961  23.191  0.00  0.00    +0.000 OA
ENDROOT
BRANCH   1  14
ATOM     12  C   UNL     1       0.457  14.542  19.015  0.00  0.00    +0.000 C 
ATOM     13  O   UNL     1      -0.338  14.391  18.093  0.00  0.00    +0.000 OA
ATOM     14  N   UNL     1       0.492  13.716  20.154  0.00  0.00    +0.000 N 
ATOM     15  C   UNL     1       1.443  13.921  21.242  0.00  0.00    +0.000 C 
BRANCH  12  19
ATOM     16  C   UNL     1       3.636  16.596  18.304  0.00  0.00    +0.000 C 
ATOM     17  N   UNL     1       2.746  15.463  18.475  0.00  0.00    +0.000 N 
ATOM     18  C   UNL     1       3.165  14.162  17.978  0.00  0.00    +0.000 C 
ATOM     19  C   UNL     1       1.450  15.726  18.937  0.00  0.00    +0.000 C 
ATOM     20  O   UNL     1       1.060  16.838  19.287  0.00  0.00    +0.000 OA
ENDBRANCH  12  19
ENDBRANCH   1  14
BRANCH   8  21
ATOM     21  C   UNL     1       1.843   8.746  18.611  0.00  0.00    +0.000 C 
ATOM     22  O   UNL     1       2.122   9.333  17.569  0.00  0.00    +0.000 OA
ATOM     23  N   UNL     1       2.069   7.400  18.811  0.00  0.00    +0.000 N 
ATOM     24  H   UNL     1       1.628   6.973  19.620  0.00  0.00    +0.000 HD
BRANCH  23  25
ATOM     25  C   UNL     1       2.641   6.568  17.779  0.00  0.00    +0.000 C 
BRANCH  25  26
ATOM     26  C   UNL     1       4.108   6.281  18.003  0.00  0.00    +0.000 A 
ATOM     27  C   UNL     1       5.089   6.887  17.201  0.00  0.00    +0.000 A 
ATOM     28  C   UNL     1       6.447   6.669  17.450  0.00  0.00    +0.000 A 
ATOM     29  C   UNL     1       6.829   5.848  18.505  0.00  0.00    +0.000 A 
ATOM     30  F   UNL     1       8.132   5.647  18.747  0.00  0.00    +0.000 F 
ATOM     31  C   UNL     1       5.878   5.241  19.315  0.00  0.00    +0.000 A 
ATOM     32  C   UNL     1       4.520   5.457  19.067  0.00  0.00    +0.000 A 
ENDBRANCH  25  26
ENDBRANCH  23  25
ENDBRANCH   8  21
BRANCH   9  33
ATOM     33  O   UNL     1       1.601   7.526  21.225  0.00  0.00    +0.000 OA
ATOM     34  H   UNL     1       0.929   7.073  21.762  0.00  0.00    +0.000 HD
ENDBRANCH   9  33
TORSDOF 6
ENDMDL
