MODEL 1
REMARK VINA RESULT:      -8.6      0.000      0.000
REMARK  Name = 
REMARK  6 active torsions:
REMARK  status: ('A' for Active; 'I' for Inactive)
REMARK    1  A    between atoms: C_1  and  C_2
REMARK    2  A    between atoms: N_4  and  C_5
REMARK    3  A    between atoms: N_8  and  C_9
REMARK    4  A    between atoms: C_11  and  C_12
REMARK    5  A    between atoms: C_15  and  C_16
REMARK    6  A    between atoms: C_25  and  C_26
REMARK                            x       y       z     vdW  Elec       q    Type
REMARK                         _______ _______ _______ _____ _____    ______ ____
ROOT
ATOM      1  C   UNL     1       3.388   5.213  18.362  0.00  0.00    +0.000 A 
ATOM      2  C   UNL     1       3.073   4.379  19.370  0.00  0.00    +0.000 A 
ATOM      3  C   UNL     1       2.332   4.886  20.552  0.00  0.00    +0.000 A 
ATOM      4  C   UNL     1       2.081   3.914  21.678  0.00  0.00    +0.000 C 
ATOM      5  N   UNL     1       1.901   6.096  20.694  0.00  0.00    +0.000 NA
ATOM      6  N   UNL     1       2.214   6.918  19.646  0.00  0.00    +0.000 N 
ATOM      7  C   UNL     1       1.870   8.262  19.549  0.00  0.00    +0.000 A 
ATOM      8  C   UNL     1       2.425   8.664  18.338  0.00  0.00    +0.000 A 
ATOM      9  C   UNL     1       2.436   9.991  17.674  0.00  0.00    +0.000 C 
ATOM     10  N   UNL     1       3.058   7.617  17.707  0.00  0.00    +0.000 NA
ATOM     11  C   UNL     1       2.923   6.576  18.503  0.00  0.00    +0.000 A 
ENDROOT
BRANCH   7  12
ATOM     12  C   UNL     1       1.067   8.992  20.547  0.00  0.00    +0.000 A 
ATOM     13  C   UNL     1       1.132   8.670  21.910  0.00  0.00    +0.000 A 
ATOM     14  C   UNL     1       0.324   9.312  22.862  0.00  0.00    +0.000 A 
ATOM     15  C   UNL     1      -0.551  10.330  22.448  0.00  0.00    +0.000 A 
ATOM     16  C   UNL     1      -1.497  11.157  23.113  0.00  0.00    +0.000 A 
ATOM     17  C   UNL     1      -2.056  11.993  22.173  0.00  0.00    +0.000 A 
ATOM     18  N   UNL     1      -1.487  11.700  20.962  0.00  0.00    +0.000 N 
ATOM     19  C   UNL     1      -0.581  10.672  21.098  0.00  0.00    +0.000 A 
ATOM     20  C   UNL     1       0.200  10.019  20.133  0.00  0.00    +0.000 A 
ATOM     21  H   UNL     1      -1.702  12.161  20.089  0.00  0.00    +0.000 HD
ENDBRANCH   7  12
BRANCH   1  25
ATOM     22  C   UNL     1       5.618   4.869  15.355  0.00  0.00    +0.000 C 
ATOM     23  C   UNL     1       6.024   3.739  16.292  0.00  0.00    +0.000 C 
ATOM     24  C   UNL     1       4.753   3.467  17.084  0.00  0.00    +0.000 C 
ATOM     25  N   UNL     1       4.128   4.781  17.243  0.00  0.00    +0.000 N 
ATOM     26  C   UNL     1       4.652   5.707  16.216  0.00  0.00    +0.000 C 
BRANCH  22  30
ATOM     27  C   UNL     1       5.013   3.390  11.918  0.00  0.00    +0.000 C 
ATOM     28  C   UNL     1       5.795   3.945  13.075  0.00  0.00    +0.000 C 
ATOM     29  O   UNL     1       7.019   4.003  13.072  0.00  0.00    +0.000 OA
ATOM     30  N   UNL     1       5.012   4.350  14.135  0.00  0.00    +0.000 N 
ATOM     31  H   UNL     1       4.031   4.094  14.155  0.00  0.00    +0.000 HD
ENDBRANCH  22  30
ENDBRANCH   1  25
TORSDOF 3
ENDMDL
MODEL 2
REMARK VINA RESULT:      -8.1      5.571     10.726
REMARK  Name = 
REMARK  6 active torsions:
REMARK  status: ('A' for Active; 'I' for Inactive)
REMARK    1  A    between atoms: C_1  and  C_2
REMARK    2  A    between atoms: N_4  and  C_5
REMARK    3  A    between atoms: N_8  and  C_9
REMARK    4  A    between atoms: C_11  and  C_12
REMARK    5  A    between atoms: C_15  and  C_16
REMARK    6  A    between atoms: C_25  and  C_26
REMARK                            x       y       z     vdW  Elec       q    Type
REMARK                         _______ _______ _______ _____ _____    ______ ____
ROOT
ATOM      1  C   UNL     1       0.402  14.988  19.001  0.00  0.00    +0.000 A 
ATOM      2  C   UNL     1       1.715  15.212  19.198  0.00  0.00    +0.000 A 
ATOM      3  C   UNL     1       2.654  14.071  19.328  0.00  0.00    +0.000 A 
ATOM      4  C   UNL     1       4.097  14.395  19.624  0.00  0.00    +0.000 C 
ATOM      5  N   UNL     1       2.326  12.825  19.221  0.00  0.00    +0.000 NA
ATOM      6  N   UNL     1       0.991  12.625  18.998  0.00  0.00    +0.000 N 
ATOM      7  C   UNL     1       0.380  11.384  18.847  0.00  0.00    +0.000 A 
ATOM      8  C   UNL     1      -0.966  11.692  18.672  0.00  0.00    +0.000 A 
ATOM      9  C   UNL     1      -2.143  10.808  18.488  0.00  0.00    +0.000 C 
ATOM     10  N   UNL     1      -1.173  13.053  18.691  0.00  0.00    +0.000 NA
ATOM     11  C   UNL     1       0.010  13.600  18.887  0.00  0.00    +0.000 A 
ENDROOT
BRANCH   7  12
ATOM     12  C   UNL     1       1.096  10.095  18.852  0.00  0.00    +0.000 A 
ATOM     13  C   UNL     1       1.851   9.678  17.747  0.00  0.00    +0.000 A 
ATOM     14  C   UNL     1       2.484   8.425  17.713  0.00  0.00    +0.000 A 
ATOM     15  C   UNL     1       2.390   7.576  18.828  0.00  0.00    +0.000 A 
ATOM     16  C   UNL     1       2.873   6.273  19.127  0.00  0.00    +0.000 A 
ATOM     17  C   UNL     1       2.469   5.959  20.404  0.00  0.00    +0.000 A 
ATOM     18  N   UNL     1       1.753   7.022  20.889  0.00  0.00    +0.000 N 
ATOM     19  C   UNL     1       1.671   8.013  19.938  0.00  0.00    +0.000 A 
ATOM     20  C   UNL     1       1.011   9.251  19.973  0.00  0.00    +0.000 A 
ATOM     21  H   UNL     1       1.336   7.075  21.809  0.00  0.00    +0.000 HD
ENDBRANCH   7  12
BRANCH   1  25
ATOM     22  C   UNL     1      -2.083  17.740  19.620  0.00  0.00    +0.000 C 
ATOM     23  C   UNL     1      -1.040  18.339  18.685  0.00  0.00    +0.000 C 
ATOM     24  C   UNL     1      -0.508  17.127  17.933  0.00  0.00    +0.000 C 
ATOM     25  N   UNL     1      -0.528  16.042  18.916  0.00  0.00    +0.000 N 
ATOM     26  C   UNL     1      -1.466  16.382  20.008  0.00  0.00    +0.000 C 
BRANCH  22  30
ATOM     27  C   UNL     1      -5.791  17.660  18.837  0.00  0.00    +0.000 C 
ATOM     28  C   UNL     1      -4.548  17.754  19.677  0.00  0.00    +0.000 C 
ATOM     29  O   UNL     1      -4.588  17.954  20.886  0.00  0.00    +0.000 OA
ATOM     30  N   UNL     1      -3.378  17.625  18.960  0.00  0.00    +0.000 N 
ATOM     31  H   UNL     1      -3.408  17.662  17.947  0.00  0.00    +0.000 HD
ENDBRANCH  22  30
ENDBRANCH   1  25
TORSDOF 3
ENDMDL
MODEL 3
REMARK VINA RESULT:      -7.9      5.018     10.660
REMARK  Name = 
REMARK  6 active torsions:
REMARK  status: ('A' for Active; 'I' for Inactive)
REMARK    1  A    between atoms: C_1  and  C_2
REMARK    2  A    between atoms: N_4  and  C_5
REMARK    3  A    between atoms: N_8  and  C_9
REMARK    4  A    between atoms: C_11  and  C_12
REMARK    5  A    between atoms: C_15  and  C_16
REMARK    6  A    between atoms: C_25  and  C_26
REMARK                            x       y       z     vdW  Elec       q    Type
REMARK                         _______ _______ _______ _____ _____    ______ ____
ROOT
ATOM      1  C   UNL     1      -3.038  11.770  18.967  0.00  0.00    +0.000 A 
ATOM      2  C   UNL     1      -3.283  11.373  17.704  0.00  0.00    +0.000 A 
ATOM      3  C   UNL     1      -2.326  10.480  17.005  0.00  0.00    +0.000 A 
ATOM      4  C   UNL     1      -2.625  10.138  15.566  0.00  0.00    +0.000 C 
ATOM      5  N   UNL     1      -1.253   9.987  17.531  0.00  0.00    +0.000 NA
ATOM      6  N   UNL     1      -1.039  10.387  18.822  0.00  0.00    +0.000 N 
ATOM      7  C   UNL     1       0.039  10.003  19.613  0.00  0.00    +0.000 A 
ATOM      8  C   UNL     1      -0.167  10.679  20.812  0.00  0.00    +0.000 A 
ATOM      9  C   UNL     1       0.645  10.713  22.053  0.00  0.00    +0.000 C 
ATOM     10  N   UNL     1      -1.325  11.422  20.773  0.00  0.00    +0.000 NA
ATOM     11  C   UNL     1      -1.838  11.238  19.573  0.00  0.00    +0.000 A 
ENDROOT
BRANCH   7  12
ATOM     12  C   UNL     1       1.090   9.059  19.190  0.00  0.00    +0.000 A 
ATOM     13  C   UNL     1       1.729   9.190  17.949  0.00  0.00    +0.000 A 
ATOM     14  C   UNL     1       2.685   8.261  17.506  0.00  0.00    +0.000 A 
ATOM     15  C   UNL     1       3.040   7.189  18.341  0.00  0.00    +0.000 A 
ATOM     16  C   UNL     1       3.927   6.086  18.215  0.00  0.00    +0.000 A 
ATOM     17  C   UNL     1       3.863   5.362  19.384  0.00  0.00    +0.000 A 
ATOM     18  N   UNL     1       2.964   5.982  20.211  0.00  0.00    +0.000 N 
ATOM     19  C   UNL     1       2.430   7.087  19.589  0.00  0.00    +0.000 A 
ATOM     20  C   UNL     1       1.453   7.992  20.031  0.00  0.00    +0.000 A 
ATOM     21  H   UNL     1       2.718   5.673  21.142  0.00  0.00    +0.000 HD
ENDBRANCH   7  12
BRANCH   1  25
ATOM     22  C   UNL     1      -5.859  13.458  20.790  0.00  0.00    +0.000 C 
ATOM     23  C   UNL     1      -4.617  13.728  21.628  0.00  0.00    +0.000 C 
ATOM     24  C   UNL     1      -3.489  13.681  20.606  0.00  0.00    +0.000 C 
ATOM     25  N   UNL     1      -3.899  12.652  19.649  0.00  0.00    +0.000 N 
ATOM     26  C   UNL     1      -5.360  12.445  19.741  0.00  0.00    +0.000 C 
BRANCH  22  30
ATOM     27  C   UNL     1      -7.739  16.688  20.152  0.00  0.00    +0.000 C 
ATOM     28  C   UNL     1      -7.350  15.421  20.863  0.00  0.00    +0.000 C 
ATOM     29  O   UNL     1      -7.840  15.096  21.938  0.00  0.00    +0.000 OA
ATOM     30  N   UNL     1      -6.382  14.690  20.210  0.00  0.00    +0.000 N 
ATOM     31  H   UNL     1      -5.879  15.109  19.435  0.00  0.00    +0.000 HD
ENDBRANCH  22  30
ENDBRANCH   1  25
TORSDOF 3
ENDMDL
MODEL 4
REMARK VINA RESULT:      -7.9      4.450     10.527
REMARK  Name = 
REMARK  6 active torsions:
REMARK  status: ('A' for Active; 'I' for Inactive)
REMARK    1  A    between atoms: C_1  and  C_2
REMARK    2  A    between atoms: N_4  and  C_5
REMARK    3  A    between atoms: N_8  and  C_9
REMARK    4  A    between atoms: C_11  and  C_12
REMARK    5  A    between atoms: C_15  and  C_16
REMARK    6  A    between atoms: C_25  and  C_26
REMARK                            x       y       z     vdW  Elec       q    Type
REMARK                         _______ _______ _______ _____ _____    ______ ____
ROOT
ATOM      1  C   UNL     1      -1.975  12.011  20.412  0.00  0.00    +0.000 A 
ATOM      2  C   UNL     1      -2.385  11.956  19.131  0.00  0.00    +0.000 A 
ATOM      3  C   UNL     1      -1.685  11.077  18.163  0.00  0.00    +0.000 A 
ATOM      4  C   UNL     1      -2.149  11.123  16.728  0.00  0.00    +0.000 C 
ATOM      5  N   UNL     1      -0.703  10.288  18.453  0.00  0.00    +0.000 NA
ATOM      6  N   UNL     1      -0.321  10.345  19.765  0.00  0.00    +0.000 N 
ATOM      7  C   UNL     1       0.708   9.602  20.335  0.00  0.00    +0.000 A 
ATOM      8  C   UNL     1       0.731  10.022  21.661  0.00  0.00    +0.000 A 
ATOM      9  C   UNL     1       1.618   9.629  22.783  0.00  0.00    +0.000 C 
ATOM     10  N   UNL     1      -0.248  10.959  21.905  0.00  0.00    +0.000 NA
ATOM     11  C   UNL     1      -0.871  11.143  20.758  0.00  0.00    +0.000 A 
ENDROOT
BRANCH   7  12
ATOM     12  C   UNL     1       1.508   8.596  19.614  0.00  0.00    +0.000 A 
ATOM     13  C   UNL     1       2.004   8.847  18.326  0.00  0.00    +0.000 A 
ATOM     14  C   UNL     1       2.712   7.874  17.602  0.00  0.00    +0.000 A 
ATOM     15  C   UNL     1       2.964   6.625  18.193  0.00  0.00    +0.000 A 
ATOM     16  C   UNL     1       3.613   5.436  17.762  0.00  0.00    +0.000 A 
ATOM     17  C   UNL     1       3.560   4.531  18.797  0.00  0.00    +0.000 A 
ATOM     18  N   UNL     1       2.898   5.125  19.839  0.00  0.00    +0.000 N 
ATOM     19  C   UNL     1       2.504   6.396  19.488  0.00  0.00    +0.000 A 
ATOM     20  C   UNL     1       1.771   7.349  20.210  0.00  0.00    +0.000 A 
ATOM     21  H   UNL     1       2.715   4.696  20.735  0.00  0.00    +0.000 HD
ENDBRANCH   7  12
BRANCH   1  25
ATOM     22  C   UNL     1      -3.644  13.587  23.390  0.00  0.00    +0.000 C 
ATOM     23  C   UNL     1      -2.453  14.481  23.073  0.00  0.00    +0.000 C 
ATOM     24  C   UNL     1      -2.246  14.271  21.579  0.00  0.00    +0.000 C 
ATOM     25  N   UNL     1      -2.585  12.865  21.352  0.00  0.00    +0.000 N 
ATOM     26  C   UNL     1      -3.427  12.374  22.463  0.00  0.00    +0.000 C 
BRANCH  22  30
ATOM     27  C   UNL     1      -7.284  14.647  23.356  0.00  0.00    +0.000 C 
ATOM     28  C   UNL     1      -6.089  13.781  23.646  0.00  0.00    +0.000 C 
ATOM     29  O   UNL     1      -6.175  12.740  24.286  0.00  0.00    +0.000 OA
ATOM     30  N   UNL     1      -4.904  14.282  23.154  0.00  0.00    +0.000 N 
ATOM     31  H   UNL     1      -4.871  15.236  22.811  0.00  0.00    +0.000 HD
ENDBRANCH  22  30
ENDBRANCH   1  25
TORSDOF 3
ENDMDL
MODEL 5
REMARK VINA RESULT:      -7.8      4.448     10.439
REMARK  Name = 
REMARK  6 active torsions:
REMARK  status: ('A' for Active; 'I' for Inactive)
REMARK    1  A    between atoms: C_1  and  C_2
REMARK    2  A    between atoms: N_4  and  C_5
REMARK    3  A    between atoms: N_8  and  C_9
REMARK    4  A    between atoms: C_11  and  C_12
REMARK    5  A    between atoms: C_15  and  C_16
REMARK    6  A    between atoms: C_25  and  C_26
REMARK                            x       y       z     vdW  Elec       q    Type
REMARK                         _______ _______ _______ _____ _____    ______ ____
ROOT
ATOM      1  C   UNL     1      -2.413  11.900  19.614  0.00  0.00    +0.000 A 
ATOM      2  C   UNL     1      -2.769  11.632  18.344  0.00  0.00    +0.000 A 
ATOM      3  C   UNL     1      -1.953  10.703  17.522  0.00  0.00    +0.000 A 
ATOM      4  C   UNL     1      -2.367  10.509  16.084  0.00  0.00    +0.000 C 
ATOM      5  N   UNL     1      -0.912  10.063  17.941  0.00  0.00    +0.000 NA
ATOM      6  N   UNL     1      -0.585  10.335  19.241  0.00  0.00    +0.000 N 
ATOM      7  C   UNL     1       0.488   9.782  19.932  0.00  0.00    +0.000 A 
ATOM      8  C   UNL     1       0.423  10.378  21.188  0.00  0.00    +0.000 A 
ATOM      9  C   UNL     1       1.302  10.231  22.373  0.00  0.00    +0.000 C 
ATOM     10  N   UNL     1      -0.649  11.237  21.277  0.00  0.00    +0.000 NA
ATOM     11  C   UNL     1      -1.244  11.201  20.102  0.00  0.00    +0.000 A 
ENDROOT
BRANCH   7  12
ATOM     12  C   UNL     1       1.407   8.772  19.376  0.00  0.00    +0.000 A 
ATOM     13  C   UNL     1       1.948   8.910  18.089  0.00  0.00    +0.000 A 
ATOM     14  C   UNL     1       2.772   7.925  17.522  0.00  0.00    +0.000 A 
ATOM     15  C   UNL     1       3.096   6.783  18.273  0.00  0.00    +0.000 A 
ATOM     16  C   UNL     1       3.863   5.614  18.020  0.00  0.00    +0.000 A 
ATOM     17  C   UNL     1       3.831   4.838  19.157  0.00  0.00    +0.000 A 
ATOM     18  N   UNL     1       3.068   5.491  20.088  0.00  0.00    +0.000 N 
ATOM     19  C   UNL     1       2.588   6.671  19.565  0.00  0.00    +0.000 A 
ATOM     20  C   UNL     1       1.740   7.634  20.132  0.00  0.00    +0.000 A 
ATOM     21  H   UNL     1       2.874   5.158  21.022  0.00  0.00    +0.000 HD
ENDBRANCH   7  12
BRANCH   1  25
ATOM     22  C   UNL     1      -3.843  14.901  21.370  0.00  0.00    +0.000 C 
ATOM     23  C   UNL     1      -5.044  14.142  20.823  0.00  0.00    +0.000 C 
ATOM     24  C   UNL     1      -4.552  12.702  20.766  0.00  0.00    +0.000 C 
ATOM     25  N   UNL     1      -3.135  12.809  20.412  0.00  0.00    +0.000 N 
ATOM     26  C   UNL     1      -2.646  14.166  20.734  0.00  0.00    +0.000 C 
BRANCH  22  30
ATOM     27  C   UNL     1      -3.360  15.764  25.029  0.00  0.00    +0.000 C 
ATOM     28  C   UNL     1      -3.242  15.910  23.538  0.00  0.00    +0.000 C 
ATOM     29  O   UNL     1      -2.692  16.873  23.016  0.00  0.00    +0.000 OA
ATOM     30  N   UNL     1      -3.829  14.886  22.828  0.00  0.00    +0.000 N 
ATOM     31  H   UNL     1      -4.434  14.230  23.309  0.00  0.00    +0.000 HD
ENDBRANCH  22  30
ENDBRANCH   1  25
TORSDOF 3
ENDMDL
MODEL 6
REMARK VINA RESULT:      -7.8      4.861     10.642
REMARK  Name = 
REMARK  6 active torsions:
REMARK  status: ('A' for Active; 'I' for Inactive)
REMARK    1  A    between atoms: C_1  and  C_2
REMARK    2  A    between atoms: N_4  and  C_5
REMARK    3  A    between atoms: N_8  and  C_9
REMARK    4  A    between atoms: C_11  and  C_12
REMARK    5  A    between atoms: C_15  and  C_16
REMARK    6  A    between atoms: C_25  and  C_26
REMARK                            x       y       z     vdW  Elec       q    Type
REMARK                         _______ _______ _______ _____ _____    ______ ____
ROOT
ATOM      1  C   UNL     1      -3.553  11.664  18.714  0.00  0.00    +0.000 A 
ATOM      2  C   UNL     1      -3.754  11.182  17.473  0.00  0.00    +0.000 A 
ATOM      3  C   UNL     1      -2.721  10.334  16.827  0.00  0.00    +0.000 A 
ATOM      4  C   UNL     1      -2.978   9.893  15.408  0.00  0.00    +0.000 C 
ATOM      5  N   UNL     1      -1.616   9.960  17.383  0.00  0.00    +0.000 NA
ATOM      6  N   UNL     1      -1.446  10.444  18.652  0.00  0.00    +0.000 N 
ATOM      7  C   UNL     1      -0.347  10.193  19.467  0.00  0.00    +0.000 A 
ATOM      8  C   UNL     1      -0.619  10.912  20.627  0.00  0.00    +0.000 A 
ATOM      9  C   UNL     1       0.178  11.079  21.867  0.00  0.00    +0.000 C 
ATOM     10  N   UNL     1      -1.833  11.555  20.543  0.00  0.00    +0.000 NA
ATOM     11  C   UNL     1      -2.318  11.265  19.352  0.00  0.00    +0.000 A 
ENDROOT
BRANCH   7  12
ATOM     12  C   UNL     1       0.781   9.318  19.100  0.00  0.00    +0.000 A 
ATOM     13  C   UNL     1       1.502   9.519  17.913  0.00  0.00    +0.000 A 
ATOM     14  C   UNL     1       2.536   8.654  17.520  0.00  0.00    +0.000 A 
ATOM     15  C   UNL     1       2.886   7.577  18.350  0.00  0.00    +0.000 A 
ATOM     16  C   UNL     1       3.838   6.526  18.264  0.00  0.00    +0.000 A 
ATOM     17  C   UNL     1       3.728   5.764  19.405  0.00  0.00    +0.000 A 
ATOM     18  N   UNL     1       2.738   6.312  20.178  0.00  0.00    +0.000 N 
ATOM     19  C   UNL     1       2.193   7.407  19.546  0.00  0.00    +0.000 A 
ATOM     20  C   UNL     1       1.139   8.246  19.937  0.00  0.00    +0.000 A 
ATOM     21  H   UNL     1       2.441   5.964  21.079  0.00  0.00    +0.000 HD
ENDBRANCH   7  12
BRANCH   1  25
ATOM     22  C   UNL     1      -5.359  14.336  20.645  0.00  0.00    +0.000 C 
ATOM     23  C   UNL     1      -6.041  14.290  19.284  0.00  0.00    +0.000 C 
ATOM     24  C   UNL     1      -5.815  12.854  18.828  0.00  0.00    +0.000 C 
ATOM     25  N   UNL     1      -4.489  12.507  19.344  0.00  0.00    +0.000 N 
ATOM     26  C   UNL     1      -4.137  13.416  20.455  0.00  0.00    +0.000 C 
BRANCH  22  30
ATOM     27  C   UNL     1      -7.121  13.799  23.958  0.00  0.00    +0.000 C 
ATOM     28  C   UNL     1      -6.073  14.302  23.005  0.00  0.00    +0.000 C 
ATOM     29  O   UNL     1      -5.154  15.028  23.366  0.00  0.00    +0.000 OA
ATOM     30  N   UNL     1      -6.262  13.896  21.702  0.00  0.00    +0.000 N 
ATOM     31  H   UNL     1      -7.142  13.466  21.437  0.00  0.00    +0.000 HD
ENDBRANCH  22  30
ENDBRANCH   1  25
TORSDOF 3
ENDMDL
MODEL 7
REMARK VINA RESULT:      -7.8      5.958      9.534
REMARK  Name = 
REMARK  6 active torsions:
REMARK  status: ('A' for Active; 'I' for Inactive)
REMARK    1  A    between atoms: C_1  and  C_2
REMARK    2  A    between atoms: N_4  and  C_5
REMARK    3  A    between atoms: N_8  and  C_9
REMARK    4  A    between atoms: C_11  and  C_12
REMARK    5  A    between atoms: C_15  and  C_16
REMARK    6  A    between atoms: C_25  and  C_26
REMARK                            x       y       z     vdW  Elec       q    Type
REMARK                         _______ _______ _______ _____ _____    ______ ____
ROOT
ATOM      1  C   UNL     1      -1.184  11.176  18.244  0.00  0.00    +0.000 A 
ATOM      2  C   UNL     1      -0.398  10.086  18.179  0.00  0.00    +0.000 A 
ATOM      3  C   UNL     1       1.071  10.215  18.351  0.00  0.00    +0.000 A 
ATOM      4  C   UNL     1       1.897   8.964  18.189  0.00  0.00    +0.000 C 
ATOM      5  N   UNL     1       1.692  11.317  18.615  0.00  0.00    +0.000 NA
ATOM      6  N   UNL     1       0.868  12.407  18.699  0.00  0.00    +0.000 N 
ATOM      7  C   UNL     1       1.281  13.707  18.971  0.00  0.00    +0.000 A 
ATOM      8  C   UNL     1       0.105  14.449  18.924  0.00  0.00    +0.000 A 
ATOM      9  C   UNL     1      -0.126  15.904  19.100  0.00  0.00    +0.000 C 
ATOM     10  N   UNL     1      -0.982  13.647  18.662  0.00  0.00    +0.000 NA
ATOM     11  C   UNL     1      -0.509  12.423  18.529  0.00  0.00    +0.000 A 
ENDROOT
BRANCH   7  12
ATOM     12  C   UNL     1       2.673  14.096  19.262  0.00  0.00    +0.000 A 
ATOM     13  C   UNL     1       3.118  14.275  20.579  0.00  0.00    +0.000 A 
ATOM     14  C   UNL     1       4.422  14.709  20.868  0.00  0.00    +0.000 A 
ATOM     15  C   UNL     1       5.321  14.938  19.813  0.00  0.00    +0.000 A 
ATOM     16  C   UNL     1       6.668  15.383  19.736  0.00  0.00    +0.000 A 
ATOM     17  C   UNL     1       7.029  15.399  18.408  0.00  0.00    +0.000 A 
ATOM     18  N   UNL     1       5.947  14.985  17.676  0.00  0.00    +0.000 N 
ATOM     19  C   UNL     1       4.884  14.719  18.508  0.00  0.00    +0.000 A 
ATOM     20  C   UNL     1       3.576  14.313  18.206  0.00  0.00    +0.000 A 
ATOM     21  H   UNL     1       5.923  14.894  16.670  0.00  0.00    +0.000 HD
ENDBRANCH   7  12
BRANCH   1  25
ATOM     22  C   UNL     1      -4.905  11.703  18.145  0.00  0.00    +0.000 C 
ATOM     23  C   UNL     1      -4.495  11.439  16.703  0.00  0.00    +0.000 C 
ATOM     24  C   UNL     1      -3.243  10.585  16.845  0.00  0.00    +0.000 C 
ATOM     25  N   UNL     1      -2.576  11.102  18.042  0.00  0.00    +0.000 N 
ATOM     26  C   UNL     1      -3.553  11.836  18.874  0.00  0.00    +0.000 C 
BRANCH  22  30
ATOM     27  C   UNL     1      -7.474   9.656  20.039  0.00  0.00    +0.000 C 
ATOM     28  C   UNL     1      -6.660  10.862  19.660  0.00  0.00    +0.000 C 
ATOM     29  O   UNL     1      -6.829  11.957  20.185  0.00  0.00    +0.000 OA
ATOM     30  N   UNL     1      -5.742  10.625  18.661  0.00  0.00    +0.000 N 
ATOM     31  H   UNL     1      -5.790   9.759  18.136  0.00  0.00    +0.000 HD
ENDBRANCH  22  30
ENDBRANCH   1  25
TORSDOF 3
ENDMDL
MODEL 8
REMARK VINA RESULT:      -7.8      5.114     10.496
REMARK  Name = 
REMARK  6 active torsions:
REMARK  status: ('A' for Active; 'I' for Inactive)
REMARK    1  A    between atoms: C_1  and  C_2
REMARK    2  A    between atoms: N_4  and  C_5
REMARK    3  A    between atoms: N_8  and  C_9
REMARK    4  A    between atoms: C_11  and  C_12
REMARK    5  A    between atoms: C_15  and  C_16
REMARK    6  A    between atoms: C_25  and  C_26
REMARK                            x       y       z     vdW  Elec       q    Type
REMARK                         _______ _______ _______ _____ _____    ______ ____
ROOT
ATOM      1  C   UNL     1      -3.442  11.676  18.443  0.00  0.00    +0.000 A 
ATOM      2  C   UNL     1      -3.687  11.076  17.263  0.00  0.00    +0.000 A 
ATOM      3  C   UNL     1      -2.689  10.146  16.679  0.00  0.00    +0.000 A 
ATOM      4  C   UNL     1      -2.995   9.570  15.319  0.00  0.00    +0.000 C 
ATOM      5  N   UNL     1      -1.576   9.805  17.241  0.00  0.00    +0.000 NA
ATOM      6  N   UNL     1      -1.361  10.410  18.449  0.00  0.00    +0.000 N 
ATOM      7  C   UNL     1      -0.245  10.218  19.256  0.00  0.00    +0.000 A 
ATOM      8  C   UNL     1      -0.469  11.056  20.344  0.00  0.00    +0.000 A 
ATOM      9  C   UNL     1       0.365  11.330  21.540  0.00  0.00    +0.000 C 
ATOM     10  N   UNL     1      -1.673  11.714  20.228  0.00  0.00    +0.000 NA
ATOM     11  C   UNL     1      -2.197  11.316  19.086  0.00  0.00    +0.000 A 
ENDROOT
BRANCH   7  12
ATOM     12  C   UNL     1       0.855   9.286  18.950  0.00  0.00    +0.000 A 
ATOM     13  C   UNL     1       1.574   9.378  17.750  0.00  0.00    +0.000 A 
ATOM     14  C   UNL     1       2.581   8.457  17.416  0.00  0.00    +0.000 A 
ATOM     15  C   UNL     1       2.905   7.434  18.323  0.00  0.00    +0.000 A 
ATOM     16  C   UNL     1       3.826   6.352  18.309  0.00  0.00    +0.000 A 
ATOM     17  C   UNL     1       3.700   5.679  19.504  0.00  0.00    +0.000 A 
ATOM     18  N   UNL     1       2.731   6.311  20.239  0.00  0.00    +0.000 N 
ATOM     19  C   UNL     1       2.214   7.372  19.531  0.00  0.00    +0.000 A 
ATOM     20  C   UNL     1       1.187   8.269  19.863  0.00  0.00    +0.000 A 
ATOM     21  H   UNL     1       2.430   6.039  21.164  0.00  0.00    +0.000 HD
ENDBRANCH   7  12
BRANCH   1  25
ATOM     22  C   UNL     1      -6.398  13.786  19.415  0.00  0.00    +0.000 C 
ATOM     23  C   UNL     1      -5.832  13.253  20.725  0.00  0.00    +0.000 C 
ATOM     24  C   UNL     1      -4.359  13.035  20.407  0.00  0.00    +0.000 C 
ATOM     25  N   UNL     1      -4.343  12.599  19.009  0.00  0.00    +0.000 N 
ATOM     26  C   UNL     1      -5.601  13.009  18.349  0.00  0.00    +0.000 C 
BRANCH  22  30
ATOM     27  C   UNL     1      -6.645  17.432  18.409  0.00  0.00    +0.000 C 
ATOM     28  C   UNL     1      -6.873  15.949  18.330  0.00  0.00    +0.000 C 
ATOM     29  O   UNL     1      -7.582  15.440  17.469  0.00  0.00    +0.000 OA
ATOM     30  N   UNL     1      -6.240  15.232  19.322  0.00  0.00    +0.000 N 
ATOM     31  H   UNL     1      -5.837  15.725  20.112  0.00  0.00    +0.000 HD
ENDBRANCH  22  30
ENDBRANCH   1  25
TORSDOF 3
ENDMDL
MODEL 9
REMARK VINA RESULT:      -7.8      6.253      8.718
REMARK  Name = 
REMARK  6 active torsions:
REMARK  status: ('A' for Active; 'I' for Inactive)
REMARK    1  A    between atoms: C_1  and  C_2
REMARK    2  A    between atoms: N_4  and  C_5
REMARK    3  A    between atoms: N_8  and  C_9
REMARK    4  A    between atoms: C_11  and  C_12
REMARK    5  A    between atoms: C_15  and  C_16
REMARK    6  A    between atoms: C_25  and  C_26
REMARK                            x       y       z     vdW  Elec       q    Type
REMARK                         _______ _______ _______ _____ _____    ______ ____
ROOT
ATOM      1  C   UNL     1       2.498  14.890  18.798  0.00  0.00    +0.000 A 
ATOM      2  C   UNL     1       1.812  16.046  18.742  0.00  0.00    +0.000 A 
ATOM      3  C   UNL     1       0.332  16.031  18.646  0.00  0.00    +0.000 A 
ATOM      4  C   UNL     1      -0.365  17.362  18.509  0.00  0.00    +0.000 C 
ATOM      5  N   UNL     1      -0.401  14.966  18.656  0.00  0.00    +0.000 NA
ATOM      6  N   UNL     1       0.319  13.804  18.737  0.00  0.00    +0.000 N 
ATOM      7  C   UNL     1      -0.225  12.524  18.765  0.00  0.00    +0.000 A 
ATOM      8  C   UNL     1       0.887  11.689  18.822  0.00  0.00    +0.000 A 
ATOM      9  C   UNL     1       0.983  10.209  18.845  0.00  0.00    +0.000 C 
ATOM     10  N   UNL     1       2.056  12.416  18.854  0.00  0.00    +0.000 NA
ATOM     11  C   UNL     1       1.699  13.683  18.802  0.00  0.00    +0.000 A 
ENDROOT
BRANCH   7  12
ATOM     12  C   UNL     1      -1.669  12.231  18.763  0.00  0.00    +0.000 A 
ATOM     13  C   UNL     1      -2.289  11.631  17.657  0.00  0.00    +0.000 A 
ATOM     14  C   UNL     1      -3.674  11.405  17.616  0.00  0.00    +0.000 A 
ATOM     15  C   UNL     1      -4.462  11.756  18.726  0.00  0.00    +0.000 A 
ATOM     16  C   UNL     1      -5.851  11.690  19.017  0.00  0.00    +0.000 A 
ATOM     17  C   UNL     1      -6.035  12.175  20.292  0.00  0.00    +0.000 A 
ATOM     18  N   UNL     1      -4.809  12.539  20.782  0.00  0.00    +0.000 N 
ATOM     19  C   UNL     1      -3.834  12.314  19.837  0.00  0.00    +0.000 A 
ATOM     20  C   UNL     1      -2.455  12.571  19.878  0.00  0.00    +0.000 A 
ATOM     21  H   UNL     1      -4.638  12.924  21.700  0.00  0.00    +0.000 HD
ENDBRANCH   7  12
BRANCH   1  25
ATOM     22  C   UNL     1       6.192  15.327  18.255  0.00  0.00    +0.000 C 
ATOM     23  C   UNL     1       5.964  15.614  19.732  0.00  0.00    +0.000 C 
ATOM     24  C   UNL     1       4.722  14.797  20.060  0.00  0.00    +0.000 C 
ATOM     25  N   UNL     1       3.906  14.861  18.846  0.00  0.00    +0.000 N 
ATOM     26  C   UNL     1       4.760  15.219  17.694  0.00  0.00    +0.000 C 
BRANCH  22  30
ATOM     27  C   UNL     1       9.020  12.827  17.906  0.00  0.00    +0.000 C 
ATOM     28  C   UNL     1       8.361  14.169  18.056  0.00  0.00    +0.000 C 
ATOM     29  O   UNL     1       9.004  15.205  18.181  0.00  0.00    +0.000 OA
ATOM     30  N   UNL     1       6.984  14.116  18.069  0.00  0.00    +0.000 N 
ATOM     31  H   UNL     1       6.521  13.219  18.162  0.00  0.00    +0.000 HD
ENDBRANCH  22  30
ENDBRANCH   1  25
TORSDOF 3
ENDMDL
