MODEL 1
REMARK VINA RESULT:      -8.5      0.000      0.000
REMARK  Name = 
REMARK  4 active torsions:
REMARK  status: ('A' for Active; 'I' for Inactive)
REMARK    1  A    between atoms: C_5  and  C_7
REMARK    2  A    between atoms: C_20  and  C_21
REMARK    3  A    between atoms: C_24  and  O_25
REMARK    4  A    between atoms: C_26  and  O_27
REMARK                            x       y       z     vdW  Elec       q    Type
REMARK                         _______ _______ _______ _____ _____    ______ ____
ROOT
ATOM      1  O   UNL     1       2.600   9.249  17.181  0.00  0.00    +0.000 OA
ATOM      2  C   UNL     1       2.737   8.304  17.928  0.00  0.00    +0.000 C 
ATOM      3  O   UNL     1       3.685   7.347  17.783  0.00  0.00    +0.000 OA
ATOM      4  N   UNL     1       3.470   6.264  18.667  0.00  0.00    +0.000 N 
ATOM      5  C   UNL     1       4.115   5.057  18.364  0.00  0.00    +0.000 C 
ATOM      6  O   UNL     1       4.049   4.039  19.026  0.00  0.00    +0.000 OA
ATOM      7  C   UNL     1       2.491   6.608  19.595  0.00  0.00    +0.000 C 
ATOM      8  O   UNL     1       2.090   6.027  20.579  0.00  0.00    +0.000 OA
ATOM      9  C   UNL     1       2.009   7.930  19.133  0.00  0.00    +0.000 C 
ATOM     10  C   UNL     1       1.045   8.613  19.764  0.00  0.00    +0.000 C 
ENDROOT
BRANCH   5  11
ATOM     11  C   UNL     1       4.981   5.044  17.144  0.00  0.00    +0.000 A 
ATOM     12  C   UNL     1       6.235   5.659  17.191  0.00  0.00    +0.000 A 
ATOM     13  C   UNL     1       7.068   5.620  16.073  0.00  0.00    +0.000 A 
ATOM     14  C   UNL     1       6.671   4.968  14.892  0.00  0.00    +0.000 A 
ATOM     15  C   UNL     1       7.503   4.917  13.779  0.00  0.00    +0.000 A 
ATOM     16  C   UNL     1       7.107   4.250  12.619  0.00  0.00    +0.000 A 
ATOM     17  C   UNL     1       5.869   3.613  12.575  0.00  0.00    +0.000 A 
ATOM     18  C   UNL     1       5.025   3.643  13.687  0.00  0.00    +0.000 A 
ATOM     19  C   UNL     1       5.414   4.315  14.856  0.00  0.00    +0.000 A 
ATOM     20  C   UNL     1       4.594   4.351  15.987  0.00  0.00    +0.000 A 
ENDBRANCH   5  11
BRANCH  10  21
ATOM     21  C   UNL     1       0.490   9.903  19.336  0.00  0.00    +0.000 A 
ATOM     22  C   UNL     1       0.917  11.100  19.937  0.00  0.00    +0.000 A 
ATOM     23  C   UNL     1       0.361  12.329  19.562  0.00  0.00    +0.000 A 
ATOM     24  C   UNL     1      -0.612  12.358  18.574  0.00  0.00    +0.000 A 
ATOM     25  C   UNL     1      -1.013  11.178  17.951  0.00  0.00    +0.000 A 
ATOM     26  C   UNL     1      -0.471   9.952  18.320  0.00  0.00    +0.000 A 
BRANCH  24  27
ATOM     27  O   UNL     1      -1.213  13.522  18.181  0.00  0.00    +0.000 OA
ATOM     28  H   UNL     1      -1.240  13.533  17.209  0.00  0.00    +0.000 HD
ENDBRANCH  24  27
BRANCH  25  29
ATOM     29  O   UNL     1      -1.962  11.218  16.969  0.00  0.00    +0.000 OA
ATOM     30  H   UNL     1      -2.337  10.314  16.954  0.00  0.00    +0.000 HD
ENDBRANCH  25  29
ENDBRANCH  10  21
TORSDOF 4
ENDMDL
MODEL 2
REMARK VINA RESULT:      -8.5      0.560      1.285
REMARK  Name = 
REMARK  4 active torsions:
REMARK  status: ('A' for Active; 'I' for Inactive)
REMARK    1  A    between atoms: C_5  and  C_7
REMARK    2  A    between atoms: C_20  and  C_21
REMARK    3  A    between atoms: C_24  and  O_25
REMARK    4  A    between atoms: C_26  and  O_27
REMARK                            x       y       z     vdW  Elec       q    Type
REMARK                         _______ _______ _______ _____ _____    ______ ____
ROOT
ATOM      1  O   UNL     1       2.559   9.314  17.266  0.00  0.00    +0.000 OA
ATOM      2  C   UNL     1       2.685   8.365  18.009  0.00  0.00    +0.000 C 
ATOM      3  O   UNL     1       3.632   7.406  17.869  0.00  0.00    +0.000 OA
ATOM      4  N   UNL     1       3.404   6.319  18.744  0.00  0.00    +0.000 N 
ATOM      5  C   UNL     1       4.049   5.112  18.443  0.00  0.00    +0.000 C 
ATOM      6  O   UNL     1       3.974   4.090  19.098  0.00  0.00    +0.000 OA
ATOM      7  C   UNL     1       2.414   6.659  19.663  0.00  0.00    +0.000 C 
ATOM      8  O   UNL     1       2.000   6.073  20.638  0.00  0.00    +0.000 OA
ATOM      9  C   UNL     1       1.941   7.985  19.202  0.00  0.00    +0.000 C 
ATOM     10  C   UNL     1       0.970   8.667  19.826  0.00  0.00    +0.000 C 
ENDROOT
BRANCH   5  11
ATOM     11  C   UNL     1       4.931   5.104  17.234  0.00  0.00    +0.000 A 
ATOM     12  C   UNL     1       6.173   5.741  17.291  0.00  0.00    +0.000 A 
ATOM     13  C   UNL     1       7.020   5.708  16.182  0.00  0.00    +0.000 A 
ATOM     14  C   UNL     1       6.649   5.039  15.002  0.00  0.00    +0.000 A 
ATOM     15  C   UNL     1       7.495   4.994  13.900  0.00  0.00    +0.000 A 
ATOM     16  C   UNL     1       7.125   4.310  12.742  0.00  0.00    +0.000 A 
ATOM     17  C   UNL     1       5.899   3.652  12.688  0.00  0.00    +0.000 A 
ATOM     18  C   UNL     1       5.041   3.675  13.789  0.00  0.00    +0.000 A 
ATOM     19  C   UNL     1       5.404   4.364  14.957  0.00  0.00    +0.000 A 
ATOM     20  C   UNL     1       4.570   4.395  16.077  0.00  0.00    +0.000 A 
ENDBRANCH   5  11
BRANCH  10  21
ATOM     21  C   UNL     1       0.424   9.960  19.398  0.00  0.00    +0.000 A 
ATOM     22  C   UNL     1      -0.707  10.019  18.565  0.00  0.00    +0.000 A 
ATOM     23  C   UNL     1      -1.207  11.249  18.120  0.00  0.00    +0.000 A 
ATOM     24  C   UNL     1      -0.581  12.420  18.522  0.00  0.00    +0.000 A 
ATOM     25  C   UNL     1       0.519  12.367  19.377  0.00  0.00    +0.000 A 
ATOM     26  C   UNL     1       1.026  11.151  19.820  0.00  0.00    +0.000 A 
BRANCH  24  27
ATOM     27  O   UNL     1      -1.004  13.650  18.102  0.00  0.00    +0.000 OA
ATOM     28  H   UNL     1      -0.690  14.311  18.743  0.00  0.00    +0.000 HD
ENDBRANCH  24  27
BRANCH  25  29
ATOM     29  O   UNL     1       1.120  13.526  19.779  0.00  0.00    +0.000 OA
ATOM     30  H   UNL     1       0.587  14.235  19.365  0.00  0.00    +0.000 HD
ENDBRANCH  25  29
ENDBRANCH  10  21
TORSDOF 4
ENDMDL
MODEL 3
REMARK VINA RESULT:      -8.0      1.180      2.087
REMARK  Name = 
REMARK  4 active torsions:
REMARK  status: ('A' for Active; 'I' for Inactive)
REMARK    1  A    between atoms: C_5  and  C_7
REMARK    2  A    between atoms: C_20  and  C_21
REMARK    3  A    between atoms: C_24  and  O_25
REMARK    4  A    between atoms: C_26  and  O_27
REMARK                            x       y       z     vdW  Elec       q    Type
REMARK                         _______ _______ _______ _____ _____    ______ ____
ROOT
ATOM      1  O   UNL     1       2.063   9.499  17.657  0.00  0.00    +0.000 OA
ATOM      2  C   UNL     1       2.075   8.717  18.583  0.00  0.00    +0.000 C 
ATOM      3  O   UNL     1       2.806   7.576  18.609  0.00  0.00    +0.000 OA
ATOM      4  N   UNL     1       2.458   6.761  19.711  0.00  0.00    +0.000 N 
ATOM      5  C   UNL     1       2.832   5.412  19.650  0.00  0.00    +0.000 C 
ATOM      6  O   UNL     1       2.626   4.584  20.516  0.00  0.00    +0.000 OA
ATOM      7  C   UNL     1       1.643   7.479  20.582  0.00  0.00    +0.000 C 
ATOM      8  O   UNL     1       1.218   7.203  21.682  0.00  0.00    +0.000 OA
ATOM      9  C   UNL     1       1.389   8.751  19.867  0.00  0.00    +0.000 C 
ATOM     10  C   UNL     1       0.628   9.730  20.375  0.00  0.00    +0.000 C 
ENDROOT
BRANCH   5  11
ATOM     11  C   UNL     1       3.578   4.975  18.428  0.00  0.00    +0.000 A 
ATOM     12  C   UNL     1       2.985   4.056  17.559  0.00  0.00    +0.000 A 
ATOM     13  C   UNL     1       3.655   3.670  16.397  0.00  0.00    +0.000 A 
ATOM     14  C   UNL     1       4.921   4.193  16.079  0.00  0.00    +0.000 A 
ATOM     15  C   UNL     1       5.586   3.819  14.916  0.00  0.00    +0.000 A 
ATOM     16  C   UNL     1       6.833   4.360  14.600  0.00  0.00    +0.000 A 
ATOM     17  C   UNL     1       7.417   5.296  15.449  0.00  0.00    +0.000 A 
ATOM     18  C   UNL     1       6.759   5.692  16.615  0.00  0.00    +0.000 A 
ATOM     19  C   UNL     1       5.507   5.150  16.943  0.00  0.00    +0.000 A 
ATOM     20  C   UNL     1       4.821   5.538  18.097  0.00  0.00    +0.000 A 
ENDBRANCH   5  11
BRANCH  10  21
ATOM     21  C   UNL     1       0.300  10.993  19.702  0.00  0.00    +0.000 A 
ATOM     22  C   UNL     1       1.124  12.121  19.856  0.00  0.00    +0.000 A 
ATOM     23  C   UNL     1       0.794  13.340  19.251  0.00  0.00    +0.000 A 
ATOM     24  C   UNL     1      -0.357  13.422  18.480  0.00  0.00    +0.000 A 
ATOM     25  C   UNL     1      -1.158  12.297  18.296  0.00  0.00    +0.000 A 
ATOM     26  C   UNL     1      -0.841  11.084  18.897  0.00  0.00    +0.000 A 
BRANCH  24  27
ATOM     27  O   UNL     1      -0.749  14.589  17.885  0.00  0.00    +0.000 OA
ATOM     28  H   UNL     1      -1.587  14.868  18.293  0.00  0.00    +0.000 HD
ENDBRANCH  24  27
BRANCH  25  29
ATOM     29  O   UNL     1      -2.281  12.384  17.524  0.00  0.00    +0.000 OA
ATOM     30  H   UNL     1      -2.945  11.840  17.995  0.00  0.00    +0.000 HD
ENDBRANCH  25  29
ENDBRANCH  10  21
TORSDOF 4
ENDMDL
MODEL 4
REMARK VINA RESULT:      -8.0      2.131      8.859
REMARK  Name = 
REMARK  4 active torsions:
REMARK  status: ('A' for Active; 'I' for Inactive)
REMARK    1  A    between atoms: C_5  and  C_7
REMARK    2  A    between atoms: C_20  and  C_21
REMARK    3  A    between atoms: C_24  and  O_25
REMARK    4  A    between atoms: C_26  and  O_27
REMARK                            x       y       z     vdW  Elec       q    Type
REMARK                         _______ _______ _______ _____ _____    ______ ____
ROOT
ATOM      1  O   UNL     1       3.405   8.234  17.157  0.00  0.00    +0.000 OA
ATOM      2  C   UNL     1       2.764   7.917  18.136  0.00  0.00    +0.000 C 
ATOM      3  O   UNL     1       1.758   8.656  18.662  0.00  0.00    +0.000 OA
ATOM      4  N   UNL     1       1.342   8.151  19.915  0.00  0.00    +0.000 N 
ATOM      5  C   UNL     1       0.608   9.015  20.740  0.00  0.00    +0.000 C 
ATOM      6  O   UNL     1       0.163   8.734  21.836  0.00  0.00    +0.000 OA
ATOM      7  C   UNL     1       1.919   6.902  20.129  0.00  0.00    +0.000 C 
ATOM      8  O   UNL     1       1.746   6.086  21.007  0.00  0.00    +0.000 OA
ATOM      9  C   UNL     1       2.840   6.734  18.982  0.00  0.00    +0.000 C 
ATOM     10  C   UNL     1       3.603   5.644  18.816  0.00  0.00    +0.000 C 
ENDROOT
BRANCH   5  11
ATOM     11  C   UNL     1       0.324  10.381  20.199  0.00  0.00    +0.000 A 
ATOM     12  C   UNL     1      -0.813  10.580  19.412  0.00  0.00    +0.000 A 
ATOM     13  C   UNL     1      -1.109  11.857  18.934  0.00  0.00    +0.000 A 
ATOM     14  C   UNL     1      -0.284  12.956  19.233  0.00  0.00    +0.000 A 
ATOM     15  C   UNL     1      -0.582  14.232  18.768  0.00  0.00    +0.000 A 
ATOM     16  C   UNL     1       0.233  15.318  19.087  0.00  0.00    +0.000 A 
ATOM     17  C   UNL     1       1.353  15.131  19.892  0.00  0.00    +0.000 A 
ATOM     18  C   UNL     1       1.662  13.859  20.379  0.00  0.00    +0.000 A 
ATOM     19  C   UNL     1       0.850  12.760  20.059  0.00  0.00    +0.000 A 
ATOM     20  C   UNL     1       1.130  11.478  20.541  0.00  0.00    +0.000 A 
ENDBRANCH   5  11
BRANCH  10  21
ATOM     21  C   UNL     1       4.568   5.434  17.730  0.00  0.00    +0.000 A 
ATOM     22  C   UNL     1       4.341   4.449  16.752  0.00  0.00    +0.000 A 
ATOM     23  C   UNL     1       5.278   4.215  15.738  0.00  0.00    +0.000 A 
ATOM     24  C   UNL     1       6.435   4.979  15.697  0.00  0.00    +0.000 A 
ATOM     25  C   UNL     1       6.647   5.980  16.643  0.00  0.00    +0.000 A 
ATOM     26  C   UNL     1       5.726   6.216  17.657  0.00  0.00    +0.000 A 
BRANCH  24  27
ATOM     27  O   UNL     1       7.401   4.782  14.749  0.00  0.00    +0.000 OA
ATOM     28  H   UNL     1       7.095   5.190  13.920  0.00  0.00    +0.000 HD
ENDBRANCH  24  27
BRANCH  25  29
ATOM     29  O   UNL     1       7.783   6.736  16.586  0.00  0.00    +0.000 OA
ATOM     30  H   UNL     1       8.363   6.360  17.279  0.00  0.00    +0.000 HD
ENDBRANCH  25  29
ENDBRANCH  10  21
TORSDOF 4
ENDMDL
MODEL 5
REMARK VINA RESULT:      -7.9      2.309      8.761
REMARK  Name = 
REMARK  4 active torsions:
REMARK  status: ('A' for Active; 'I' for Inactive)
REMARK    1  A    between atoms: C_5  and  C_7
REMARK    2  A    between atoms: C_20  and  C_21
REMARK    3  A    between atoms: C_24  and  O_25
REMARK    4  A    between atoms: C_26  and  O_27
REMARK                            x       y       z     vdW  Elec       q    Type
REMARK                         _______ _______ _______ _____ _____    ______ ____
ROOT
ATOM      1  O   UNL     1       3.711   7.970  17.572  0.00  0.00    +0.000 OA
ATOM      2  C   UNL     1       2.942   7.664  18.458  0.00  0.00    +0.000 C 
ATOM      3  O   UNL     1       1.883   8.415  18.845  0.00  0.00    +0.000 OA
ATOM      4  N   UNL     1       1.300   7.919  20.033  0.00  0.00    +0.000 N 
ATOM      5  C   UNL     1       0.473   8.794  20.751  0.00  0.00    +0.000 C 
ATOM      6  O   UNL     1      -0.116   8.522  21.779  0.00  0.00    +0.000 OA
ATOM      7  C   UNL     1       1.830   6.665  20.325  0.00  0.00    +0.000 C 
ATOM      8  O   UNL     1       1.534   5.855  21.174  0.00  0.00    +0.000 OA
ATOM      9  C   UNL     1       2.894   6.483  19.310  0.00  0.00    +0.000 C 
ATOM     10  C   UNL     1       3.660   5.385  19.250  0.00  0.00    +0.000 C 
ENDROOT
BRANCH   5  11
ATOM     11  C   UNL     1       0.277  10.160  20.174  0.00  0.00    +0.000 A 
ATOM     12  C   UNL     1      -0.775  10.380  19.281  0.00  0.00    +0.000 A 
ATOM     13  C   UNL     1      -0.991  11.658  18.766  0.00  0.00    +0.000 A 
ATOM     14  C   UNL     1      -0.169  12.739  19.131  0.00  0.00    +0.000 A 
ATOM     15  C   UNL     1      -0.388  14.017  18.628  0.00  0.00    +0.000 A 
ATOM     16  C   UNL     1       0.422  15.085  19.013  0.00  0.00    +0.000 A 
ATOM     17  C   UNL     1       1.456  14.878  19.922  0.00  0.00    +0.000 A 
ATOM     18  C   UNL     1       1.685  13.605  20.447  0.00  0.00    +0.000 A 
ATOM     19  C   UNL     1       0.877  12.523  20.062  0.00  0.00    +0.000 A 
ATOM     20  C   UNL     1       1.076  11.241  20.580  0.00  0.00    +0.000 A 
ENDBRANCH   5  11
BRANCH  10  21
ATOM     21  C   UNL     1       4.758   5.160  18.302  0.00  0.00    +0.000 A 
ATOM     22  C   UNL     1       6.088   5.427  18.671  0.00  0.00    +0.000 A 
ATOM     23  C   UNL     1       7.135   5.255  17.757  0.00  0.00    +0.000 A 
ATOM     24  C   UNL     1       6.848   4.801  16.477  0.00  0.00    +0.000 A 
ATOM     25  C   UNL     1       5.535   4.502  16.119  0.00  0.00    +0.000 A 
ATOM     26  C   UNL     1       4.488   4.675  17.017  0.00  0.00    +0.000 A 
BRANCH  24  27
ATOM     27  O   UNL     1       7.821   4.637  15.531  0.00  0.00    +0.000 OA
ATOM     28  H   UNL     1       7.387   4.567  14.663  0.00  0.00    +0.000 HD
ENDBRANCH  24  27
BRANCH  25  29
ATOM     29  O   UNL     1       5.264   4.042  14.861  0.00  0.00    +0.000 OA
ATOM     30  H   UNL     1       5.085   4.850  14.339  0.00  0.00    +0.000 HD
ENDBRANCH  25  29
ENDBRANCH  10  21
TORSDOF 4
ENDMDL
MODEL 6
REMARK VINA RESULT:      -7.9      3.496      9.964
REMARK  Name = 
REMARK  4 active torsions:
REMARK  status: ('A' for Active; 'I' for Inactive)
REMARK    1  A    between atoms: C_5  and  C_7
REMARK    2  A    between atoms: C_20  and  C_21
REMARK    3  A    between atoms: C_24  and  O_25
REMARK    4  A    between atoms: C_26  and  O_27
REMARK                            x       y       z     vdW  Elec       q    Type
REMARK                         _______ _______ _______ _____ _____    ______ ____
ROOT
ATOM      1  O   UNL     1       1.110   7.236  20.696  0.00  0.00    +0.000 OA
ATOM      2  C   UNL     1       1.297   8.236  20.037  0.00  0.00    +0.000 C 
ATOM      3  O   UNL     1       0.837   9.466  20.368  0.00  0.00    +0.000 OA
ATOM      4  N   UNL     1       1.019  10.390  19.314  0.00  0.00    +0.000 N 
ATOM      5  C   UNL     1       0.256  11.565  19.356  0.00  0.00    +0.000 C 
ATOM      6  O   UNL     1       0.303  12.466  18.541  0.00  0.00    +0.000 OA
ATOM      7  C   UNL     1       1.838   9.828  18.337  0.00  0.00    +0.000 C 
ATOM      8  O   UNL     1       2.327  10.307  17.339  0.00  0.00    +0.000 OA
ATOM      9  C   UNL     1       2.030   8.433  18.793  0.00  0.00    +0.000 C 
ATOM     10  C   UNL     1       2.766   7.542  18.115  0.00  0.00    +0.000 C 
ENDROOT
BRANCH   5  11
ATOM     11  C   UNL     1      -0.663  11.728  20.526  0.00  0.00    +0.000 A 
ATOM     12  C   UNL     1      -0.181  11.476  21.813  0.00  0.00    +0.000 A 
ATOM     13  C   UNL     1      -1.016  11.662  22.915  0.00  0.00    +0.000 A 
ATOM     14  C   UNL     1      -2.342  12.103  22.757  0.00  0.00    +0.000 A 
ATOM     15  C   UNL     1      -3.174  12.301  23.853  0.00  0.00    +0.000 A 
ATOM     16  C   UNL     1      -4.481  12.758  23.686  0.00  0.00    +0.000 A 
ATOM     17  C   UNL     1      -4.960  13.036  22.408  0.00  0.00    +0.000 A 
ATOM     18  C   UNL     1      -4.136  12.856  21.296  0.00  0.00    +0.000 A 
ATOM     19  C   UNL     1      -2.820  12.391  21.455  0.00  0.00    +0.000 A 
ATOM     20  C   UNL     1      -1.970  12.213  20.360  0.00  0.00    +0.000 A 
ENDBRANCH   5  11
BRANCH  10  21
ATOM     21  C   UNL     1       2.961   6.135  18.486  0.00  0.00    +0.000 A 
ATOM     22  C   UNL     1       4.069   5.745  19.260  0.00  0.00    +0.000 A 
ATOM     23  C   UNL     1       4.282   4.400  19.581  0.00  0.00    +0.000 A 
ATOM     24  C   UNL     1       3.377   3.446  19.138  0.00  0.00    +0.000 A 
ATOM     25  C   UNL     1       2.259   3.832  18.400  0.00  0.00    +0.000 A 
ATOM     26  C   UNL     1       2.041   5.165  18.072  0.00  0.00    +0.000 A 
BRANCH  24  27
ATOM     27  O   UNL     1       3.543   2.114  19.395  0.00  0.00    +0.000 OA
ATOM     28  H   UNL     1       2.669   1.735  19.595  0.00  0.00    +0.000 HD
ENDBRANCH  24  27
BRANCH  25  29
ATOM     29  O   UNL     1       1.366   2.888  17.980  0.00  0.00    +0.000 OA
ATOM     30  H   UNL     1       0.601   3.403  17.653  0.00  0.00    +0.000 HD
ENDBRANCH  25  29
ENDBRANCH  10  21
TORSDOF 4
ENDMDL
MODEL 7
REMARK VINA RESULT:      -7.7      3.317     10.022
REMARK  Name = 
REMARK  4 active torsions:
REMARK  status: ('A' for Active; 'I' for Inactive)
REMARK    1  A    between atoms: C_5  and  C_7
REMARK    2  A    between atoms: C_20  and  C_21
REMARK    3  A    between atoms: C_24  and  O_25
REMARK    4  A    between atoms: C_26  and  O_27
REMARK                            x       y       z     vdW  Elec       q    Type
REMARK                         _______ _______ _______ _____ _____    ______ ____
ROOT
ATOM      1  O   UNL     1       1.219   7.271  20.526  0.00  0.00    +0.000 OA
ATOM      2  C   UNL     1       1.384   8.286  19.883  0.00  0.00    +0.000 C 
ATOM      3  O   UNL     1       0.912   9.504  20.244  0.00  0.00    +0.000 OA
ATOM      4  N   UNL     1       1.067  10.450  19.205  0.00  0.00    +0.000 N 
ATOM      5  C   UNL     1       0.289  11.613  19.281  0.00  0.00    +0.000 C 
ATOM      6  O   UNL     1       0.312  12.530  18.482  0.00  0.00    +0.000 OA
ATOM      7  C   UNL     1       1.878   9.917  18.206  0.00  0.00    +0.000 C 
ATOM      8  O   UNL     1       2.346  10.421  17.210  0.00  0.00    +0.000 OA
ATOM      9  C   UNL     1       2.095   8.516  18.633  0.00  0.00    +0.000 C 
ATOM     10  C   UNL     1       2.833   7.647  17.927  0.00  0.00    +0.000 C 
ENDROOT
BRANCH   5  11
ATOM     11  C   UNL     1      -0.614  11.742  20.467  0.00  0.00    +0.000 A 
ATOM     12  C   UNL     1      -0.118  11.441  21.738  0.00  0.00    +0.000 A 
ATOM     13  C   UNL     1      -0.939  11.595  22.856  0.00  0.00    +0.000 A 
ATOM     14  C   UNL     1      -2.263  12.052  22.730  0.00  0.00    +0.000 A 
ATOM     15  C   UNL     1      -3.080  12.217  23.843  0.00  0.00    +0.000 A 
ATOM     16  C   UNL     1      -4.385  12.690  23.708  0.00  0.00    +0.000 A 
ATOM     17  C   UNL     1      -4.877  13.016  22.447  0.00  0.00    +0.000 A 
ATOM     18  C   UNL     1      -4.068  12.869  21.319  0.00  0.00    +0.000 A 
ATOM     19  C   UNL     1      -2.755  12.389  21.445  0.00  0.00    +0.000 A 
ATOM     20  C   UNL     1      -1.919  12.243  20.335  0.00  0.00    +0.000 A 
ENDBRANCH   5  11
BRANCH  10  21
ATOM     21  C   UNL     1       3.051   6.237  18.268  0.00  0.00    +0.000 A 
ATOM     22  C   UNL     1       2.022   5.293  18.103  0.00  0.00    +0.000 A 
ATOM     23  C   UNL     1       2.211   3.954  18.466  0.00  0.00    +0.000 A 
ATOM     24  C   UNL     1       3.438   3.559  18.982  0.00  0.00    +0.000 A 
ATOM     25  C   UNL     1       4.471   4.485  19.115  0.00  0.00    +0.000 A 
ATOM     26  C   UNL     1       4.292   5.817  18.762  0.00  0.00    +0.000 A 
BRANCH  24  27
ATOM     27  O   UNL     1       3.677   2.273  19.380  0.00  0.00    +0.000 OA
ATOM     28  H   UNL     1       4.372   2.294  20.061  0.00  0.00    +0.000 HD
ENDBRANCH  24  27
BRANCH  25  29
ATOM     29  O   UNL     1       5.679   4.084  19.611  0.00  0.00    +0.000 OA
ATOM     30  H   UNL     1       5.495   3.224  20.040  0.00  0.00    +0.000 HD
ENDBRANCH  25  29
ENDBRANCH  10  21
TORSDOF 4
ENDMDL
MODEL 8
REMARK VINA RESULT:      -7.7      1.839      3.046
REMARK  Name = 
REMARK  4 active torsions:
REMARK  status: ('A' for Active; 'I' for Inactive)
REMARK    1  A    between atoms: C_5  and  C_7
REMARK    2  A    between atoms: C_20  and  C_21
REMARK    3  A    between atoms: C_24  and  O_25
REMARK    4  A    between atoms: C_26  and  O_27
REMARK                            x       y       z     vdW  Elec       q    Type
REMARK                         _______ _______ _______ _____ _____    ______ ____
ROOT
ATOM      1  O   UNL     1       1.854   9.801  18.110  0.00  0.00    +0.000 OA
ATOM      2  C   UNL     1       1.740   9.036  19.044  0.00  0.00    +0.000 C 
ATOM      3  O   UNL     1       2.409   7.862  19.156  0.00  0.00    +0.000 OA
ATOM      4  N   UNL     1       1.918   7.085  20.230  0.00  0.00    +0.000 N 
ATOM      5  C   UNL     1       2.231   5.719  20.223  0.00  0.00    +0.000 C 
ATOM      6  O   UNL     1       1.902   4.917  21.076  0.00  0.00    +0.000 OA
ATOM      7  C   UNL     1       1.058   7.855  21.009  0.00  0.00    +0.000 C 
ATOM      8  O   UNL     1       0.517   7.619  22.065  0.00  0.00    +0.000 OA
ATOM      9  C   UNL     1       0.936   9.125  20.255  0.00  0.00    +0.000 C 
ATOM     10  C   UNL     1       0.178  10.148  20.673  0.00  0.00    +0.000 C 
ENDROOT
BRANCH   5  11
ATOM     11  C   UNL     1       3.069   5.226  19.085  0.00  0.00    +0.000 A 
ATOM     12  C   UNL     1       2.444   4.635  17.984  0.00  0.00    +0.000 A 
ATOM     13  C   UNL     1       3.212   4.207  16.900  0.00  0.00    +0.000 A 
ATOM     14  C   UNL     1       4.609   4.360  16.892  0.00  0.00    +0.000 A 
ATOM     15  C   UNL     1       5.376   3.944  15.809  0.00  0.00    +0.000 A 
ATOM     16  C   UNL     1       6.760   4.120  15.803  0.00  0.00    +0.000 A 
ATOM     17  C   UNL     1       7.386   4.731  16.887  0.00  0.00    +0.000 A 
ATOM     18  C   UNL     1       6.631   5.166  17.978  0.00  0.00    +0.000 A 
ATOM     19  C   UNL     1       5.239   4.989  17.994  0.00  0.00    +0.000 A 
ATOM     20  C   UNL     1       4.458   5.425  19.068  0.00  0.00    +0.000 A 
ENDBRANCH   5  11
BRANCH  10  21
ATOM     21  C   UNL     1      -0.023  11.412  19.956  0.00  0.00    +0.000 A 
ATOM     22  C   UNL     1      -1.020  11.525  18.971  0.00  0.00    +0.000 A 
ATOM     23  C   UNL     1      -1.189  12.716  18.254  0.00  0.00    +0.000 A 
ATOM     24  C   UNL     1      -0.366  13.797  18.534  0.00  0.00    +0.000 A 
ATOM     25  C   UNL     1       0.601  13.700  19.533  0.00  0.00    +0.000 A 
ATOM     26  C   UNL     1       0.780  12.521  20.247  0.00  0.00    +0.000 A 
BRANCH  24  27
ATOM     27  O   UNL     1      -0.462  14.978  17.851  0.00  0.00    +0.000 OA
ATOM     28  H   UNL     1       0.180  14.955  17.120  0.00  0.00    +0.000 HD
ENDBRANCH  24  27
BRANCH  25  29
ATOM     29  O   UNL     1       1.397  14.774  19.812  0.00  0.00    +0.000 OA
ATOM     30  H   UNL     1       2.289  14.391  19.942  0.00  0.00    +0.000 HD
ENDBRANCH  25  29
ENDBRANCH  10  21
TORSDOF 4
ENDMDL
MODEL 9
REMARK VINA RESULT:      -7.7      3.104      8.845
REMARK  Name = 
REMARK  4 active torsions:
REMARK  status: ('A' for Active; 'I' for Inactive)
REMARK    1  A    between atoms: C_5  and  C_7
REMARK    2  A    between atoms: C_20  and  C_21
REMARK    3  A    between atoms: C_24  and  O_25
REMARK    4  A    between atoms: C_26  and  O_27
REMARK                            x       y       z     vdW  Elec       q    Type
REMARK                         _______ _______ _______ _____ _____    ______ ____
ROOT
ATOM      1  O   UNL     1       2.816   8.453  18.121  0.00  0.00    +0.000 OA
ATOM      2  C   UNL     1       2.081   8.673  19.060  0.00  0.00    +0.000 C 
ATOM      3  O   UNL     1       1.494   9.870  19.306  0.00  0.00    +0.000 OA
ATOM      4  N   UNL     1       0.873   9.892  20.576  0.00  0.00    +0.000 N 
ATOM      5  C   UNL     1       0.579  11.150  21.119  0.00  0.00    +0.000 C 
ATOM      6  O   UNL     1       0.034  11.346  22.188  0.00  0.00    +0.000 OA
ATOM      7  C   UNL     1       0.836   8.603  21.100  0.00  0.00    +0.000 C 
ATOM      8  O   UNL     1       0.303   8.164  22.094  0.00  0.00    +0.000 OA
ATOM      9  C   UNL     1       1.611   7.800  20.126  0.00  0.00    +0.000 C 
ATOM     10  C   UNL     1       1.819   6.484  20.272  0.00  0.00    +0.000 C 
ENDROOT
BRANCH   5  11
ATOM     11  C   UNL     1       0.938  12.342  20.289  0.00  0.00    +0.000 A 
ATOM     12  C   UNL     1      -0.029  12.908  19.453  0.00  0.00    +0.000 A 
ATOM     13  C   UNL     1       0.282  14.043  18.703  0.00  0.00    +0.000 A 
ATOM     14  C   UNL     1       1.555  14.635  18.773  0.00  0.00    +0.000 A 
ATOM     15  C   UNL     1       1.865  15.773  18.035  0.00  0.00    +0.000 A 
ATOM     16  C   UNL     1       3.125  16.364  18.127  0.00  0.00    +0.000 A 
ATOM     17  C   UNL     1       4.085  15.820  18.977  0.00  0.00    +0.000 A 
ATOM     18  C   UNL     1       3.789  14.685  19.735  0.00  0.00    +0.000 A 
ATOM     19  C   UNL     1       2.524  14.082  19.645  0.00  0.00    +0.000 A 
ATOM     20  C   UNL     1       2.197  12.952  20.400  0.00  0.00    +0.000 A 
ENDBRANCH   5  11
BRANCH  10  21
ATOM     21  C   UNL     1       2.613   5.639  19.372  0.00  0.00    +0.000 A 
ATOM     22  C   UNL     1       2.015   5.015  18.263  0.00  0.00    +0.000 A 
ATOM     23  C   UNL     1       2.758   4.175  17.425  0.00  0.00    +0.000 A 
ATOM     24  C   UNL     1       4.105   3.972  17.692  0.00  0.00    +0.000 A 
ATOM     25  C   UNL     1       4.709   4.616  18.770  0.00  0.00    +0.000 A 
ATOM     26  C   UNL     1       3.979   5.448  19.610  0.00  0.00    +0.000 A 
BRANCH  24  27
ATOM     27  O   UNL     1       4.879   3.143  16.928  0.00  0.00    +0.000 OA
ATOM     28  H   UNL     1       4.305   2.445  16.567  0.00  0.00    +0.000 HD
ENDBRANCH  24  27
BRANCH  25  29
ATOM     29  O   UNL     1       6.038   4.421  19.016  0.00  0.00    +0.000 OA
ATOM     30  H   UNL     1       6.495   4.944  18.326  0.00  0.00    +0.000 HD
ENDBRANCH  25  29
ENDBRANCH  10  21
TORSDOF 4
ENDMDL
