MODEL 1
REMARK VINA RESULT:      -8.1      0.000      0.000
REMARK  Name = 
REMARK  8 active torsions:
REMARK  status: ('A' for Active; 'I' for Inactive)
REMARK    1  A    between atoms: C_2  and  O_3
REMARK    2  A    between atoms: C_2  and  C_4
REMARK    3  A    between atoms: N_8  and  C_9
REMARK    4  A    between atoms: C_9  and  C_10
REMARK    5  A    between atoms: C_10  and  O_11
REMARK    6  A    between atoms: O_11  and  C_12
REMARK    7  A    between atoms: C_13  and  C_14
REMARK    8  A    between atoms: C_13  and  C_22
REMARK                            x       y       z     vdW  Elec       q    Type
REMARK                         _______ _______ _______ _____ _____    ______ ____
ROOT
ATOM      1  C   UNL     1       2.210   6.940  18.203  0.00  0.00    +0.000 C 
ATOM      2  C   UNL     1       2.889   5.796  18.377  0.00  0.00    +0.000 C 
ENDROOT
BRANCH   2   3
ATOM      3  C   UNL     1       4.101   5.576  17.569  0.00  0.00    +0.000 A 
ATOM      4  C   UNL     1       5.204   6.434  17.699  0.00  0.00    +0.000 A 
ATOM      5  C   UNL     1       6.373   6.181  16.976  0.00  0.00    +0.000 A 
ATOM      6  C   UNL     1       6.437   5.073  16.135  0.00  0.00    +0.000 A 
ATOM      7  F   UNL     1       7.565   4.829  15.455  0.00  0.00    +0.000 F 
ATOM      8  C   UNL     1       5.358   4.212  15.996  0.00  0.00    +0.000 A 
ATOM      9  C   UNL     1       4.196   4.470  16.714  0.00  0.00    +0.000 A 
ATOM     10  F   UNL     1       3.160   3.625  16.585  0.00  0.00    +0.000 F 
ENDBRANCH   2   3
BRANCH   2  11
ATOM     11  C   UNL     1       2.378   4.835  19.374  0.00  0.00    +0.000 A 
ATOM     12  C   UNL     1       2.916   4.799  20.665  0.00  0.00    +0.000 A 
ATOM     13  C   UNL     1       2.419   3.891  21.604  0.00  0.00    +0.000 A 
ATOM     14  C   UNL     1       1.388   3.027  21.253  0.00  0.00    +0.000 A 
ATOM     15  F   UNL     1       0.917   2.161  22.157  0.00  0.00    +0.000 F 
ATOM     16  C   UNL     1       0.840   3.048  19.976  0.00  0.00    +0.000 A 
ATOM     17  C   UNL     1       1.340   3.951  19.045  0.00  0.00    +0.000 A 
ATOM     18  F   UNL     1       0.803   3.965  17.816  0.00  0.00    +0.000 F 
ENDBRANCH   2  11
BRANCH   1  19
ATOM     19  O   UNL     1       2.574   7.885  17.274  0.00  0.00    +0.000 OA
BRANCH  19  20
ATOM     20  C   UNL     1       2.533   9.214  17.794  0.00  0.00    +0.000 C 
BRANCH  20  21
ATOM     21  C   UNL     1       1.333   9.311  18.752  0.00  0.00    +0.000 C 
BRANCH  21  26
ATOM     22  C   UNL     1      -1.880  11.307  18.921  0.00  0.00    +0.000 C 
ATOM     23  C   UNL     1      -1.314  12.711  19.152  0.00  0.00    +0.000 C 
ATOM     24  C   UNL     1       0.089  12.890  18.582  0.00  0.00    +0.000 C 
ATOM     25  C   UNL     1       1.007  11.720  18.922  0.00  0.00    +0.000 C 
ATOM     26  N   UNL     1       0.408  10.441  18.486  0.00  0.00    +0.000 NA
ATOM     27  C   UNL     1      -0.855  10.214  19.233  0.00  0.00    +0.000 C 
BRANCH  22  29
ATOM     28  O   UNL     1      -3.562  11.648  17.224  0.00  0.00    +0.000 OA
ATOM     29  C   UNL     1      -2.489  11.149  17.538  0.00  0.00    +0.000 C 
BRANCH  29  30
ATOM     30  O   UNL     1      -1.741  10.445  16.660  0.00  0.00    +0.000 OA
ATOM     31  H   UNL     1      -1.245  11.031  16.039  0.00  0.00    +0.000 HD
ENDBRANCH  29  30
ENDBRANCH  22  29
ENDBRANCH  21  26
ENDBRANCH  20  21
ENDBRANCH  19  20
ENDBRANCH   1  19
TORSDOF 8
ENDMDL
MODEL 2
REMARK VINA RESULT:      -8.1      2.412      5.160
REMARK  Name = 
REMARK  8 active torsions:
REMARK  status: ('A' for Active; 'I' for Inactive)
REMARK    1  A    between atoms: C_2  and  O_3
REMARK    2  A    between atoms: C_2  and  C_4
REMARK    3  A    between atoms: N_8  and  C_9
REMARK    4  A    between atoms: C_9  and  C_10
REMARK    5  A    between atoms: C_10  and  O_11
REMARK    6  A    between atoms: O_11  and  C_12
REMARK    7  A    between atoms: C_13  and  C_14
REMARK    8  A    between atoms: C_13  and  C_22
REMARK                            x       y       z     vdW  Elec       q    Type
REMARK                         _______ _______ _______ _____ _____    ______ ____
ROOT
ATOM      1  C   UNL     1       3.051   7.322  18.091  0.00  0.00    +0.000 C 
ATOM      2  C   UNL     1       3.494   6.059  18.177  0.00  0.00    +0.000 C 
ENDROOT
BRANCH   2   3
ATOM      3  C   UNL     1       2.775   5.129  19.066  0.00  0.00    +0.000 A 
ATOM      4  C   UNL     1       3.057   5.101  20.440  0.00  0.00    +0.000 A 
ATOM      5  C   UNL     1       2.327   4.263  21.285  0.00  0.00    +0.000 A 
ATOM      6  C   UNL     1       1.315   3.464  20.757  0.00  0.00    +0.000 A 
ATOM      7  F   UNL     1       0.610   2.672  21.575  0.00  0.00    +0.000 F 
ATOM      8  C   UNL     1       1.019   3.481  19.402  0.00  0.00    +0.000 A 
ATOM      9  C   UNL     1       1.752   4.314  18.565  0.00  0.00    +0.000 A 
ATOM     10  F   UNL     1       1.452   4.335  17.256  0.00  0.00    +0.000 F 
ENDBRANCH   2   3
BRANCH   2  11
ATOM     11  C   UNL     1       4.671   5.684  17.370  0.00  0.00    +0.000 A 
ATOM     12  C   UNL     1       4.559   5.527  15.984  0.00  0.00    +0.000 A 
ATOM     13  C   UNL     1       5.682   5.180  15.228  0.00  0.00    +0.000 A 
ATOM     14  C   UNL     1       6.909   4.993  15.854  0.00  0.00    +0.000 A 
ATOM     15  F   UNL     1       7.979   4.662  15.125  0.00  0.00    +0.000 F 
ATOM     16  C   UNL     1       7.040   5.145  17.230  0.00  0.00    +0.000 A 
ATOM     17  C   UNL     1       5.920   5.487  17.978  0.00  0.00    +0.000 A 
ATOM     18  F   UNL     1       6.057   5.634  19.304  0.00  0.00    +0.000 F 
ENDBRANCH   2  11
BRANCH   1  19
ATOM     19  O   UNL     1       1.989   7.789  18.828  0.00  0.00    +0.000 OA
BRANCH  19  20
ATOM     20  C   UNL     1       1.787   9.195  18.676  0.00  0.00    +0.000 C 
BRANCH  20  21
ATOM     21  C   UNL     1       0.347   9.516  19.112  0.00  0.00    +0.000 C 
BRANCH  21  26
ATOM     22  C   UNL     1      -0.980  11.917  21.722  0.00  0.00    +0.000 C 
ATOM     23  C   UNL     1      -1.112  10.968  22.918  0.00  0.00    +0.000 C 
ATOM     24  C   UNL     1      -0.136   9.799  22.863  0.00  0.00    +0.000 C 
ATOM     25  C   UNL     1      -0.083   9.152  21.482  0.00  0.00    +0.000 C 
ATOM     26  N   UNL     1       0.224  10.158  20.444  0.00  0.00    +0.000 NA
ATOM     27  C   UNL     1      -0.871  11.159  20.397  0.00  0.00    +0.000 C 
BRANCH  22  29
ATOM     28  O   UNL     1       0.061  13.877  22.670  0.00  0.00    +0.000 OA
ATOM     29  C   UNL     1       0.141  12.924  21.905  0.00  0.00    +0.000 C 
BRANCH  29  30
ATOM     30  O   UNL     1       1.258  12.676  21.186  0.00  0.00    +0.000 OA
ATOM     31  H   UNL     1       1.154  11.894  20.592  0.00  0.00    +0.000 HD
ENDBRANCH  29  30
ENDBRANCH  22  29
ENDBRANCH  21  26
ENDBRANCH  20  21
ENDBRANCH  19  20
ENDBRANCH   1  19
TORSDOF 8
ENDMDL
MODEL 3
REMARK VINA RESULT:      -8.1      2.023      4.888
REMARK  Name = 
REMARK  8 active torsions:
REMARK  status: ('A' for Active; 'I' for Inactive)
REMARK    1  A    between atoms: C_2  and  O_3
REMARK    2  A    between atoms: C_2  and  C_4
REMARK    3  A    between atoms: N_8  and  C_9
REMARK    4  A    between atoms: C_9  and  C_10
REMARK    5  A    between atoms: C_10  and  O_11
REMARK    6  A    between atoms: O_11  and  C_12
REMARK    7  A    between atoms: C_13  and  C_14
REMARK    8  A    between atoms: C_13  and  C_22
REMARK                            x       y       z     vdW  Elec       q    Type
REMARK                         _______ _______ _______ _____ _____    ______ ____
ROOT
ATOM      1  C   UNL     1       2.645   7.076  18.046  0.00  0.00    +0.000 C 
ATOM      2  C   UNL     1       3.213   5.871  18.205  0.00  0.00    +0.000 C 
ENDROOT
BRANCH   2   3
ATOM      3  C   UNL     1       2.598   4.933  19.160  0.00  0.00    +0.000 A 
ATOM      4  C   UNL     1       3.087   4.834  20.471  0.00  0.00    +0.000 A 
ATOM      5  C   UNL     1       2.458   3.989  21.388  0.00  0.00    +0.000 A 
ATOM      6  C   UNL     1       1.342   3.254  20.995  0.00  0.00    +0.000 A 
ATOM      7  F   UNL     1       0.736   2.455  21.883  0.00  0.00    +0.000 F 
ATOM      8  C   UNL     1       0.842   3.341  19.704  0.00  0.00    +0.000 A 
ATOM      9  C   UNL     1       1.474   4.181  18.794  0.00  0.00    +0.000 A 
ATOM     10  F   UNL     1       0.977   4.270  17.550  0.00  0.00    +0.000 F 
ENDBRANCH   2   3
BRANCH   2  11
ATOM     11  C   UNL     1       4.415   5.565  17.406  0.00  0.00    +0.000 A 
ATOM     12  C   UNL     1       5.522   6.421  17.433  0.00  0.00    +0.000 A 
ATOM     13  C   UNL     1       6.658   6.118  16.679  0.00  0.00    +0.000 A 
ATOM     14  C   UNL     1       6.688   4.964  15.905  0.00  0.00    +0.000 A 
ATOM     15  F   UNL     1       7.779   4.679  15.186  0.00  0.00    +0.000 F 
ATOM     16  C   UNL     1       5.599   4.100  15.865  0.00  0.00    +0.000 A 
ATOM     17  C   UNL     1       4.470   4.409  16.614  0.00  0.00    +0.000 A 
ATOM     18  F   UNL     1       3.425   3.568  16.571  0.00  0.00    +0.000 F 
ENDBRANCH   2  11
BRANCH   1  19
ATOM     19  O   UNL     1       1.548   7.481  18.769  0.00  0.00    +0.000 OA
BRANCH  19  20
ATOM     20  C   UNL     1       1.826   8.593  19.619  0.00  0.00    +0.000 C 
BRANCH  20  21
ATOM     21  C   UNL     1       1.199   9.845  18.982  0.00  0.00    +0.000 C 
BRANCH  21  26
ATOM     22  C   UNL     1      -0.253  12.112  21.646  0.00  0.00    +0.000 C 
ATOM     23  C   UNL     1      -1.419  12.730  20.867  0.00  0.00    +0.000 C 
ATOM     24  C   UNL     1      -1.942  11.825  19.758  0.00  0.00    +0.000 C 
ATOM     25  C   UNL     1      -0.817  11.214  18.929  0.00  0.00    +0.000 C 
ATOM     26  N   UNL     1       0.144  10.501  19.796  0.00  0.00    +0.000 NA
ATOM     27  C   UNL     1       0.783  11.473  20.718  0.00  0.00    +0.000 C 
BRANCH  22  29
ATOM     28  O   UNL     1      -1.837  11.222  23.234  0.00  0.00    +0.000 OA
ATOM     29  C   UNL     1      -0.723  11.158  22.730  0.00  0.00    +0.000 C 
BRANCH  29  30
ATOM     30  O   UNL     1       0.166  10.201  23.076  0.00  0.00    +0.000 OA
ATOM     31  H   UNL     1       1.094  10.460  22.866  0.00  0.00    +0.000 HD
ENDBRANCH  29  30
ENDBRANCH  22  29
ENDBRANCH  21  26
ENDBRANCH  20  21
ENDBRANCH  19  20
ENDBRANCH   1  19
TORSDOF 8
ENDMDL
MODEL 4
REMARK VINA RESULT:      -8.0      1.230      1.431
REMARK  Name = 
REMARK  8 active torsions:
REMARK  status: ('A' for Active; 'I' for Inactive)
REMARK    1  A    between atoms: C_2  and  O_3
REMARK    2  A    between atoms: C_2  and  C_4
REMARK    3  A    between atoms: N_8  and  C_9
REMARK    4  A    between atoms: C_9  and  C_10
REMARK    5  A    between atoms: C_10  and  O_11
REMARK    6  A    between atoms: O_11  and  C_12
REMARK    7  A    between atoms: C_13  and  C_14
REMARK    8  A    between atoms: C_13  and  C_22
REMARK                            x       y       z     vdW  Elec       q    Type
REMARK                         _______ _______ _______ _____ _____    ______ ____
ROOT
ATOM      1  C   UNL     1       2.364   6.738  18.324  0.00  0.00    +0.000 C 
ATOM      2  C   UNL     1       3.007   5.580  18.534  0.00  0.00    +0.000 C 
ENDROOT
BRANCH   2   3
ATOM      3  C   UNL     1       4.243   5.323  17.774  0.00  0.00    +0.000 A 
ATOM      4  C   UNL     1       5.416   6.035  18.068  0.00  0.00    +0.000 A 
ATOM      5  C   UNL     1       6.599   5.741  17.386  0.00  0.00    +0.000 A 
ATOM      6  C   UNL     1       6.608   4.735  16.422  0.00  0.00    +0.000 A 
ATOM      7  F   UNL     1       7.749   4.449  15.781  0.00  0.00    +0.000 F 
ATOM      8  C   UNL     1       5.459   4.019  16.120  0.00  0.00    +0.000 A 
ATOM      9  C   UNL     1       4.283   4.318  16.798  0.00  0.00    +0.000 A 
ATOM     10  F   UNL     1       3.178   3.612  16.511  0.00  0.00    +0.000 F 
ENDBRANCH   2   3
BRANCH   2  11
ATOM     11  C   UNL     1       2.436   4.642  19.519  0.00  0.00    +0.000 A 
ATOM     12  C   UNL     1       2.938   4.591  20.824  0.00  0.00    +0.000 A 
ATOM     13  C   UNL     1       2.384   3.705  21.752  0.00  0.00    +0.000 A 
ATOM     14  C   UNL     1       1.333   2.876  21.376  0.00  0.00    +0.000 A 
ATOM     15  F   UNL     1       0.806   2.031  22.268  0.00  0.00    +0.000 F 
ATOM     16  C   UNL     1       0.820   2.912  20.084  0.00  0.00    +0.000 A 
ATOM     17  C   UNL     1       1.377   3.793  19.165  0.00  0.00    +0.000 A 
ATOM     18  F   UNL     1       0.874   3.822  17.921  0.00  0.00    +0.000 F 
ENDBRANCH   2  11
BRANCH   1  19
ATOM     19  O   UNL     1       2.785   7.666  17.401  0.00  0.00    +0.000 OA
BRANCH  19  20
ATOM     20  C   UNL     1       2.592   9.010  17.842  0.00  0.00    +0.000 C 
BRANCH  20  21
ATOM     21  C   UNL     1       1.086   9.315  17.786  0.00  0.00    +0.000 C 
BRANCH  21  26
ATOM     22  C   UNL     1      -1.373  11.606  19.531  0.00  0.00    +0.000 C 
ATOM     23  C   UNL     1      -0.992  11.347  20.992  0.00  0.00    +0.000 C 
ATOM     24  C   UNL     1       0.462  10.924  21.164  0.00  0.00    +0.000 C 
ATOM     25  C   UNL     1       0.880   9.861  20.151  0.00  0.00    +0.000 C 
ATOM     26  N   UNL     1       0.613  10.318  18.772  0.00  0.00    +0.000 NA
ATOM     27  C   UNL     1      -0.849  10.512  18.598  0.00  0.00    +0.000 C 
BRANCH  22  29
ATOM     28  O   UNL     1      -1.124  13.995  19.762  0.00  0.00    +0.000 OA
ATOM     29  C   UNL     1      -0.978  12.997  19.068  0.00  0.00    +0.000 C 
BRANCH  29  30
ATOM     30  O   UNL     1      -0.414  13.055  17.841  0.00  0.00    +0.000 OA
ATOM     31  H   UNL     1      -1.088  13.141  17.125  0.00  0.00    +0.000 HD
ENDBRANCH  29  30
ENDBRANCH  22  29
ENDBRANCH  21  26
ENDBRANCH  20  21
ENDBRANCH  19  20
ENDBRANCH   1  19
TORSDOF 8
ENDMDL
MODEL 5
REMARK VINA RESULT:      -8.0      2.159      4.967
REMARK  Name = 
REMARK  8 active torsions:
REMARK  status: ('A' for Active; 'I' for Inactive)
REMARK    1  A    between atoms: C_2  and  O_3
REMARK    2  A    between atoms: C_2  and  C_4
REMARK    3  A    between atoms: N_8  and  C_9
REMARK    4  A    between atoms: C_9  and  C_10
REMARK    5  A    between atoms: C_10  and  O_11
REMARK    6  A    between atoms: O_11  and  C_12
REMARK    7  A    between atoms: C_13  and  C_14
REMARK    8  A    between atoms: C_13  and  C_22
REMARK                            x       y       z     vdW  Elec       q    Type
REMARK                         _______ _______ _______ _____ _____    ______ ____
ROOT
ATOM      1  C   UNL     1       2.721   7.052  18.090  0.00  0.00    +0.000 C 
ATOM      2  C   UNL     1       3.259   5.830  18.218  0.00  0.00    +0.000 C 
ENDROOT
BRANCH   2   3
ATOM      3  C   UNL     1       2.639   4.894  19.172  0.00  0.00    +0.000 A 
ATOM      4  C   UNL     1       3.153   4.764  20.471  0.00  0.00    +0.000 A 
ATOM      5  C   UNL     1       2.522   3.923  21.390  0.00  0.00    +0.000 A 
ATOM      6  C   UNL     1       1.379   3.222  21.011  0.00  0.00    +0.000 A 
ATOM      7  F   UNL     1       0.771   2.428  21.901  0.00  0.00    +0.000 F 
ATOM      8  C   UNL     1       0.854   3.341  19.732  0.00  0.00    +0.000 A 
ATOM      9  C   UNL     1       1.489   4.176  18.821  0.00  0.00    +0.000 A 
ATOM     10  F   UNL     1       0.968   4.296  17.589  0.00  0.00    +0.000 F 
ENDBRANCH   2   3
BRANCH   2  11
ATOM     11  C   UNL     1       4.433   5.503  17.386  0.00  0.00    +0.000 A 
ATOM     12  C   UNL     1       5.564   6.327  17.401  0.00  0.00    +0.000 A 
ATOM     13  C   UNL     1       6.674   6.004  16.617  0.00  0.00    +0.000 A 
ATOM     14  C   UNL     1       6.653   4.862  15.823  0.00  0.00    +0.000 A 
ATOM     15  F   UNL     1       7.719   4.558  15.075  0.00  0.00    +0.000 F 
ATOM     16  C   UNL     1       5.539   4.031  15.795  0.00  0.00    +0.000 A 
ATOM     17  C   UNL     1       4.436   4.359  16.575  0.00  0.00    +0.000 A 
ATOM     18  F   UNL     1       3.367   3.550  16.543  0.00  0.00    +0.000 F 
ENDBRANCH   2  11
BRANCH   1  19
ATOM     19  O   UNL     1       1.652   7.476  18.844  0.00  0.00    +0.000 OA
BRANCH  19  20
ATOM     20  C   UNL     1       2.027   8.406  19.860  0.00  0.00    +0.000 C 
BRANCH  20  21
ATOM     21  C   UNL     1       1.008   8.293  21.006  0.00  0.00    +0.000 C 
BRANCH  21  26
ATOM     22  C   UNL     1      -0.745  11.643  20.802  0.00  0.00    +0.000 C 
ATOM     23  C   UNL     1      -1.592  11.582  22.077  0.00  0.00    +0.000 C 
ATOM     24  C   UNL     1      -0.979  10.702  23.160  0.00  0.00    +0.000 C 
ATOM     25  C   UNL     1      -0.478   9.370  22.609  0.00  0.00    +0.000 C 
ATOM     26  N   UNL     1       0.466   9.586  21.493  0.00  0.00    +0.000 NA
ATOM     27  C   UNL     1      -0.244  10.261  20.378  0.00  0.00    +0.000 C 
BRANCH  22  29
ATOM     28  O   UNL     1       0.210  13.859  20.734  0.00  0.00    +0.000 OA
ATOM     29  C   UNL     1       0.380  12.658  20.904  0.00  0.00    +0.000 C 
BRANCH  29  30
ATOM     30  O   UNL     1       1.587  12.146  21.233  0.00  0.00    +0.000 OA
ATOM     31  H   UNL     1       1.813  11.349  20.696  0.00  0.00    +0.000 HD
ENDBRANCH  29  30
ENDBRANCH  22  29
ENDBRANCH  21  26
ENDBRANCH  20  21
ENDBRANCH  19  20
ENDBRANCH   1  19
TORSDOF 8
ENDMDL
MODEL 6
REMARK VINA RESULT:      -8.0      2.018      2.479
REMARK  Name = 
REMARK  8 active torsions:
REMARK  status: ('A' for Active; 'I' for Inactive)
REMARK    1  A    between atoms: C_2  and  O_3
REMARK    2  A    between atoms: C_2  and  C_4
REMARK    3  A    between atoms: N_8  and  C_9
REMARK    4  A    between atoms: C_9  and  C_10
REMARK    5  A    between atoms: C_10  and  O_11
REMARK    6  A    between atoms: O_11  and  C_12
REMARK    7  A    between atoms: C_13  and  C_14
REMARK    8  A    between atoms: C_13  and  C_22
REMARK                            x       y       z     vdW  Elec       q    Type
REMARK                         _______ _______ _______ _____ _____    ______ ____
ROOT
ATOM      1  C   UNL     1       2.532   6.836  18.437  0.00  0.00    +0.000 C 
ATOM      2  C   UNL     1       3.194   5.670  18.461  0.00  0.00    +0.000 C 
ENDROOT
BRANCH   2   3
ATOM      3  C   UNL     1       4.297   5.477  17.503  0.00  0.00    +0.000 A 
ATOM      4  C   UNL     1       5.438   6.291  17.563  0.00  0.00    +0.000 A 
ATOM      5  C   UNL     1       6.506   6.060  16.693  0.00  0.00    +0.000 A 
ATOM      6  C   UNL     1       6.434   5.014  15.775  0.00  0.00    +0.000 A 
ATOM      7  F   UNL     1       7.467   4.790  14.953  0.00  0.00    +0.000 F 
ATOM      8  C   UNL     1       5.316   4.196  15.704  0.00  0.00    +0.000 A 
ATOM      9  C   UNL     1       4.254   4.433  16.569  0.00  0.00    +0.000 A 
ATOM     10  F   UNL     1       3.180   3.629  16.503  0.00  0.00    +0.000 F 
ENDBRANCH   2   3
BRANCH   2  11
ATOM     11  C   UNL     1       2.775   4.660  19.451  0.00  0.00    +0.000 A 
ATOM     12  C   UNL     1       1.448   4.604  19.889  0.00  0.00    +0.000 A 
ATOM     13  C   UNL     1       1.059   3.638  20.821  0.00  0.00    +0.000 A 
ATOM     14  C   UNL     1       1.994   2.732  21.309  0.00  0.00    +0.000 A 
ATOM     15  F   UNL     1       1.616   1.809  22.200  0.00  0.00    +0.000 F 
ATOM     16  C   UNL     1       3.318   2.770  20.886  0.00  0.00    +0.000 A 
ATOM     17  C   UNL     1       3.699   3.735  19.962  0.00  0.00    +0.000 A 
ATOM     18  F   UNL     1       4.977   3.763  19.557  0.00  0.00    +0.000 F 
ENDBRANCH   2  11
BRANCH   1  19
ATOM     19  O   UNL     1       2.812   7.831  17.530  0.00  0.00    +0.000 OA
BRANCH  19  20
ATOM     20  C   UNL     1       2.409   9.123  17.986  0.00  0.00    +0.000 C 
BRANCH  20  21
ATOM     21  C   UNL     1       0.877   9.210  17.866  0.00  0.00    +0.000 C 
BRANCH  21  26
ATOM     22  C   UNL     1       0.569  10.996  21.191  0.00  0.00    +0.000 C 
ATOM     23  C   UNL     1      -0.534  12.004  20.854  0.00  0.00    +0.000 C 
ATOM     24  C   UNL     1      -1.467  11.522  19.750  0.00  0.00    +0.000 C 
ATOM     25  C   UNL     1      -0.708  10.922  18.570  0.00  0.00    +0.000 C 
ATOM     26  N   UNL     1       0.194   9.841  19.022  0.00  0.00    +0.000 NA
ATOM     27  C   UNL     1       1.218  10.411  19.934  0.00  0.00    +0.000 C 
BRANCH  22  29
ATOM     28  O   UNL     1       0.008  10.092  23.358  0.00  0.00    +0.000 OA
ATOM     29  C   UNL     1       0.093   9.917  22.149  0.00  0.00    +0.000 C 
BRANCH  29  30
ATOM     30  O   UNL     1      -0.270   8.753  21.567  0.00  0.00    +0.000 OA
ATOM     31  H   UNL     1      -1.237   8.578  21.653  0.00  0.00    +0.000 HD
ENDBRANCH  29  30
ENDBRANCH  22  29
ENDBRANCH  21  26
ENDBRANCH  20  21
ENDBRANCH  19  20
ENDBRANCH   1  19
TORSDOF 8
ENDMDL
MODEL 7
REMARK VINA RESULT:      -8.0      2.324      5.070
REMARK  Name = 
REMARK  8 active torsions:
REMARK  status: ('A' for Active; 'I' for Inactive)
REMARK    1  A    between atoms: C_2  and  O_3
REMARK    2  A    between atoms: C_2  and  C_4
REMARK    3  A    between atoms: N_8  and  C_9
REMARK    4  A    between atoms: C_9  and  C_10
REMARK    5  A    between atoms: C_10  and  O_11
REMARK    6  A    between atoms: O_11  and  C_12
REMARK    7  A    between atoms: C_13  and  C_14
REMARK    8  A    between atoms: C_13  and  C_22
REMARK                            x       y       z     vdW  Elec       q    Type
REMARK                         _______ _______ _______ _____ _____    ______ ____
ROOT
ATOM      1  C   UNL     1       2.775   7.161  18.028  0.00  0.00    +0.000 C 
ATOM      2  C   UNL     1       3.205   5.891  18.048  0.00  0.00    +0.000 C 
ENDROOT
BRANCH   2   3
ATOM      3  C   UNL     1       2.604   4.969  19.028  0.00  0.00    +0.000 A 
ATOM      4  C   UNL     1       3.128   4.875  20.326  0.00  0.00    +0.000 A 
ATOM      5  C   UNL     1       2.514   4.047  21.268  0.00  0.00    +0.000 A 
ATOM      6  C   UNL     1       1.377   3.324  20.914  0.00  0.00    +0.000 A 
ATOM      7  F   UNL     1       0.785   2.542  21.825  0.00  0.00    +0.000 F 
ATOM      8  C   UNL     1       0.841   3.407  19.636  0.00  0.00    +0.000 A 
ATOM      9  C   UNL     1       1.460   4.230  18.701  0.00  0.00    +0.000 A 
ATOM     10  F   UNL     1       0.929   4.315  17.471  0.00  0.00    +0.000 F 
ENDBRANCH   2   3
BRANCH   2  11
ATOM     11  C   UNL     1       4.248   5.500  17.081  0.00  0.00    +0.000 A 
ATOM     12  C   UNL     1       4.912   6.471  16.323  0.00  0.00    +0.000 A 
ATOM     13  C   UNL     1       5.904   6.092  15.416  0.00  0.00    +0.000 A 
ATOM     14  C   UNL     1       6.232   4.748  15.270  0.00  0.00    +0.000 A 
ATOM     15  F   UNL     1       7.184   4.391  14.401  0.00  0.00    +0.000 F 
ATOM     16  C   UNL     1       5.585   3.768  16.014  0.00  0.00    +0.000 A 
ATOM     17  C   UNL     1       4.596   4.152  16.912  0.00  0.00    +0.000 A 
ATOM     18  F   UNL     1       3.978   3.200  17.628  0.00  0.00    +0.000 F 
ENDBRANCH   2  11
BRANCH   1  19
ATOM     19  O   UNL     1       1.837   7.643  18.910  0.00  0.00    +0.000 OA
BRANCH  19  20
ATOM     20  C   UNL     1       1.959   9.048  19.133  0.00  0.00    +0.000 C 
BRANCH  20  21
ATOM     21  C   UNL     1       0.544   9.624  19.308  0.00  0.00    +0.000 C 
BRANCH  21  26
ATOM     22  C   UNL     1      -1.299  11.658  21.918  0.00  0.00    +0.000 C 
ATOM     23  C   UNL     1      -1.264  10.680  23.096  0.00  0.00    +0.000 C 
ATOM     24  C   UNL     1      -0.070   9.733  23.050  0.00  0.00    +0.000 C 
ATOM     25  C   UNL     1       0.143   9.136  21.662  0.00  0.00    +0.000 C 
ATOM     26  N   UNL     1       0.264  10.203  20.646  0.00  0.00    +0.000 NA
ATOM     27  C   UNL     1      -1.010  10.963  20.585  0.00  0.00    +0.000 C 
BRANCH  22  29
ATOM     28  O   UNL     1      -0.288  13.409  23.234  0.00  0.00    +0.000 OA
ATOM     29  C   UNL     1      -0.409  12.867  22.143  0.00  0.00    +0.000 C 
BRANCH  29  30
ATOM     30  O   UNL     1       0.276  13.286  21.056  0.00  0.00    +0.000 OA
ATOM     31  H   UNL     1      -0.060  14.149  20.713  0.00  0.00    +0.000 HD
ENDBRANCH  29  30
ENDBRANCH  22  29
ENDBRANCH  21  26
ENDBRANCH  20  21
ENDBRANCH  19  20
ENDBRANCH   1  19
TORSDOF 8
ENDMDL
MODEL 8
REMARK VINA RESULT:      -8.0      1.528      1.910
REMARK  Name = 
REMARK  8 active torsions:
REMARK  status: ('A' for Active; 'I' for Inactive)
REMARK    1  A    between atoms: C_2  and  O_3
REMARK    2  A    between atoms: C_2  and  C_4
REMARK    3  A    between atoms: N_8  and  C_9
REMARK    4  A    between atoms: C_9  and  C_10
REMARK    5  A    between atoms: C_10  and  O_11
REMARK    6  A    between atoms: O_11  and  C_12
REMARK    7  A    between atoms: C_13  and  C_14
REMARK    8  A    between atoms: C_13  and  C_22
REMARK                            x       y       z     vdW  Elec       q    Type
REMARK                         _______ _______ _______ _____ _____    ______ ____
ROOT
ATOM      1  C   UNL     1       2.641   6.851  18.509  0.00  0.00    +0.000 C 
ATOM      2  C   UNL     1       3.264   5.663  18.509  0.00  0.00    +0.000 C 
ENDROOT
BRANCH   2   3
ATOM      3  C   UNL     1       4.362   5.454  17.549  0.00  0.00    +0.000 A 
ATOM      4  C   UNL     1       5.522   6.240  17.617  0.00  0.00    +0.000 A 
ATOM      5  C   UNL     1       6.584   5.993  16.745  0.00  0.00    +0.000 A 
ATOM      6  C   UNL     1       6.487   4.959  15.816  0.00  0.00    +0.000 A 
ATOM      7  F   UNL     1       7.514   4.719  14.991  0.00  0.00    +0.000 F 
ATOM      8  C   UNL     1       5.350   4.169  15.736  0.00  0.00    +0.000 A 
ATOM      9  C   UNL     1       4.294   4.422  16.604  0.00  0.00    +0.000 A 
ATOM     10  F   UNL     1       3.201   3.645  16.530  0.00  0.00    +0.000 F 
ENDBRANCH   2   3
BRANCH   2  11
ATOM     11  C   UNL     1       2.809   4.647  19.477  0.00  0.00    +0.000 A 
ATOM     12  C   UNL     1       1.471   4.600  19.881  0.00  0.00    +0.000 A 
ATOM     13  C   UNL     1       1.049   3.628  20.792  0.00  0.00    +0.000 A 
ATOM     14  C   UNL     1       1.961   2.706  21.293  0.00  0.00    +0.000 A 
ATOM     15  F   UNL     1       1.551   1.778  22.163  0.00  0.00    +0.000 F 
ATOM     16  C   UNL     1       3.295   2.735  20.903  0.00  0.00    +0.000 A 
ATOM     17  C   UNL     1       3.710   3.707  20.000  0.00  0.00    +0.000 A 
ATOM     18  F   UNL     1       4.999   3.725  19.628  0.00  0.00    +0.000 F 
ENDBRANCH   2  11
BRANCH   1  19
ATOM     19  O   UNL     1       2.956   7.855  17.624  0.00  0.00    +0.000 OA
BRANCH  19  20
ATOM     20  C   UNL     1       2.079   8.977  17.728  0.00  0.00    +0.000 C 
BRANCH  20  21
ATOM     21  C   UNL     1       1.498   8.995  19.153  0.00  0.00    +0.000 C 
BRANCH  21  26
ATOM     22  C   UNL     1      -0.965  11.837  18.715  0.00  0.00    +0.000 C 
ATOM     23  C   UNL     1      -1.600  11.860  20.110  0.00  0.00    +0.000 C 
ATOM     24  C   UNL     1      -0.668  11.342  21.198  0.00  0.00    +0.000 C 
ATOM     25  C   UNL     1       0.038  10.051  20.792  0.00  0.00    +0.000 C 
ATOM     26  N   UNL     1       0.753  10.227  19.511  0.00  0.00    +0.000 NA
ATOM     27  C   UNL     1      -0.232  10.522  18.440  0.00  0.00    +0.000 C 
BRANCH  22  29
ATOM     28  O   UNL     1      -0.451  14.195  18.705  0.00  0.00    +0.000 OA
ATOM     29  C   UNL     1      -0.090  13.051  18.459  0.00  0.00    +0.000 C 
BRANCH  29  30
ATOM     30  O   UNL     1       1.140  12.778  17.969  0.00  0.00    +0.000 OA
ATOM     31  H   UNL     1       1.444  13.459  17.323  0.00  0.00    +0.000 HD
ENDBRANCH  29  30
ENDBRANCH  22  29
ENDBRANCH  21  26
ENDBRANCH  20  21
ENDBRANCH  19  20
ENDBRANCH   1  19
TORSDOF 8
ENDMDL
MODEL 9
REMARK VINA RESULT:      -8.0      1.892      2.392
REMARK  Name = 
REMARK  8 active torsions:
REMARK  status: ('A' for Active; 'I' for Inactive)
REMARK    1  A    between atoms: C_2  and  O_3
REMARK    2  A    between atoms: C_2  and  C_4
REMARK    3  A    between atoms: N_8  and  C_9
REMARK    4  A    between atoms: C_9  and  C_10
REMARK    5  A    between atoms: C_10  and  O_11
REMARK    6  A    between atoms: O_11  and  C_12
REMARK    7  A    between atoms: C_13  and  C_14
REMARK    8  A    between atoms: C_13  and  C_22
REMARK                            x       y       z     vdW  Elec       q    Type
REMARK                         _______ _______ _______ _____ _____    ______ ____
ROOT
ATOM      1  C   UNL     1       2.679   6.835  18.498  0.00  0.00    +0.000 C 
ATOM      2  C   UNL     1       3.190   5.600  18.611  0.00  0.00    +0.000 C 
ENDROOT
BRANCH   2   3
ATOM      3  C   UNL     1       4.372   5.259  17.800  0.00  0.00    +0.000 A 
ATOM      4  C   UNL     1       4.223   4.879  16.457  0.00  0.00    +0.000 A 
ATOM      5  C   UNL     1       5.352   4.620  15.677  0.00  0.00    +0.000 A 
ATOM      6  C   UNL     1       6.622   4.748  16.236  0.00  0.00    +0.000 A 
ATOM      7  F   UNL     1       7.700   4.511  15.479  0.00  0.00    +0.000 F 
ATOM      8  C   UNL     1       6.788   5.127  17.561  0.00  0.00    +0.000 A 
ATOM      9  C   UNL     1       5.661   5.380  18.334  0.00  0.00    +0.000 A 
ATOM     10  F   UNL     1       5.830   5.759  19.611  0.00  0.00    +0.000 F 
ENDBRANCH   2   3
BRANCH   2  11
ATOM     11  C   UNL     1       2.536   4.666  19.548  0.00  0.00    +0.000 A 
ATOM     12  C   UNL     1       2.960   4.584  20.879  0.00  0.00    +0.000 A 
ATOM     13  C   UNL     1       2.329   3.702  21.760  0.00  0.00    +0.000 A 
ATOM     14  C   UNL     1       1.278   2.909  21.312  0.00  0.00    +0.000 A 
ATOM     15  F   UNL     1       0.677   2.068  22.160  0.00  0.00    +0.000 F 
ATOM     16  C   UNL     1       0.842   2.977  19.993  0.00  0.00    +0.000 A 
ATOM     17  C   UNL     1       1.476   3.853  19.121  0.00  0.00    +0.000 A 
ATOM     18  F   UNL     1       1.047   3.913  17.851  0.00  0.00    +0.000 F 
ENDBRANCH   2  11
BRANCH   1  19
ATOM     19  O   UNL     1       3.184   7.771  17.627  0.00  0.00    +0.000 OA
BRANCH  19  20
ATOM     20  C   UNL     1       2.440   8.990  17.635  0.00  0.00    +0.000 C 
BRANCH  20  21
ATOM     21  C   UNL     1       1.513   8.971  18.862  0.00  0.00    +0.000 C 
BRANCH  21  26
ATOM     22  C   UNL     1       0.998  12.721  18.982  0.00  0.00    +0.000 C 
ATOM     23  C   UNL     1      -0.446  12.811  18.479  0.00  0.00    +0.000 C 
ATOM     24  C   UNL     1      -1.261  11.557  18.775  0.00  0.00    +0.000 C 
ATOM     25  C   UNL     1      -0.500  10.278  18.438  0.00  0.00    +0.000 C 
ATOM     26  N   UNL     1       0.805  10.247  19.132  0.00  0.00    +0.000 NA
ATOM     27  C   UNL     1       1.641  11.374  18.646  0.00  0.00    +0.000 C 
BRANCH  22  29
ATOM     28  O   UNL     1       1.088  14.215  20.875  0.00  0.00    +0.000 OA
ATOM     29  C   UNL     1       1.118  13.065  20.457  0.00  0.00    +0.000 C 
BRANCH  29  30
ATOM     30  O   UNL     1       1.223  12.004  21.287  0.00  0.00    +0.000 OA
ATOM     31  H   UNL     1       2.048  11.485  21.127  0.00  0.00    +0.000 HD
ENDBRANCH  29  30
ENDBRANCH  22  29
ENDBRANCH  21  26
ENDBRANCH  20  21
ENDBRANCH  19  20
ENDBRANCH   1  19
TORSDOF 8
ENDMDL
