MODEL 1
REMARK VINA RESULT:      -7.2      0.000      0.000
REMARK  Name = 
REMARK  9 active torsions:
REMARK  status: ('A' for Active; 'I' for Inactive)
REMARK    1  A    between atoms: C_1  and  N_2
REMARK    2  A    between atoms: N_2  and  C_3
REMARK    3  A    between atoms: N_2  and  S_4
REMARK    4  A    between atoms: S_4  and  N_7
REMARK    5  A    between atoms: C_11  and  O_13
REMARK    6  A    between atoms: O_13  and  C_14
REMARK    7  A    between atoms: C_14  and  C_15
REMARK    8  A    between atoms: C_14  and  C_16
REMARK    9  A    between atoms: C_14  and  C_17
REMARK                            x       y       z     vdW  Elec       q    Type
REMARK                         _______ _______ _______ _____ _____    ______ ____
ROOT
ATOM      1  N   UNL     1       4.161   5.703  16.917  0.00  0.00    +0.000 NA
ATOM      2  C   UNL     1       4.236   7.077  17.588  0.00  0.00    +0.000 C 
ATOM      3  C   UNL     1       2.871   7.573  18.103  0.00  0.00    +0.000 C 
ATOM      4  N   UNL     1       2.196   6.549  18.882  0.00  0.00    +0.000 N 
ATOM      5  C   UNL     1       1.822   6.615  20.208  0.00  0.00    +0.000 C 
ATOM      6  O   UNL     1       1.320   5.658  20.784  0.00  0.00    +0.000 OA
ATOM      7  C   UNL     1       2.064   5.276  18.194  0.00  0.00    +0.000 C 
ATOM      8  C   UNL     1       3.453   4.658  17.818  0.00  0.00    +0.000 C 
ATOM      9  C   UNL     1       4.319   4.333  19.060  0.00  0.00    +0.000 C 
ATOM     10  C   UNL     1       3.717   3.253  19.959  0.00  0.00    +0.000 C 
ATOM     11  C   UNL     1       3.398   1.981  19.185  0.00  0.00    +0.000 C 
ATOM     12  C   UNL     1       2.522   2.252  17.963  0.00  0.00    +0.000 C 
ATOM     13  C   UNL     1       3.132   3.339  17.065  0.00  0.00    +0.000 C 
ENDROOT
BRANCH   1  14
ATOM     14  S   UNL     1       5.652   5.282  16.195  0.00  0.00    +0.000 S 
ATOM     15  O   UNL     1       5.955   6.158  15.091  0.00  0.00    +0.000 OA
ATOM     16  O   UNL     1       5.702   3.846  16.042  0.00  0.00    +0.000 OA
BRANCH  14  18
ATOM     17  C   UNL     1       7.691   4.590  17.713  0.00  0.00    +0.000 C 
ATOM     18  N   UNL     1       6.753   5.714  17.428  0.00  0.00    +0.000 NA
ATOM     19  C   UNL     1       7.513   6.958  17.168  0.00  0.00    +0.000 C 
ENDBRANCH  14  18
ENDBRANCH   1  14
BRANCH   5  20
ATOM     20  O   UNL     1       2.066   7.813  20.810  0.00  0.00    +0.000 OA
BRANCH  20  21
ATOM     21  C   UNL     1       0.926   8.682  21.078  0.00  0.00    +0.000 C 
ATOM     22  C   UNL     1      -0.375   7.876  21.234  0.00  0.00    +0.000 C 
ATOM     23  C   UNL     1       1.208   9.374  22.422  0.00  0.00    +0.000 C 
ATOM     24  C   UNL     1       0.798   9.783  20.012  0.00  0.00    +0.000 C 
ENDBRANCH  20  21
ENDBRANCH   5  20
TORSDOF 4
ENDMDL
MODEL 2
REMARK VINA RESULT:      -6.6      1.371      1.664
REMARK  Name = 
REMARK  9 active torsions:
REMARK  status: ('A' for Active; 'I' for Inactive)
REMARK    1  A    between atoms: C_1  and  N_2
REMARK    2  A    between atoms: N_2  and  C_3
REMARK    3  A    between atoms: N_2  and  S_4
REMARK    4  A    between atoms: S_4  and  N_7
REMARK    5  A    between atoms: C_11  and  O_13
REMARK    6  A    between atoms: O_13  and  C_14
REMARK    7  A    between atoms: C_14  and  C_15
REMARK    8  A    between atoms: C_14  and  C_16
REMARK    9  A    between atoms: C_14  and  C_17
REMARK                            x       y       z     vdW  Elec       q    Type
REMARK                         _______ _______ _______ _____ _____    ______ ____
ROOT
ATOM      1  N   UNL     1       4.758   5.745  16.920  0.00  0.00    +0.000 NA
ATOM      2  C   UNL     1       4.707   7.148  17.531  0.00  0.00    +0.000 C 
ATOM      3  C   UNL     1       3.277   7.603  17.881  0.00  0.00    +0.000 C 
ATOM      4  N   UNL     1       2.568   6.584  18.635  0.00  0.00    +0.000 N 
ATOM      5  C   UNL     1       2.058   6.689  19.912  0.00  0.00    +0.000 C 
ATOM      6  O   UNL     1       1.538   5.735  20.478  0.00  0.00    +0.000 OA
ATOM      7  C   UNL     1       2.560   5.278  17.998  0.00  0.00    +0.000 C 
ATOM      8  C   UNL     1       4.004   4.709  17.794  0.00  0.00    +0.000 C 
ATOM      9  C   UNL     1       4.750   4.476  19.131  0.00  0.00    +0.000 C 
ATOM     10  C   UNL     1       4.104   3.409  20.014  0.00  0.00    +0.000 C 
ATOM     11  C   UNL     1       3.918   2.092  19.271  0.00  0.00    +0.000 C 
ATOM     12  C   UNL     1       3.163   2.271  17.956  0.00  0.00    +0.000 C 
ATOM     13  C   UNL     1       3.816   3.345  17.075  0.00  0.00    +0.000 C 
ENDROOT
BRANCH   1  14
ATOM     14  S   UNL     1       6.331   5.363  16.374  0.00  0.00    +0.000 S 
ATOM     15  O   UNL     1       6.691   4.016  16.740  0.00  0.00    +0.000 OA
ATOM     16  O   UNL     1       7.206   6.474  16.671  0.00  0.00    +0.000 OA
BRANCH  14  18
ATOM     17  C   UNL     1       7.405   5.258  13.970  0.00  0.00    +0.000 C 
ATOM     18  N   UNL     1       6.096   5.321  14.682  0.00  0.00    +0.000 NA
ATOM     19  C   UNL     1       5.207   4.236  14.210  0.00  0.00    +0.000 C 
ENDBRANCH  14  18
ENDBRANCH   1  14
BRANCH   5  20
ATOM     20  O   UNL     1       2.189   7.921  20.479  0.00  0.00    +0.000 OA
BRANCH  20  21
ATOM     21  C   UNL     1       0.974   8.695  20.709  0.00  0.00    +0.000 C 
ATOM     22  C   UNL     1      -0.209   7.789  21.091  0.00  0.00    +0.000 C 
ATOM     23  C   UNL     1       1.261   9.616  21.906  0.00  0.00    +0.000 C 
ATOM     24  C   UNL     1       0.647   9.595  19.505  0.00  0.00    +0.000 C 
ENDBRANCH  20  21
ENDBRANCH   5  20
TORSDOF 4
ENDMDL
MODEL 3
REMARK VINA RESULT:      -6.3      1.717      2.234
REMARK  Name = 
REMARK  9 active torsions:
REMARK  status: ('A' for Active; 'I' for Inactive)
REMARK    1  A    between atoms: C_1  and  N_2
REMARK    2  A    between atoms: N_2  and  C_3
REMARK    3  A    between atoms: N_2  and  S_4
REMARK    4  A    between atoms: S_4  and  N_7
REMARK    5  A    between atoms: C_11  and  O_13
REMARK    6  A    between atoms: O_13  and  C_14
REMARK    7  A    between atoms: C_14  and  C_15
REMARK    8  A    between atoms: C_14  and  C_16
REMARK    9  A    between atoms: C_14  and  C_17
REMARK                            x       y       z     vdW  Elec       q    Type
REMARK                         _______ _______ _______ _____ _____    ______ ____
ROOT
ATOM      1  N   UNL     1       3.857   5.404  17.592  0.00  0.00    +0.000 NA
ATOM      2  C   UNL     1       4.283   6.874  17.620  0.00  0.00    +0.000 C 
ATOM      3  C   UNL     1       3.096   7.849  17.496  0.00  0.00    +0.000 C 
ATOM      4  N   UNL     1       2.031   7.506  18.422  0.00  0.00    +0.000 N 
ATOM      5  C   UNL     1       1.528   8.280  19.446  0.00  0.00    +0.000 C 
ATOM      6  O   UNL     1       0.672   7.857  20.213  0.00  0.00    +0.000 OA
ATOM      7  C   UNL     1       1.586   6.126  18.323  0.00  0.00    +0.000 C 
ATOM      8  C   UNL     1       2.737   5.109  18.624  0.00  0.00    +0.000 C 
ATOM      9  C   UNL     1       3.281   5.232  20.069  0.00  0.00    +0.000 C 
ATOM     10  C   UNL     1       2.250   4.880  21.142  0.00  0.00    +0.000 C 
ATOM     11  C   UNL     1       1.641   3.503  20.917  0.00  0.00    +0.000 C 
ATOM     12  C   UNL     1       1.069   3.346  19.510  0.00  0.00    +0.000 C 
ATOM     13  C   UNL     1       2.109   3.701  18.438  0.00  0.00    +0.000 C 
ENDROOT
BRANCH   1  14
ATOM     14  S   UNL     1       5.213   4.365  17.538  0.00  0.00    +0.000 S 
ATOM     15  O   UNL     1       5.050   3.357  16.521  0.00  0.00    +0.000 OA
ATOM     16  O   UNL     1       5.573   4.006  18.891  0.00  0.00    +0.000 OA
BRANCH  14  18
ATOM     17  C   UNL     1       7.511   5.589  17.939  0.00  0.00    +0.000 C 
ATOM     18  N   UNL     1       6.417   5.419  16.940  0.00  0.00    +0.000 NA
ATOM     19  C   UNL     1       6.982   5.028  15.628  0.00  0.00    +0.000 C 
ENDBRANCH  14  18
ENDBRANCH   1  14
BRANCH   5  20
ATOM     20  O   UNL     1       2.065   9.530  19.532  0.00  0.00    +0.000 OA
BRANCH  20  21
ATOM     21  C   UNL     1       1.179  10.666  19.304  0.00  0.00    +0.000 C 
ATOM     22  C   UNL     1       0.770  11.339  20.626  0.00  0.00    +0.000 C 
ATOM     23  C   UNL     1       1.984  11.693  18.490  0.00  0.00    +0.000 C 
ATOM     24  C   UNL     1      -0.042  10.264  18.460  0.00  0.00    +0.000 C 
ENDBRANCH  20  21
ENDBRANCH   5  20
TORSDOF 4
ENDMDL
MODEL 4
REMARK VINA RESULT:      -6.1      0.982      1.513
REMARK  Name = 
REMARK  9 active torsions:
REMARK  status: ('A' for Active; 'I' for Inactive)
REMARK    1  A    between atoms: C_1  and  N_2
REMARK    2  A    between atoms: N_2  and  C_3
REMARK    3  A    between atoms: N_2  and  S_4
REMARK    4  A    between atoms: S_4  and  N_7
REMARK    5  A    between atoms: C_11  and  O_13
REMARK    6  A    between atoms: O_13  and  C_14
REMARK    7  A    between atoms: C_14  and  C_15
REMARK    8  A    between atoms: C_14  and  C_16
REMARK    9  A    between atoms: C_14  and  C_17
REMARK                            x       y       z     vdW  Elec       q    Type
REMARK                         _______ _______ _______ _____ _____    ______ ____
ROOT
ATOM      1  N   UNL     1       4.267   5.149  17.316  0.00  0.00    +0.000 NA
ATOM      2  C   UNL     1       4.469   6.544  17.914  0.00  0.00    +0.000 C 
ATOM      3  C   UNL     1       3.143   7.276  18.200  0.00  0.00    +0.000 C 
ATOM      4  N   UNL     1       2.218   6.427  18.931  0.00  0.00    +0.000 N 
ATOM      5  C   UNL     1       1.688   6.650  20.184  0.00  0.00    +0.000 C 
ATOM      6  O   UNL     1       0.969   5.826  20.736  0.00  0.00    +0.000 OA
ATOM      7  C   UNL     1       1.979   5.138  18.304  0.00  0.00    +0.000 C 
ATOM      8  C   UNL     1       3.290   4.294  18.165  0.00  0.00    +0.000 C 
ATOM      9  C   UNL     1       3.922   3.941  19.533  0.00  0.00    +0.000 C 
ATOM     10  C   UNL     1       3.044   3.034  20.397  0.00  0.00    +0.000 C 
ATOM     11  C   UNL     1       2.633   1.768  19.657  0.00  0.00    +0.000 C 
ATOM     12  C   UNL     1       1.981   2.072  18.310  0.00  0.00    +0.000 C 
ATOM     13  C   UNL     1       2.867   2.983  17.448  0.00  0.00    +0.000 C 
ENDROOT
BRANCH   1  14
ATOM     14  S   UNL     1       5.755   4.457  16.839  0.00  0.00    +0.000 S 
ATOM     15  O   UNL     1       5.545   3.364  15.923  0.00  0.00    +0.000 OA
ATOM     16  O   UNL     1       6.587   4.298  18.010  0.00  0.00    +0.000 OA
BRANCH  14  18
ATOM     17  C   UNL     1       7.384   6.523  16.696  0.00  0.00    +0.000 C 
ATOM     18  N   UNL     1       6.420   5.715  15.894  0.00  0.00    +0.000 NA
ATOM     19  C   UNL     1       7.056   5.269  14.633  0.00  0.00    +0.000 C 
ENDBRANCH  14  18
ENDBRANCH   1  14
BRANCH   5  20
ATOM     20  O   UNL     1       2.037   7.841  20.747  0.00  0.00    +0.000 OA
BRANCH  20  21
ATOM     21  C   UNL     1       0.962   8.746  21.140  0.00  0.00    +0.000 C 
ATOM     22  C   UNL     1       1.303   9.499  22.438  0.00  0.00    +0.000 C 
ATOM     23  C   UNL     1       0.836   9.789  20.018  0.00  0.00    +0.000 C 
ATOM     24  C   UNL     1      -0.384   8.009  21.237  0.00  0.00    +0.000 C 
ENDBRANCH  20  21
ENDBRANCH   5  20
TORSDOF 4
ENDMDL
MODEL 5
REMARK VINA RESULT:      -6.1      2.532      4.271
REMARK  Name = 
REMARK  9 active torsions:
REMARK  status: ('A' for Active; 'I' for Inactive)
REMARK    1  A    between atoms: C_1  and  N_2
REMARK    2  A    between atoms: N_2  and  C_3
REMARK    3  A    between atoms: N_2  and  S_4
REMARK    4  A    between atoms: S_4  and  N_7
REMARK    5  A    between atoms: C_11  and  O_13
REMARK    6  A    between atoms: O_13  and  C_14
REMARK    7  A    between atoms: C_14  and  C_15
REMARK    8  A    between atoms: C_14  and  C_16
REMARK    9  A    between atoms: C_14  and  C_17
REMARK                            x       y       z     vdW  Elec       q    Type
REMARK                         _______ _______ _______ _____ _____    ______ ____
ROOT
ATOM      1  N   UNL     1       3.464   4.529  20.082  0.00  0.00    +0.000 NA
ATOM      2  C   UNL     1       2.053   5.118  20.148  0.00  0.00    +0.000 C 
ATOM      3  C   UNL     1       2.040   6.659  20.137  0.00  0.00    +0.000 C 
ATOM      4  N   UNL     1       2.871   7.187  19.069  0.00  0.00    +0.000 N 
ATOM      5  C   UNL     1       2.473   7.970  18.007  0.00  0.00    +0.000 C 
ATOM      6  O   UNL     1       3.253   8.300  17.121  0.00  0.00    +0.000 OA
ATOM      7  C   UNL     1       4.231   6.675  19.073  0.00  0.00    +0.000 C 
ATOM      8  C   UNL     1       4.280   5.119  18.903  0.00  0.00    +0.000 C 
ATOM      9  C   UNL     1       3.699   4.648  17.547  0.00  0.00    +0.000 C 
ATOM     10  C   UNL     1       4.500   5.131  16.337  0.00  0.00    +0.000 C 
ATOM     11  C   UNL     1       5.973   4.758  16.444  0.00  0.00    +0.000 C 
ATOM     12  C   UNL     1       6.594   5.229  17.758  0.00  0.00    +0.000 C 
ATOM     13  C   UNL     1       5.785   4.741  18.968  0.00  0.00    +0.000 C 
ENDROOT
BRANCH   1  14
ATOM     14  S   UNL     1       3.440   2.834  20.291  0.00  0.00    +0.000 S 
ATOM     15  O   UNL     1       2.464   2.450  21.280  0.00  0.00    +0.000 OA
ATOM     16  O   UNL     1       4.803   2.358  20.366  0.00  0.00    +0.000 OA
BRANCH  14  18
ATOM     17  C   UNL     1       3.613   1.222  18.214  0.00  0.00    +0.000 C 
ATOM     18  N   UNL     1       2.791   2.323  18.796  0.00  0.00    +0.000 NA
ATOM     19  C   UNL     1       1.366   1.921  18.847  0.00  0.00    +0.000 C 
ENDBRANCH  14  18
ENDBRANCH   1  14
BRANCH   5  20
ATOM     20  O   UNL     1       1.159   8.330  18.024  0.00  0.00    +0.000 OA
BRANCH  20  21
ATOM     21  C   UNL     1       0.836   9.702  18.401  0.00  0.00    +0.000 C 
ATOM     22  C   UNL     1      -0.515  10.147  17.812  0.00  0.00    +0.000 C 
ATOM     23  C   UNL     1       0.703   9.716  19.932  0.00  0.00    +0.000 C 
ATOM     24  C   UNL     1       1.973  10.668  18.029  0.00  0.00    +0.000 C 
ENDBRANCH  20  21
ENDBRANCH   5  20
TORSDOF 4
ENDMDL
MODEL 6
REMARK VINA RESULT:      -6.1      2.682      4.422
REMARK  Name = 
REMARK  9 active torsions:
REMARK  status: ('A' for Active; 'I' for Inactive)
REMARK    1  A    between atoms: C_1  and  N_2
REMARK    2  A    between atoms: N_2  and  C_3
REMARK    3  A    between atoms: N_2  and  S_4
REMARK    4  A    between atoms: S_4  and  N_7
REMARK    5  A    between atoms: C_11  and  O_13
REMARK    6  A    between atoms: O_13  and  C_14
REMARK    7  A    between atoms: C_14  and  C_15
REMARK    8  A    between atoms: C_14  and  C_16
REMARK    9  A    between atoms: C_14  and  C_17
REMARK                            x       y       z     vdW  Elec       q    Type
REMARK                         _______ _______ _______ _____ _____    ______ ____
ROOT
ATOM      1  N   UNL     1       2.980   4.514  20.421  0.00  0.00    +0.000 NA
ATOM      2  C   UNL     1       1.623   5.223  20.469  0.00  0.00    +0.000 C 
ATOM      3  C   UNL     1       1.744   6.759  20.458  0.00  0.00    +0.000 C 
ATOM      4  N   UNL     1       2.632   7.213  19.402  0.00  0.00    +0.000 N 
ATOM      5  C   UNL     1       2.317   8.027  18.335  0.00  0.00    +0.000 C 
ATOM      6  O   UNL     1       3.135   8.288  17.460  0.00  0.00    +0.000 OA
ATOM      7  C   UNL     1       3.943   6.585  19.424  0.00  0.00    +0.000 C 
ATOM      8  C   UNL     1       3.859   5.031  19.253  0.00  0.00    +0.000 C 
ATOM      9  C   UNL     1       3.258   4.611  17.890  0.00  0.00    +0.000 C 
ATOM     10  C   UNL     1       4.114   5.022  16.691  0.00  0.00    +0.000 C 
ATOM     11  C   UNL     1       5.547   4.524  16.817  0.00  0.00    +0.000 C 
ATOM     12  C   UNL     1       6.189   4.940  18.139  0.00  0.00    +0.000 C 
ATOM     13  C   UNL     1       5.325   4.524  19.339  0.00  0.00    +0.000 C 
ENDROOT
BRANCH   1  14
ATOM     14  S   UNL     1       2.806   2.827  20.628  0.00  0.00    +0.000 S 
ATOM     15  O   UNL     1       1.595   2.518  21.346  0.00  0.00    +0.000 OA
ATOM     16  O   UNL     1       4.078   2.279  21.043  0.00  0.00    +0.000 OA
BRANCH  14  18
ATOM     17  C   UNL     1       3.491   1.263  18.621  0.00  0.00    +0.000 C 
ATOM     18  N   UNL     1       2.519   2.322  19.022  0.00  0.00    +0.000 NA
ATOM     19  C   UNL     1       1.135   1.867  18.757  0.00  0.00    +0.000 C 
ENDBRANCH  14  18
ENDBRANCH   1  14
BRANCH   5  20
ATOM     20  O   UNL     1       1.039   8.499  18.334  0.00  0.00    +0.000 OA
BRANCH  20  21
ATOM     21  C   UNL     1       0.827   9.883  18.746  0.00  0.00    +0.000 C 
ATOM     22  C   UNL     1       1.877  10.823  18.129  0.00  0.00    +0.000 C 
ATOM     23  C   UNL     1      -0.547  10.297  18.196  0.00  0.00    +0.000 C 
ATOM     24  C   UNL     1       0.767  10.010  20.277  0.00  0.00    +0.000 C 
ENDBRANCH  20  21
ENDBRANCH   5  20
TORSDOF 4
ENDMDL
MODEL 7
REMARK VINA RESULT:      -6.0      1.860      2.467
REMARK  Name = 
REMARK  9 active torsions:
REMARK  status: ('A' for Active; 'I' for Inactive)
REMARK    1  A    between atoms: C_1  and  N_2
REMARK    2  A    between atoms: N_2  and  C_3
REMARK    3  A    between atoms: N_2  and  S_4
REMARK    4  A    between atoms: S_4  and  N_7
REMARK    5  A    between atoms: C_11  and  O_13
REMARK    6  A    between atoms: O_13  and  C_14
REMARK    7  A    between atoms: C_14  and  C_15
REMARK    8  A    between atoms: C_14  and  C_16
REMARK    9  A    between atoms: C_14  and  C_17
REMARK                            x       y       z     vdW  Elec       q    Type
REMARK                         _______ _______ _______ _____ _____    ______ ____
ROOT
ATOM      1  N   UNL     1       3.756   5.322  17.573  0.00  0.00    +0.000 NA
ATOM      2  C   UNL     1       4.227   6.779  17.587  0.00  0.00    +0.000 C 
ATOM      3  C   UNL     1       3.069   7.790  17.488  0.00  0.00    +0.000 C 
ATOM      4  N   UNL     1       2.015   7.481  18.439  0.00  0.00    +0.000 N 
ATOM      5  C   UNL     1       1.561   8.273  19.472  0.00  0.00    +0.000 C 
ATOM      6  O   UNL     1       0.710   7.878  20.260  0.00  0.00    +0.000 OA
ATOM      7  C   UNL     1       1.526   6.116  18.354  0.00  0.00    +0.000 C 
ATOM      8  C   UNL     1       2.652   5.064  18.632  0.00  0.00    +0.000 C 
ATOM      9  C   UNL     1       3.232   5.173  20.063  0.00  0.00    +0.000 C 
ATOM     10  C   UNL     1       2.216   4.856  21.161  0.00  0.00    +0.000 C 
ATOM     11  C   UNL     1       1.560   3.497  20.954  0.00  0.00    +0.000 C 
ATOM     12  C   UNL     1       0.950   3.356  19.561  0.00  0.00    +0.000 C 
ATOM     13  C   UNL     1       1.976   3.676  18.463  0.00  0.00    +0.000 C 
ENDROOT
BRANCH   1  14
ATOM     14  S   UNL     1       5.077   4.242  17.491  0.00  0.00    +0.000 S 
ATOM     15  O   UNL     1       4.669   2.968  16.954  0.00  0.00    +0.000 OA
ATOM     16  O   UNL     1       5.820   4.326  18.728  0.00  0.00    +0.000 OA
BRANCH  14  18
ATOM     17  C   UNL     1       7.474   4.722  16.509  0.00  0.00    +0.000 C 
ATOM     18  N   UNL     1       6.022   4.964  16.265  0.00  0.00    +0.000 NA
ATOM     19  C   UNL     1       5.663   4.556  14.888  0.00  0.00    +0.000 C 
ENDBRANCH  14  18
ENDBRANCH   1  14
BRANCH   5  20
ATOM     20  O   UNL     1       2.138   9.506  19.543  0.00  0.00    +0.000 OA
BRANCH  20  21
ATOM     21  C   UNL     1       1.294  10.666  19.279  0.00  0.00    +0.000 C 
ATOM     22  C   UNL     1       2.042  11.735  18.464  0.00  0.00    +0.000 C 
ATOM     23  C   UNL     1       0.119  10.167  18.422  0.00  0.00    +0.000 C 
ATOM     24  C   UNL     1       0.705  11.238  20.579  0.00  0.00    +0.000 C 
ENDBRANCH  20  21
ENDBRANCH   5  20
TORSDOF 4
ENDMDL
MODEL 8
REMARK VINA RESULT:      -5.9      3.263      7.305
REMARK  Name = 
REMARK  9 active torsions:
REMARK  status: ('A' for Active; 'I' for Inactive)
REMARK    1  A    between atoms: C_1  and  N_2
REMARK    2  A    between atoms: N_2  and  C_3
REMARK    3  A    between atoms: N_2  and  S_4
REMARK    4  A    between atoms: S_4  and  N_7
REMARK    5  A    between atoms: C_11  and  O_13
REMARK    6  A    between atoms: O_13  and  C_14
REMARK    7  A    between atoms: C_14  and  C_15
REMARK    8  A    between atoms: C_14  and  C_16
REMARK    9  A    between atoms: C_14  and  C_17
REMARK                            x       y       z     vdW  Elec       q    Type
REMARK                         _______ _______ _______ _____ _____    ______ ____
ROOT
ATOM      1  N   UNL     1       4.149   4.673  17.638  0.00  0.00    +0.000 NA
ATOM      2  C   UNL     1       4.098   3.429  16.747  0.00  0.00    +0.000 C 
ATOM      3  C   UNL     1       4.214   3.757  15.246  0.00  0.00    +0.000 C 
ATOM      4  N   UNL     1       5.331   4.649  14.984  0.00  0.00    +0.000 N 
ATOM      5  C   UNL     1       6.436   4.399  14.200  0.00  0.00    +0.000 C 
ATOM      6  O   UNL     1       7.356   5.203  14.108  0.00  0.00    +0.000 OA
ATOM      7  C   UNL     1       5.316   5.861  15.784  0.00  0.00    +0.000 C 
ATOM      8  C   UNL     1       5.381   5.560  17.320  0.00  0.00    +0.000 C 
ATOM      9  C   UNL     1       6.690   4.845  17.734  0.00  0.00    +0.000 C 
ATOM     10  C   UNL     1       7.944   5.693  17.518  0.00  0.00    +0.000 C 
ATOM     11  C   UNL     1       7.839   7.049  18.201  0.00  0.00    +0.000 C 
ATOM     12  C   UNL     1       6.572   7.802  17.800  0.00  0.00    +0.000 C 
ATOM     13  C   UNL     1       5.316   6.945  18.019  0.00  0.00    +0.000 C 
ENDROOT
BRANCH   1  14
ATOM     14  S   UNL     1       3.825   4.281  19.269  0.00  0.00    +0.000 S 
ATOM     15  O   UNL     1       3.609   5.472  20.053  0.00  0.00    +0.000 OA
ATOM     16  O   UNL     1       4.764   3.269  19.697  0.00  0.00    +0.000 OA
BRANCH  14  18
ATOM     17  C   UNL     1       2.372   2.092  19.462  0.00  0.00    +0.000 C 
ATOM     18  N   UNL     1       2.289   3.546  19.137  0.00  0.00    +0.000 NA
ATOM     19  C   UNL     1       1.226   4.187  19.945  0.00  0.00    +0.000 C 
ENDBRANCH  14  18
ENDBRANCH   1  14
BRANCH   5  20
ATOM     20  O   UNL     1       6.420   3.198  13.556  0.00  0.00    +0.000 OA
BRANCH  20  21
ATOM     21  C   UNL     1       6.327   3.210  12.100  0.00  0.00    +0.000 C 
ATOM     22  C   UNL     1       6.745   1.858  11.496  0.00  0.00    +0.000 C 
ATOM     23  C   UNL     1       4.846   3.433  11.757  0.00  0.00    +0.000 C 
ATOM     24  C   UNL     1       7.121   4.381  11.497  0.00  0.00    +0.000 C 
ENDBRANCH  20  21
ENDBRANCH   5  20
TORSDOF 4
ENDMDL
MODEL 9
REMARK VINA RESULT:      -5.8      1.638      2.122
REMARK  Name = 
REMARK  9 active torsions:
REMARK  status: ('A' for Active; 'I' for Inactive)
REMARK    1  A    between atoms: C_1  and  N_2
REMARK    2  A    between atoms: N_2  and  C_3
REMARK    3  A    between atoms: N_2  and  S_4
REMARK    4  A    between atoms: S_4  and  N_7
REMARK    5  A    between atoms: C_11  and  O_13
REMARK    6  A    between atoms: O_13  and  C_14
REMARK    7  A    between atoms: C_14  and  C_15
REMARK    8  A    between atoms: C_14  and  C_16
REMARK    9  A    between atoms: C_14  and  C_17
REMARK                            x       y       z     vdW  Elec       q    Type
REMARK                         _______ _______ _______ _____ _____    ______ ____
ROOT
ATOM      1  N   UNL     1       3.579   5.556  17.793  0.00  0.00    +0.000 NA
ATOM      2  C   UNL     1       3.921   7.024  18.059  0.00  0.00    +0.000 C 
ATOM      3  C   UNL     1       2.674   7.916  18.218  0.00  0.00    +0.000 C 
ATOM      4  N   UNL     1       1.722   7.334  19.147  0.00  0.00    +0.000 N 
ATOM      5  C   UNL     1       1.275   7.872  20.335  0.00  0.00    +0.000 C 
ATOM      6  O   UNL     1       0.521   7.255  21.079  0.00  0.00    +0.000 OA
ATOM      7  C   UNL     1       1.349   5.966  18.830  0.00  0.00    +0.000 C 
ATOM      8  C   UNL     1       2.580   4.998  18.841  0.00  0.00    +0.000 C 
ATOM      9  C   UNL     1       3.249   4.898  20.233  0.00  0.00    +0.000 C 
ATOM     10  C   UNL     1       2.346   4.283  21.303  0.00  0.00    +0.000 C 
ATOM     11  C   UNL     1       1.799   2.928  20.877  0.00  0.00    +0.000 C 
ATOM     12  C   UNL     1       1.106   2.987  19.517  0.00  0.00    +0.000 C 
ATOM     13  C   UNL     1       2.018   3.605  18.447  0.00  0.00    +0.000 C 
ENDROOT
BRANCH   1  14
ATOM     14  S   UNL     1       4.980   4.647  17.435  0.00  0.00    +0.000 S 
ATOM     15  O   UNL     1       4.644   3.441  16.720  0.00  0.00    +0.000 OA
ATOM     16  O   UNL     1       5.817   4.605  18.614  0.00  0.00    +0.000 OA
BRANCH  14  18
ATOM     17  C   UNL     1       7.132   5.992  16.725  0.00  0.00    +0.000 C 
ATOM     18  N   UNL     1       5.746   5.653  16.287  0.00  0.00    +0.000 NA
ATOM     19  C   UNL     1       5.767   5.111  14.909  0.00  0.00    +0.000 C 
ENDBRANCH  14  18
ENDBRANCH   1  14
BRANCH   5  20
ATOM     20  O   UNL     1       1.745   9.121  20.609  0.00  0.00    +0.000 OA
BRANCH  20  21
ATOM     21  C   UNL     1       0.767  10.180  20.831  0.00  0.00    +0.000 C 
ATOM     22  C   UNL     1       1.377  11.572  20.586  0.00  0.00    +0.000 C 
ATOM     23  C   UNL     1      -0.347   9.972  19.793  0.00  0.00    +0.000 C 
ATOM     24  C   UNL     1       0.126  10.068  22.224  0.00  0.00    +0.000 C 
ENDBRANCH  20  21
ENDBRANCH   5  20
TORSDOF 4
ENDMDL
