MODEL 1
REMARK VINA RESULT:      -9.0      0.000      0.000
REMARK  Name = 
REMARK  5 active torsions:
REMARK  status: ('A' for Active; 'I' for Inactive)
REMARK    1  A    between atoms: C_2  and  C_25
REMARK    2  A    between atoms: N_3  and  C_4
REMARK    3  A    between atoms: C_10  and  C_11
REMARK    4  A    between atoms: N_14  and  C_15
REMARK    5  A    between atoms: C_15  and  C_16
REMARK                            x       y       z     vdW  Elec       q    Type
REMARK                         _______ _______ _______ _____ _____    ______ ____
ROOT
ATOM      1  C   UNL     1       4.536   3.647  18.859  0.00  0.00    +0.000 A 
ATOM      2  C   UNL     1       4.220   2.578  19.684  0.00  0.00    +0.000 A 
ATOM      3  N   UNL     1       3.254   2.911  20.604  0.00  0.00    +0.000 NA
ATOM      4  C   UNL     1       2.963   4.158  20.324  0.00  0.00    +0.000 A 
ATOM      5  C   UNL     1       1.984   5.001  20.943  0.00  0.00    +0.000 A 
ATOM      6  N   UNL     1       1.761   6.210  20.510  0.00  0.00    +0.000 NA
ATOM      7  C   UNL     1       2.486   6.677  19.416  0.00  0.00    +0.000 A 
ATOM      8  C   UNL     1       3.453   5.944  18.819  0.00  0.00    +0.000 A 
ATOM      9  N   UNL     1       3.695   4.660  19.281  0.00  0.00    +0.000 N 
ENDROOT
BRANCH   7  10
ATOM     10  C   UNL     1       2.087   7.978  18.958  0.00  0.00    +0.000 A 
ATOM     11  C   UNL     1       2.484   8.688  17.804  0.00  0.00    +0.000 A 
ATOM     12  N   UNL     1       1.896   9.880  17.697  0.00  0.00    +0.000 NA
ATOM     13  N   UNL     1       1.078   9.929  18.772  0.00  0.00    +0.000 N 
ATOM     14  C   UNL     1       1.178   8.821  19.567  0.00  0.00    +0.000 A 
BRANCH  13  15
ATOM     15  C   UNL     1       0.286  11.125  19.039  0.00  0.00    +0.000 C 
BRANCH  15  16
ATOM     16  C   UNL     1      -1.131  11.015  18.532  0.00  0.00    +0.000 A 
ATOM     17  C   UNL     1      -1.469  10.049  17.571  0.00  0.00    +0.000 A 
ATOM     18  C   UNL     1      -2.791   9.902  17.146  0.00  0.00    +0.000 A 
ATOM     19  C   UNL     1      -3.791  10.716  17.676  0.00  0.00    +0.000 A 
ATOM     20  C   UNL     1      -3.469  11.680  18.627  0.00  0.00    +0.000 A 
ATOM     21  C   UNL     1      -2.148  11.828  19.054  0.00  0.00    +0.000 A 
ENDBRANCH  15  16
ENDBRANCH  13  15
ENDBRANCH   7  10
BRANCH   1  24
ATOM     22  O   UNL     1       3.927   3.945  16.138  0.00  0.00    +0.000 OA
ATOM     23  C   UNL     1       5.107   3.815  16.443  0.00  0.00    +0.000 C 
ATOM     24  N   UNL     1       5.481   3.717  17.832  0.00  0.00    +0.000 N 
ATOM     25  H   UNL     1       6.461   3.715  18.079  0.00  0.00    +0.000 HD
BRANCH  23  26
ATOM     26  C   UNL     1       6.301   3.766  15.457  0.00  0.00    +0.000 C 
ATOM     27  C   UNL     1       5.952   3.921  13.950  0.00  0.00    +0.000 C 
ATOM     28  C   UNL     1       7.238   4.751  13.795  0.00  0.00    +0.000 C 
ATOM     29  C   UNL     1       7.137   5.067  15.298  0.00  0.00    +0.000 C 
ENDBRANCH  23  26
ENDBRANCH   1  24
TORSDOF 5
ENDMDL
MODEL 2
REMARK VINA RESULT:      -8.5      1.153      1.503
REMARK  Name = 
REMARK  5 active torsions:
REMARK  status: ('A' for Active; 'I' for Inactive)
REMARK    1  A    between atoms: C_2  and  C_25
REMARK    2  A    between atoms: N_3  and  C_4
REMARK    3  A    between atoms: C_10  and  C_11
REMARK    4  A    between atoms: N_14  and  C_15
REMARK    5  A    between atoms: C_15  and  C_16
REMARK                            x       y       z     vdW  Elec       q    Type
REMARK                         _______ _______ _______ _____ _____    ______ ____
ROOT
ATOM      1  C   UNL     1       3.783   3.398  17.893  0.00  0.00    +0.000 A 
ATOM      2  C   UNL     1       3.747   2.133  18.462  0.00  0.00    +0.000 A 
ATOM      3  N   UNL     1       3.219   2.159  19.731  0.00  0.00    +0.000 NA
ATOM      4  C   UNL     1       2.909   3.418  19.922  0.00  0.00    +0.000 A 
ATOM      5  C   UNL     1       2.281   4.014  21.064  0.00  0.00    +0.000 A 
ATOM      6  N   UNL     1       1.974   5.280  21.084  0.00  0.00    +0.000 NA
ATOM      7  C   UNL     1       2.254   6.058  19.962  0.00  0.00    +0.000 A 
ATOM      8  C   UNL     1       2.885   5.561  18.874  0.00  0.00    +0.000 A 
ATOM      9  N   UNL     1       3.217   4.216  18.854  0.00  0.00    +0.000 N 
ENDROOT
BRANCH   7  10
ATOM     10  C   UNL     1       1.780   7.410  20.051  0.00  0.00    +0.000 A 
ATOM     11  C   UNL     1       1.303   8.125  21.171  0.00  0.00    +0.000 A 
ATOM     12  N   UNL     1       0.951   9.378  20.878  0.00  0.00    +0.000 NA
ATOM     13  N   UNL     1       1.239   9.491  19.562  0.00  0.00    +0.000 N 
ATOM     14  C   UNL     1       1.716   8.328  19.022  0.00  0.00    +0.000 A 
BRANCH  13  15
ATOM     15  C   UNL     1       0.939  10.726  18.846  0.00  0.00    +0.000 C 
BRANCH  15  16
ATOM     16  C   UNL     1      -0.531  10.886  18.544  0.00  0.00    +0.000 A 
ATOM     17  C   UNL     1      -1.161  10.046  17.612  0.00  0.00    +0.000 A 
ATOM     18  C   UNL     1      -2.533  10.148  17.377  0.00  0.00    +0.000 A 
ATOM     19  C   UNL     1      -3.293  11.089  18.070  0.00  0.00    +0.000 A 
ATOM     20  C   UNL     1      -2.681  11.931  18.995  0.00  0.00    +0.000 A 
ATOM     21  C   UNL     1      -1.309  11.829  19.232  0.00  0.00    +0.000 A 
ENDBRANCH  15  16
ENDBRANCH  13  15
ENDBRANCH   7  10
BRANCH   1  24
ATOM     22  O   UNL     1       6.220   4.718  17.467  0.00  0.00    +0.000 OA
ATOM     23  C   UNL     1       5.509   4.512  16.490  0.00  0.00    +0.000 C 
ATOM     24  N   UNL     1       4.272   3.787  16.644  0.00  0.00    +0.000 N 
ATOM     25  H   UNL     1       3.745   3.532  15.820  0.00  0.00    +0.000 HD
BRANCH  23  26
ATOM     26  C   UNL     1       5.816   4.946  15.034  0.00  0.00    +0.000 C 
ATOM     27  C   UNL     1       7.302   4.848  14.589  0.00  0.00    +0.000 C 
ATOM     28  C   UNL     1       6.801   4.380  13.212  0.00  0.00    +0.000 C 
ATOM     29  C   UNL     1       5.512   3.913  13.913  0.00  0.00    +0.000 C 
ENDBRANCH  23  26
ENDBRANCH   1  24
TORSDOF 5
ENDMDL
MODEL 3
REMARK VINA RESULT:      -8.1      1.648      2.117
REMARK  Name = 
REMARK  5 active torsions:
REMARK  status: ('A' for Active; 'I' for Inactive)
REMARK    1  A    between atoms: C_2  and  C_25
REMARK    2  A    between atoms: N_3  and  C_4
REMARK    3  A    between atoms: C_10  and  C_11
REMARK    4  A    between atoms: N_14  and  C_15
REMARK    5  A    between atoms: C_15  and  C_16
REMARK                            x       y       z     vdW  Elec       q    Type
REMARK                         _______ _______ _______ _____ _____    ______ ____
ROOT
ATOM      1  C   UNL     1       4.430   3.597  18.984  0.00  0.00    +0.000 A 
ATOM      2  C   UNL     1       4.109   2.491  19.757  0.00  0.00    +0.000 A 
ATOM      3  N   UNL     1       3.135   2.780  20.683  0.00  0.00    +0.000 NA
ATOM      4  C   UNL     1       2.844   4.038  20.457  0.00  0.00    +0.000 A 
ATOM      5  C   UNL     1       1.858   4.851  21.105  0.00  0.00    +0.000 A 
ATOM      6  N   UNL     1       1.636   6.078  20.726  0.00  0.00    +0.000 NA
ATOM      7  C   UNL     1       2.369   6.595  19.660  0.00  0.00    +0.000 A 
ATOM      8  C   UNL     1       3.342   5.891  19.040  0.00  0.00    +0.000 A 
ATOM      9  N   UNL     1       3.583   4.588  19.445  0.00  0.00    +0.000 N 
ENDROOT
BRANCH   7  10
ATOM     10  C   UNL     1       1.972   7.915  19.259  0.00  0.00    +0.000 A 
ATOM     11  C   UNL     1       1.897   8.479  17.966  0.00  0.00    +0.000 A 
ATOM     12  N   UNL     1       1.475   9.744  17.973  0.00  0.00    +0.000 NA
ATOM     13  N   UNL     1       1.234   9.992  19.280  0.00  0.00    +0.000 N 
ATOM     14  C   UNL     1       1.540   8.932  20.087  0.00  0.00    +0.000 A 
BRANCH  13  15
ATOM     15  C   UNL     1       0.798  11.316  19.709  0.00  0.00    +0.000 C 
BRANCH  15  16
ATOM     16  C   UNL     1      -0.130  11.271  20.899  0.00  0.00    +0.000 A 
ATOM     17  C   UNL     1       0.128  10.399  21.968  0.00  0.00    +0.000 A 
ATOM     18  C   UNL     1      -0.691  10.399  23.099  0.00  0.00    +0.000 A 
ATOM     19  C   UNL     1      -1.777  11.270  23.176  0.00  0.00    +0.000 A 
ATOM     20  C   UNL     1      -2.047  12.138  22.122  0.00  0.00    +0.000 A 
ATOM     21  C   UNL     1      -1.228  12.140  20.990  0.00  0.00    +0.000 A 
ENDBRANCH  15  16
ENDBRANCH  13  15
ENDBRANCH   7  10
BRANCH   1  24
ATOM     22  O   UNL     1       3.842   3.877  16.257  0.00  0.00    +0.000 OA
ATOM     23  C   UNL     1       5.023   3.801  16.577  0.00  0.00    +0.000 C 
ATOM     24  N   UNL     1       5.384   3.714  17.971  0.00  0.00    +0.000 N 
ATOM     25  H   UNL     1       6.360   3.757  18.229  0.00  0.00    +0.000 HD
BRANCH  23  26
ATOM     26  C   UNL     1       6.231   3.812  15.606  0.00  0.00    +0.000 C 
ATOM     27  C   UNL     1       5.903   4.066  14.108  0.00  0.00    +0.000 C 
ATOM     28  C   UNL     1       7.194   4.899  14.026  0.00  0.00    +0.000 C 
ATOM     29  C   UNL     1       7.073   5.116  15.545  0.00  0.00    +0.000 C 
ENDBRANCH  23  26
ENDBRANCH   1  24
TORSDOF 5
ENDMDL
MODEL 4
REMARK VINA RESULT:      -8.0      1.810      2.878
REMARK  Name = 
REMARK  5 active torsions:
REMARK  status: ('A' for Active; 'I' for Inactive)
REMARK    1  A    between atoms: C_2  and  C_25
REMARK    2  A    between atoms: N_3  and  C_4
REMARK    3  A    between atoms: C_10  and  C_11
REMARK    4  A    between atoms: N_14  and  C_15
REMARK    5  A    between atoms: C_15  and  C_16
REMARK                            x       y       z     vdW  Elec       q    Type
REMARK                         _______ _______ _______ _____ _____    ______ ____
ROOT
ATOM      1  C   UNL     1       4.176   3.644  18.708  0.00  0.00    +0.000 A 
ATOM      2  C   UNL     1       3.894   2.581  19.554  0.00  0.00    +0.000 A 
ATOM      3  N   UNL     1       3.046   2.949  20.570  0.00  0.00    +0.000 NA
ATOM      4  C   UNL     1       2.788   4.211  20.331  0.00  0.00    +0.000 A 
ATOM      5  C   UNL     1       1.919   5.092  21.053  0.00  0.00    +0.000 A 
ATOM      6  N   UNL     1       1.711   6.315  20.654  0.00  0.00    +0.000 NA
ATOM      7  C   UNL     1       2.341   6.760  19.494  0.00  0.00    +0.000 A 
ATOM      8  C   UNL     1       3.205   5.989  18.796  0.00  0.00    +0.000 A 
ATOM      9  N   UNL     1       3.432   4.690  19.222  0.00  0.00    +0.000 N 
ENDROOT
BRANCH   7  10
ATOM     10  C   UNL     1       1.961   8.084  19.089  0.00  0.00    +0.000 A 
ATOM     11  C   UNL     1       2.295   8.798  17.917  0.00  0.00    +0.000 A 
ATOM     12  N   UNL     1       1.749  10.014  17.874  0.00  0.00    +0.000 NA
ATOM     13  N   UNL     1       1.020  10.076  19.011  0.00  0.00    +0.000 N 
ATOM     14  C   UNL     1       1.137   8.950  19.779  0.00  0.00    +0.000 A 
BRANCH  13  15
ATOM     15  C   UNL     1       0.300  11.297  19.359  0.00  0.00    +0.000 C 
BRANCH  15  16
ATOM     16  C   UNL     1       1.206  12.499  19.471  0.00  0.00    +0.000 A 
ATOM     17  C   UNL     1       1.219  13.476  18.464  0.00  0.00    +0.000 A 
ATOM     18  C   UNL     1       2.007  14.621  18.595  0.00  0.00    +0.000 A 
ATOM     19  C   UNL     1       2.792  14.804  19.732  0.00  0.00    +0.000 A 
ATOM     20  C   UNL     1       2.793  13.841  20.737  0.00  0.00    +0.000 A 
ATOM     21  C   UNL     1       2.003  12.696  20.609  0.00  0.00    +0.000 A 
ENDBRANCH  15  16
ENDBRANCH  13  15
ENDBRANCH   7  10
BRANCH   1  24
ATOM     22  O   UNL     1       6.776   4.692  18.686  0.00  0.00    +0.000 OA
ATOM     23  C   UNL     1       6.322   4.282  17.624  0.00  0.00    +0.000 C 
ATOM     24  N   UNL     1       5.012   3.680  17.590  0.00  0.00    +0.000 N 
ATOM     25  H   UNL     1       4.690   3.252  16.732  0.00  0.00    +0.000 HD
BRANCH  23  26
ATOM     26  C   UNL     1       7.042   4.319  16.252  0.00  0.00    +0.000 C 
ATOM     27  C   UNL     1       6.267   3.701  15.055  0.00  0.00    +0.000 C 
ATOM     28  C   UNL     1       6.830   4.834  14.179  0.00  0.00    +0.000 C 
ATOM     29  C   UNL     1       6.995   5.660  15.468  0.00  0.00    +0.000 C 
ENDBRANCH  23  26
ENDBRANCH   1  24
TORSDOF 5
ENDMDL
MODEL 5
REMARK VINA RESULT:      -8.0      2.882      8.683
REMARK  Name = 
REMARK  5 active torsions:
REMARK  status: ('A' for Active; 'I' for Inactive)
REMARK    1  A    between atoms: C_2  and  C_25
REMARK    2  A    between atoms: N_3  and  C_4
REMARK    3  A    between atoms: C_10  and  C_11
REMARK    4  A    between atoms: N_14  and  C_15
REMARK    5  A    between atoms: C_15  and  C_16
REMARK                            x       y       z     vdW  Elec       q    Type
REMARK                         _______ _______ _______ _____ _____    ______ ____
ROOT
ATOM      1  C   UNL     1      -0.974  11.476  19.747  0.00  0.00    +0.000 A 
ATOM      2  C   UNL     1      -1.188  12.340  20.811  0.00  0.00    +0.000 A 
ATOM      3  N   UNL     1      -0.665  11.846  21.982  0.00  0.00    +0.000 NA
ATOM      4  C   UNL     1      -0.113  10.710  21.632  0.00  0.00    +0.000 A 
ATOM      5  C   UNL     1       0.620   9.790  22.449  0.00  0.00    +0.000 A 
ATOM      6  N   UNL     1       1.171   8.724  21.942  0.00  0.00    +0.000 NA
ATOM      7  C   UNL     1       1.049   8.489  20.574  0.00  0.00    +0.000 A 
ATOM      8  C   UNL     1       0.333   9.298  19.761  0.00  0.00    +0.000 A 
ATOM      9  N   UNL     1      -0.258  10.430  20.300  0.00  0.00    +0.000 N 
ENDROOT
BRANCH   7  10
ATOM     10  C   UNL     1       1.780   7.347  20.105  0.00  0.00    +0.000 A 
ATOM     11  C   UNL     1       1.861   6.045  20.647  0.00  0.00    +0.000 A 
ATOM     12  N   UNL     1       2.639   5.230  19.932  0.00  0.00    +0.000 NA
ATOM     13  N   UNL     1       3.035   5.999  18.893  0.00  0.00    +0.000 N 
ATOM     14  C   UNL     1       2.563   7.280  18.970  0.00  0.00    +0.000 A 
BRANCH  13  15
ATOM     15  C   UNL     1       3.960   5.469  17.897  0.00  0.00    +0.000 C 
BRANCH  15  16
ATOM     16  C   UNL     1       5.379   5.937  18.107  0.00  0.00    +0.000 A 
ATOM     17  C   UNL     1       6.177   5.358  19.106  0.00  0.00    +0.000 A 
ATOM     18  C   UNL     1       7.511   5.742  19.263  0.00  0.00    +0.000 A 
ATOM     19  C   UNL     1       8.063   6.708  18.423  0.00  0.00    +0.000 A 
ATOM     20  C   UNL     1       7.282   7.293  17.430  0.00  0.00    +0.000 A 
ATOM     21  C   UNL     1       5.949   6.909  17.272  0.00  0.00    +0.000 A 
ENDBRANCH  15  16
ENDBRANCH  13  15
ENDBRANCH   7  10
BRANCH   1  24
ATOM     22  O   UNL     1      -2.827   9.806  18.466  0.00  0.00    +0.000 OA
ATOM     23  C   UNL     1      -2.294  10.681  17.794  0.00  0.00    +0.000 C 
ATOM     24  N   UNL     1      -1.377  11.604  18.416  0.00  0.00    +0.000 N 
ATOM     25  H   UNL     1      -1.024  12.384  17.878  0.00  0.00    +0.000 HD
BRANCH  23  26
ATOM     26  C   UNL     1      -2.524  10.933  16.282  0.00  0.00    +0.000 C 
ATOM     27  C   UNL     1      -2.515   9.676  15.369  0.00  0.00    +0.000 C 
ATOM     28  C   UNL     1      -3.652  10.325  14.560  0.00  0.00    +0.000 C 
ATOM     29  C   UNL     1      -3.993  11.142  15.819  0.00  0.00    +0.000 C 
ENDBRANCH  23  26
ENDBRANCH   1  24
TORSDOF 5
ENDMDL
MODEL 6
REMARK VINA RESULT:      -8.0      2.167      2.577
REMARK  Name = 
REMARK  5 active torsions:
REMARK  status: ('A' for Active; 'I' for Inactive)
REMARK    1  A    between atoms: C_2  and  C_25
REMARK    2  A    between atoms: N_3  and  C_4
REMARK    3  A    between atoms: C_10  and  C_11
REMARK    4  A    between atoms: N_14  and  C_15
REMARK    5  A    between atoms: C_15  and  C_16
REMARK                            x       y       z     vdW  Elec       q    Type
REMARK                         _______ _______ _______ _____ _____    ______ ____
ROOT
ATOM      1  C   UNL     1       4.414   4.501  18.603  0.00  0.00    +0.000 A 
ATOM      2  C   UNL     1       4.136   3.142  18.579  0.00  0.00    +0.000 A 
ATOM      3  N   UNL     1       2.995   2.842  19.284  0.00  0.00    +0.000 NA
ATOM      4  C   UNL     1       2.565   4.006  19.706  0.00  0.00    +0.000 A 
ATOM      5  C   UNL     1       1.381   4.295  20.459  0.00  0.00    +0.000 A 
ATOM      6  N   UNL     1       1.047   5.520  20.753  0.00  0.00    +0.000 NA
ATOM      7  C   UNL     1       1.859   6.563  20.311  0.00  0.00    +0.000 A 
ATOM      8  C   UNL     1       3.011   6.348  19.636  0.00  0.00    +0.000 A 
ATOM      9  N   UNL     1       3.369   5.046  19.326  0.00  0.00    +0.000 N 
ENDROOT
BRANCH   7  10
ATOM     10  C   UNL     1       1.345   7.871  20.599  0.00  0.00    +0.000 A 
ATOM     11  C   UNL     1       0.810   8.384  21.801  0.00  0.00    +0.000 A 
ATOM     12  N   UNL     1       0.433   9.660  21.701  0.00  0.00    +0.000 NA
ATOM     13  N   UNL     1       0.764   9.991  20.433  0.00  0.00    +0.000 N 
ATOM     14  C   UNL     1       1.291   8.943  19.730  0.00  0.00    +0.000 A 
BRANCH  13  15
ATOM     15  C   UNL     1       0.454  11.320  19.915  0.00  0.00    +0.000 C 
BRANCH  15  16
ATOM     16  C   UNL     1      -0.934  11.412  19.330  0.00  0.00    +0.000 A 
ATOM     17  C   UNL     1      -1.254  10.726  18.149  0.00  0.00    +0.000 A 
ATOM     18  C   UNL     1      -2.554  10.757  17.639  0.00  0.00    +0.000 A 
ATOM     19  C   UNL     1      -3.549  11.472  18.303  0.00  0.00    +0.000 A 
ATOM     20  C   UNL     1      -3.245  12.161  19.474  0.00  0.00    +0.000 A 
ATOM     21  C   UNL     1      -1.946  12.130  19.986  0.00  0.00    +0.000 A 
ENDBRANCH  15  16
ENDBRANCH  13  15
ENDBRANCH   7  10
BRANCH   1  24
ATOM     22  O   UNL     1       6.732   5.262  19.984  0.00  0.00    +0.000 OA
ATOM     23  C   UNL     1       6.634   5.602  18.810  0.00  0.00    +0.000 C 
ATOM     24  N   UNL     1       5.490   5.188  18.037  0.00  0.00    +0.000 N 
ATOM     25  H   UNL     1       5.469   5.384  17.046  0.00  0.00    +0.000 HD
BRANCH  23  26
ATOM     26  C   UNL     1       7.665   6.448  18.020  0.00  0.00    +0.000 C 
ATOM     27  C   UNL     1       7.080   7.568  17.113  0.00  0.00    +0.000 C 
ATOM     28  C   UNL     1       8.275   8.446  17.525  0.00  0.00    +0.000 C 
ATOM     29  C   UNL     1       8.386   7.585  18.796  0.00  0.00    +0.000 C 
ENDBRANCH  23  26
ENDBRANCH   1  24
TORSDOF 5
ENDMDL
MODEL 7
REMARK VINA RESULT:      -8.0      1.114      1.337
REMARK  Name = 
REMARK  5 active torsions:
REMARK  status: ('A' for Active; 'I' for Inactive)
REMARK    1  A    between atoms: C_2  and  C_25
REMARK    2  A    between atoms: N_3  and  C_4
REMARK    3  A    between atoms: C_10  and  C_11
REMARK    4  A    between atoms: N_14  and  C_15
REMARK    5  A    between atoms: C_15  and  C_16
REMARK                            x       y       z     vdW  Elec       q    Type
REMARK                         _______ _______ _______ _____ _____    ______ ____
ROOT
ATOM      1  C   UNL     1       4.016   3.862  17.284  0.00  0.00    +0.000 A 
ATOM      2  C   UNL     1       4.029   2.691  18.029  0.00  0.00    +0.000 A 
ATOM      3  N   UNL     1       3.557   2.893  19.304  0.00  0.00    +0.000 NA
ATOM      4  C   UNL     1       3.231   4.162  19.328  0.00  0.00    +0.000 A 
ATOM      5  C   UNL     1       2.642   4.908  20.399  0.00  0.00    +0.000 A 
ATOM      6  N   UNL     1       2.312   6.160  20.252  0.00  0.00    +0.000 NA
ATOM      7  C   UNL     1       2.528   6.772  19.019  0.00  0.00    +0.000 A 
ATOM      8  C   UNL     1       3.120   6.132  17.986  0.00  0.00    +0.000 A 
ATOM      9  N   UNL     1       3.477   4.802  18.142  0.00  0.00    +0.000 N 
ENDROOT
BRANCH   7  10
ATOM     10  C   UNL     1       2.032   8.116  18.935  0.00  0.00    +0.000 A 
ATOM     11  C   UNL     1       2.229   9.087  17.928  0.00  0.00    +0.000 A 
ATOM     12  N   UNL     1       1.603  10.237  18.184  0.00  0.00    +0.000 NA
ATOM     13  N   UNL     1       0.960   9.998  19.348  0.00  0.00    +0.000 N 
ATOM     14  C   UNL     1       1.209   8.748  19.845  0.00  0.00    +0.000 A 
BRANCH  13  15
ATOM     15  C   UNL     1       0.191  11.055  19.995  0.00  0.00    +0.000 C 
BRANCH  15  16
ATOM     16  C   UNL     1      -1.183  11.231  19.395  0.00  0.00    +0.000 A 
ATOM     17  C   UNL     1      -1.597  10.429  18.320  0.00  0.00    +0.000 A 
ATOM     18  C   UNL     1      -2.890  10.544  17.804  0.00  0.00    +0.000 A 
ATOM     19  C   UNL     1      -3.784  11.460  18.355  0.00  0.00    +0.000 A 
ATOM     20  C   UNL     1      -3.386  12.265  19.419  0.00  0.00    +0.000 A 
ATOM     21  C   UNL     1      -2.094  12.150  19.938  0.00  0.00    +0.000 A 
ENDBRANCH  15  16
ENDBRANCH  13  15
ENDBRANCH   7  10
BRANCH   1  24
ATOM     22  O   UNL     1       6.635   4.529  16.538  0.00  0.00    +0.000 OA
ATOM     23  C   UNL     1       5.792   4.468  15.651  0.00  0.00    +0.000 C 
ATOM     24  N   UNL     1       4.443   4.072  15.971  0.00  0.00    +0.000 N 
ATOM     25  H   UNL     1       3.782   3.924  15.220  0.00  0.00    +0.000 HD
BRANCH  23  26
ATOM     26  C   UNL     1       6.031   4.759  14.148  0.00  0.00    +0.000 C 
ATOM     27  C   UNL     1       7.515   4.853  13.696  0.00  0.00    +0.000 C 
ATOM     28  C   UNL     1       7.105   4.139  12.396  0.00  0.00    +0.000 C 
ATOM     29  C   UNL     1       5.908   3.557  13.170  0.00  0.00    +0.000 C 
ENDBRANCH  23  26
ENDBRANCH   1  24
TORSDOF 5
ENDMDL
MODEL 8
REMARK VINA RESULT:      -7.9      3.148      5.535
REMARK  Name = 
REMARK  5 active torsions:
REMARK  status: ('A' for Active; 'I' for Inactive)
REMARK    1  A    between atoms: C_2  and  C_25
REMARK    2  A    between atoms: N_3  and  C_4
REMARK    3  A    between atoms: C_10  and  C_11
REMARK    4  A    between atoms: N_14  and  C_15
REMARK    5  A    between atoms: C_15  and  C_16
REMARK                            x       y       z     vdW  Elec       q    Type
REMARK                         _______ _______ _______ _____ _____    ______ ____
ROOT
ATOM      1  C   UNL     1       2.613   6.839  18.719  0.00  0.00    +0.000 A 
ATOM      2  C   UNL     1       3.321   7.132  17.562  0.00  0.00    +0.000 A 
ATOM      3  N   UNL     1       3.134   8.434  17.165  0.00  0.00    +0.000 NA
ATOM      4  C   UNL     1       2.348   8.939  18.084  0.00  0.00    +0.000 A 
ATOM      5  C   UNL     1       1.862  10.282  18.197  0.00  0.00    +0.000 A 
ATOM      6  N   UNL     1       1.134  10.656  19.211  0.00  0.00    +0.000 NA
ATOM      7  C   UNL     1       0.837   9.726  20.205  0.00  0.00    +0.000 A 
ATOM      8  C   UNL     1       1.231   8.434  20.131  0.00  0.00    +0.000 A 
ATOM      9  N   UNL     1       2.001   8.034  19.051  0.00  0.00    +0.000 N 
ENDROOT
BRANCH   7  10
ATOM     10  C   UNL     1       0.121  10.270  21.324  0.00  0.00    +0.000 A 
ATOM     11  C   UNL     1      -0.299   9.640  22.517  0.00  0.00    +0.000 A 
ATOM     12  N   UNL     1      -0.941  10.467  23.344  0.00  0.00    +0.000 NA
ATOM     13  N   UNL     1      -0.903  11.655  22.700  0.00  0.00    +0.000 N 
ATOM     14  C   UNL     1      -0.297  11.577  21.476  0.00  0.00    +0.000 A 
BRANCH  13  15
ATOM     15  C   UNL     1      -1.561  12.823  23.274  0.00  0.00    +0.000 C 
BRANCH  15  16
ATOM     16  C   UNL     1      -3.065  12.762  23.164  0.00  0.00    +0.000 A 
ATOM     17  C   UNL     1      -3.857  12.623  24.314  0.00  0.00    +0.000 A 
ATOM     18  C   UNL     1      -5.251  12.630  24.223  0.00  0.00    +0.000 A 
ATOM     19  C   UNL     1      -5.870  12.776  22.983  0.00  0.00    +0.000 A 
ATOM     20  C   UNL     1      -5.097  12.911  21.833  0.00  0.00    +0.000 A 
ATOM     21  C   UNL     1      -3.703  12.906  21.922  0.00  0.00    +0.000 A 
ENDBRANCH  15  16
ENDBRANCH  13  15
ENDBRANCH   7  10
BRANCH   1  24
ATOM     22  O   UNL     1       1.482   4.489  17.690  0.00  0.00    +0.000 OA
ATOM     23  C   UNL     1       1.878   4.467  18.850  0.00  0.00    +0.000 C 
ATOM     24  N   UNL     1       2.520   5.630  19.411  0.00  0.00    +0.000 N 
ATOM     25  H   UNL     1       2.935   5.567  20.331  0.00  0.00    +0.000 HD
BRANCH  23  26
ATOM     26  C   UNL     1       1.781   3.262  19.821  0.00  0.00    +0.000 C 
ATOM     27  C   UNL     1       3.130   2.696  20.347  0.00  0.00    +0.000 C 
ATOM     28  C   UNL     1       2.444   2.478  21.706  0.00  0.00    +0.000 C 
ATOM     29  C   UNL     1       1.445   3.579  21.305  0.00  0.00    +0.000 C 
ENDBRANCH  23  26
ENDBRANCH   1  24
TORSDOF 5
ENDMDL
MODEL 9
REMARK VINA RESULT:      -7.8      2.361      8.719
REMARK  Name = 
REMARK  5 active torsions:
REMARK  status: ('A' for Active; 'I' for Inactive)
REMARK    1  A    between atoms: C_2  and  C_25
REMARK    2  A    between atoms: N_3  and  C_4
REMARK    3  A    between atoms: C_10  and  C_11
REMARK    4  A    between atoms: N_14  and  C_15
REMARK    5  A    between atoms: C_15  and  C_16
REMARK                            x       y       z     vdW  Elec       q    Type
REMARK                         _______ _______ _______ _____ _____    ______ ____
ROOT
ATOM      1  C   UNL     1       2.177   6.334  19.752  0.00  0.00    +0.000 A 
ATOM      2  C   UNL     1       1.717   5.609  20.841  0.00  0.00    +0.000 A 
ATOM      3  N   UNL     1       2.260   4.347  20.881  0.00  0.00    +0.000 NA
ATOM      4  C   UNL     1       3.064   4.313  19.846  0.00  0.00    +0.000 A 
ATOM      5  C   UNL     1       3.926   3.248  19.426  0.00  0.00    +0.000 A 
ATOM      6  N   UNL     1       4.723   3.385  18.405  0.00  0.00    +0.000 NA
ATOM      7  C   UNL     1       4.739   4.599  17.722  0.00  0.00    +0.000 A 
ATOM      8  C   UNL     1       3.918   5.623  18.045  0.00  0.00    +0.000 A 
ATOM      9  N   UNL     1       3.065   5.478  19.127  0.00  0.00    +0.000 N 
ENDROOT
BRANCH   7  10
ATOM     10  C   UNL     1       5.727   4.676  16.683  0.00  0.00    +0.000 A 
ATOM     11  C   UNL     1       7.136   4.663  16.777  0.00  0.00    +0.000 A 
ATOM     12  N   UNL     1       7.738   4.746  15.590  0.00  0.00    +0.000 NA
ATOM     13  N   UNL     1       6.710   4.773  14.713  0.00  0.00    +0.000 N 
ATOM     14  C   UNL     1       5.488   4.757  15.326  0.00  0.00    +0.000 A 
BRANCH  13  15
ATOM     15  C   UNL     1       6.966   4.916  13.283  0.00  0.00    +0.000 C 
BRANCH  15  16
ATOM     16  C   UNL     1       6.546   3.704  12.488  0.00  0.00    +0.000 A 
ATOM     17  C   UNL     1       5.187   3.442  12.256  0.00  0.00    +0.000 A 
ATOM     18  C   UNL     1       4.797   2.358  11.468  0.00  0.00    +0.000 A 
ATOM     19  C   UNL     1       5.758   1.523  10.902  0.00  0.00    +0.000 A 
ATOM     20  C   UNL     1       7.110   1.768  11.127  0.00  0.00    +0.000 A 
ATOM     21  C   UNL     1       7.502   2.853  11.914  0.00  0.00    +0.000 A 
ENDBRANCH  15  16
ENDBRANCH  13  15
ENDBRANCH   7  10
BRANCH   1  24
ATOM     22  O   UNL     1       1.360   8.384  21.481  0.00  0.00    +0.000 OA
ATOM     23  C   UNL     1       1.373   8.628  20.280  0.00  0.00    +0.000 C 
ATOM     24  N   UNL     1       1.839   7.628  19.351  0.00  0.00    +0.000 N 
ATOM     25  H   UNL     1       1.943   7.874  18.376  0.00  0.00    +0.000 HD
BRANCH  23  26
ATOM     26  C   UNL     1       0.944   9.962  19.618  0.00  0.00    +0.000 C 
ATOM     27  C   UNL     1       0.131   9.843  18.299  0.00  0.00    +0.000 C 
ATOM     28  C   UNL     1      -0.705  11.044  18.773  0.00  0.00    +0.000 C 
ATOM     29  C   UNL     1      -0.304  10.674  20.212  0.00  0.00    +0.000 C 
ENDBRANCH  23  26
ENDBRANCH   1  24
TORSDOF 5
ENDMDL
