MODEL 1
REMARK VINA RESULT:      -6.8      0.000      0.000
REMARK  Name = 
REMARK  8 active torsions:
REMARK  status: ('A' for Active; 'I' for Inactive)
REMARK    1  A    between atoms: C_1  and  C_2
REMARK    2  A    between atoms: C_2  and  C_3
REMARK    3  A    between atoms: C_3  and  C_4
REMARK    4  A    between atoms: C_4  and  O_5
REMARK    5  A    between atoms: O_5  and  C_6
REMARK    6  A    between atoms: C_9  and  C_10
REMARK    7  A    between atoms: C_10  and  O_12
REMARK    8  A    between atoms: O_12  and  C_13
REMARK                            x       y       z     vdW  Elec       q    Type
REMARK                         _______ _______ _______ _____ _____    ______ ____
ROOT
ATOM      1  C   UNL     1       6.026   5.068  14.911  0.00  0.00    +0.000 A 
ATOM      2  C   UNL     1       6.582   4.157  15.788  0.00  0.00    +0.000 A 
ATOM      3  C   UNL     1       6.414   4.245  17.149  0.00  0.00    +0.000 A 
ATOM      4  C   UNL     1       5.713   5.330  17.707  0.00  0.00    +0.000 A 
ATOM      5  C   UNL     1       5.135   6.265  16.847  0.00  0.00    +0.000 A 
ATOM      6  C   UNL     1       5.283   6.149  15.447  0.00  0.00    +0.000 A 
ENDROOT
BRANCH   4   7
ATOM      7  C   UNL     1       5.607   5.360  19.197  0.00  0.00    +0.000 C 
ATOM      8  O   UNL     1       6.563   5.223  19.932  0.00  0.00    +0.000 OA
BRANCH   7   9
ATOM      9  O   UNL     1       4.290   5.552  19.599  0.00  0.00    +0.000 OA
BRANCH   9  10
ATOM     10  C   UNL     1       3.394   4.527  19.251  0.00  0.00    +0.000 A 
ATOM     11  C   UNL     1       2.256   4.768  18.487  0.00  0.00    +0.000 A 
ATOM     12  C   UNL     1       1.370   3.720  18.228  0.00  0.00    +0.000 A 
ATOM     13  C   UNL     1       1.653   2.470  18.755  0.00  0.00    +0.000 A 
ATOM     14  N   UNL     1       2.738   2.207  19.514  0.00  0.00    +0.000 NA
ATOM     15  C   UNL     1       3.582   3.246  19.758  0.00  0.00    +0.000 A 
ENDBRANCH   9  10
ENDBRANCH   7   9
ENDBRANCH   4   7
BRANCH   1  16
ATOM     16  O   UNL     1       6.164   4.911  13.550  0.00  0.00    +0.000 OA
BRANCH  16  17
ATOM     17  C   UNL     1       6.334   3.532  13.142  0.00  0.00    +0.000 C 
BRANCH  17  18
ATOM     18  C   UNL     1       5.542   3.272  11.874  0.00  0.00    +0.000 C 
BRANCH  18  20
ATOM     19  C   UNL     1       6.967   1.444  10.902  0.00  0.00    +0.000 C 
ATOM     20  C   UNL     1       5.605   1.803  11.465  0.00  0.00    +0.000 C 
ENDBRANCH  18  20
ENDBRANCH  17  18
ENDBRANCH  16  17
ENDBRANCH   1  16
TORSDOF 7
ENDMDL
MODEL 2
REMARK VINA RESULT:      -6.7      2.282      6.463
REMARK  Name = 
REMARK  8 active torsions:
REMARK  status: ('A' for Active; 'I' for Inactive)
REMARK    1  A    between atoms: C_1  and  C_2
REMARK    2  A    between atoms: C_2  and  C_3
REMARK    3  A    between atoms: C_3  and  C_4
REMARK    4  A    between atoms: C_4  and  O_5
REMARK    5  A    between atoms: O_5  and  C_6
REMARK    6  A    between atoms: C_9  and  C_10
REMARK    7  A    between atoms: C_10  and  O_12
REMARK    8  A    between atoms: O_12  and  C_13
REMARK                            x       y       z     vdW  Elec       q    Type
REMARK                         _______ _______ _______ _____ _____    ______ ____
ROOT
ATOM      1  C   UNL     1       3.753   5.260  19.473  0.00  0.00    +0.000 A 
ATOM      2  C   UNL     1       4.777   4.335  19.531  0.00  0.00    +0.000 A 
ATOM      3  C   UNL     1       5.795   4.302  18.609  0.00  0.00    +0.000 A 
ATOM      4  C   UNL     1       5.787   5.185  17.513  0.00  0.00    +0.000 A 
ATOM      5  C   UNL     1       4.768   6.134  17.430  0.00  0.00    +0.000 A 
ATOM      6  C   UNL     1       3.743   6.185  18.400  0.00  0.00    +0.000 A 
ENDROOT
BRANCH   4   7
ATOM      7  C   UNL     1       6.917   5.056  16.545  0.00  0.00    +0.000 C 
ATOM      8  O   UNL     1       7.926   4.427  16.785  0.00  0.00    +0.000 OA
BRANCH   7   9
ATOM      9  O   UNL     1       6.649   5.750  15.371  0.00  0.00    +0.000 OA
BRANCH   9  10
ATOM     10  C   UNL     1       6.676   4.983  14.193  0.00  0.00    +0.000 A 
ATOM     11  C   UNL     1       7.583   5.234  13.168  0.00  0.00    +0.000 A 
ATOM     12  C   UNL     1       7.518   4.478  11.995  0.00  0.00    +0.000 A 
ATOM     13  C   UNL     1       6.536   3.506  11.890  0.00  0.00    +0.000 A 
ATOM     14  N   UNL     1       5.631   3.249  12.858  0.00  0.00    +0.000 NA
ATOM     15  C   UNL     1       5.711   4.004  13.988  0.00  0.00    +0.000 A 
ENDBRANCH   9  10
ENDBRANCH   7   9
ENDBRANCH   4   7
BRANCH   1  16
ATOM     16  O   UNL     1       2.784   5.302  20.452  0.00  0.00    +0.000 OA
BRANCH  16  17
ATOM     17  C   UNL     1       2.262   3.998  20.803  0.00  0.00    +0.000 C 
BRANCH  17  18
ATOM     18  C   UNL     1       0.870   3.831  20.223  0.00  0.00    +0.000 C 
BRANCH  18  20
ATOM     19  C   UNL     1       2.064   1.945  19.068  0.00  0.00    +0.000 C 
ATOM     20  C   UNL     1       0.871   2.880  19.029  0.00  0.00    +0.000 C 
ENDBRANCH  18  20
ENDBRANCH  17  18
ENDBRANCH  16  17
ENDBRANCH   1  16
TORSDOF 7
ENDMDL
MODEL 3
REMARK VINA RESULT:      -6.7      1.708      2.455
REMARK  Name = 
REMARK  8 active torsions:
REMARK  status: ('A' for Active; 'I' for Inactive)
REMARK    1  A    between atoms: C_1  and  C_2
REMARK    2  A    between atoms: C_2  and  C_3
REMARK    3  A    between atoms: C_3  and  C_4
REMARK    4  A    between atoms: C_4  and  O_5
REMARK    5  A    between atoms: O_5  and  C_6
REMARK    6  A    between atoms: C_9  and  C_10
REMARK    7  A    between atoms: C_10  and  O_12
REMARK    8  A    between atoms: O_12  and  C_13
REMARK                            x       y       z     vdW  Elec       q    Type
REMARK                         _______ _______ _______ _____ _____    ______ ____
ROOT
ATOM      1  C   UNL     1       6.346   5.255  16.022  0.00  0.00    +0.000 A 
ATOM      2  C   UNL     1       5.584   6.377  15.756  0.00  0.00    +0.000 A 
ATOM      3  C   UNL     1       4.497   6.729  16.520  0.00  0.00    +0.000 A 
ATOM      4  C   UNL     1       4.078   5.901  17.578  0.00  0.00    +0.000 A 
ATOM      5  C   UNL     1       4.830   4.764  17.874  0.00  0.00    +0.000 A 
ATOM      6  C   UNL     1       5.966   4.426  17.106  0.00  0.00    +0.000 A 
ENDROOT
BRANCH   4   7
ATOM      7  C   UNL     1       2.869   6.348  18.334  0.00  0.00    +0.000 C 
ATOM      8  O   UNL     1       2.829   7.382  18.968  0.00  0.00    +0.000 OA
BRANCH   7   9
ATOM      9  O   UNL     1       1.837   5.426  18.213  0.00  0.00    +0.000 OA
BRANCH   9  10
ATOM     10  C   UNL     1       1.783   4.440  19.214  0.00  0.00    +0.000 A 
ATOM     11  C   UNL     1       1.988   4.738  20.557  0.00  0.00    +0.000 A 
ATOM     12  C   UNL     1       1.985   3.705  21.497  0.00  0.00    +0.000 A 
ATOM     13  C   UNL     1       1.788   2.408  21.052  0.00  0.00    +0.000 A 
ATOM     14  N   UNL     1       1.604   2.082  19.754  0.00  0.00    +0.000 NA
ATOM     15  C   UNL     1       1.618   3.106  18.858  0.00  0.00    +0.000 A 
ENDBRANCH   9  10
ENDBRANCH   7   9
ENDBRANCH   4   7
BRANCH   1  16
ATOM     16  O   UNL     1       7.465   4.969  15.271  0.00  0.00    +0.000 OA
BRANCH  16  17
ATOM     17  C   UNL     1       7.188   4.812  13.859  0.00  0.00    +0.000 C 
BRANCH  17  18
ATOM     18  C   UNL     1       6.138   3.734  13.660  0.00  0.00    +0.000 C 
BRANCH  18  20
ATOM     19  C   UNL     1       4.596   3.373  11.709  0.00  0.00    +0.000 C 
ATOM     20  C   UNL     1       6.032   3.319  12.196  0.00  0.00    +0.000 C 
ENDBRANCH  18  20
ENDBRANCH  17  18
ENDBRANCH  16  17
ENDBRANCH   1  16
TORSDOF 7
ENDMDL
MODEL 4
REMARK VINA RESULT:      -6.7      0.919      1.424
REMARK  Name = 
REMARK  8 active torsions:
REMARK  status: ('A' for Active; 'I' for Inactive)
REMARK    1  A    between atoms: C_1  and  C_2
REMARK    2  A    between atoms: C_2  and  C_3
REMARK    3  A    between atoms: C_3  and  C_4
REMARK    4  A    between atoms: C_4  and  O_5
REMARK    5  A    between atoms: O_5  and  C_6
REMARK    6  A    between atoms: C_9  and  C_10
REMARK    7  A    between atoms: C_10  and  O_12
REMARK    8  A    between atoms: O_12  and  C_13
REMARK                            x       y       z     vdW  Elec       q    Type
REMARK                         _______ _______ _______ _____ _____    ______ ____
ROOT
ATOM      1  C   UNL     1       6.448   5.157  14.792  0.00  0.00    +0.000 A 
ATOM      2  C   UNL     1       5.382   5.915  15.240  0.00  0.00    +0.000 A 
ATOM      3  C   UNL     1       5.028   5.980  16.566  0.00  0.00    +0.000 A 
ATOM      4  C   UNL     1       5.713   5.205  17.520  0.00  0.00    +0.000 A 
ATOM      5  C   UNL     1       6.797   4.433  17.100  0.00  0.00    +0.000 A 
ATOM      6  C   UNL     1       7.177   4.398  15.740  0.00  0.00    +0.000 A 
ENDROOT
BRANCH   4   7
ATOM      7  C   UNL     1       5.240   5.316  18.933  0.00  0.00    +0.000 C 
ATOM      8  O   UNL     1       5.915   4.985  19.885  0.00  0.00    +0.000 OA
BRANCH   7   9
ATOM      9  O   UNL     1       3.949   5.829  18.987  0.00  0.00    +0.000 OA
BRANCH   9  10
ATOM     10  C   UNL     1       2.938   4.896  19.276  0.00  0.00    +0.000 A 
ATOM     11  C   UNL     1       2.299   4.164  18.280  0.00  0.00    +0.000 A 
ATOM     12  C   UNL     1       1.258   3.299  18.624  0.00  0.00    +0.000 A 
ATOM     13  C   UNL     1       0.887   3.211  19.956  0.00  0.00    +0.000 A 
ATOM     14  N   UNL     1       1.474   3.919  20.945  0.00  0.00    +0.000 NA
ATOM     15  C   UNL     1       2.481   4.759  20.583  0.00  0.00    +0.000 A 
ENDBRANCH   9  10
ENDBRANCH   7   9
ENDBRANCH   4   7
BRANCH   1  16
ATOM     16  O   UNL     1       6.811   5.166  13.464  0.00  0.00    +0.000 OA
BRANCH  16  17
ATOM     17  C   UNL     1       6.868   3.846  12.872  0.00  0.00    +0.000 C 
BRANCH  17  18
ATOM     18  C   UNL     1       5.492   3.449  12.371  0.00  0.00    +0.000 C 
BRANCH  18  20
ATOM     19  C   UNL     1       6.988   1.804  11.199  0.00  0.00    +0.000 C 
ATOM     20  C   UNL     1       5.554   2.204  11.491  0.00  0.00    +0.000 C 
ENDBRANCH  18  20
ENDBRANCH  17  18
ENDBRANCH  16  17
ENDBRANCH   1  16
TORSDOF 7
ENDMDL
MODEL 5
REMARK VINA RESULT:      -6.7      3.562      5.800
REMARK  Name = 
REMARK  8 active torsions:
REMARK  status: ('A' for Active; 'I' for Inactive)
REMARK    1  A    between atoms: C_1  and  C_2
REMARK    2  A    between atoms: C_2  and  C_3
REMARK    3  A    between atoms: C_3  and  C_4
REMARK    4  A    between atoms: C_4  and  O_5
REMARK    5  A    between atoms: O_5  and  C_6
REMARK    6  A    between atoms: C_9  and  C_10
REMARK    7  A    between atoms: C_10  and  O_12
REMARK    8  A    between atoms: O_12  and  C_13
REMARK                            x       y       z     vdW  Elec       q    Type
REMARK                         _______ _______ _______ _____ _____    ______ ____
ROOT
ATOM      1  C   UNL     1       7.861   7.338  18.270  0.00  0.00    +0.000 A 
ATOM      2  C   UNL     1       6.911   7.640  17.313  0.00  0.00    +0.000 A 
ATOM      3  C   UNL     1       5.941   6.747  16.927  0.00  0.00    +0.000 A 
ATOM      4  C   UNL     1       5.927   5.444  17.458  0.00  0.00    +0.000 A 
ATOM      5  C   UNL     1       6.870   5.110  18.431  0.00  0.00    +0.000 A 
ATOM      6  C   UNL     1       7.844   6.044  18.847  0.00  0.00    +0.000 A 
ENDROOT
BRANCH   4   7
ATOM      7  C   UNL     1       4.854   4.533  16.959  0.00  0.00    +0.000 C 
ATOM      8  O   UNL     1       5.079   3.566  16.261  0.00  0.00    +0.000 OA
BRANCH   7   9
ATOM      9  O   UNL     1       3.602   4.952  17.392  0.00  0.00    +0.000 OA
BRANCH   9  10
ATOM     10  C   UNL     1       2.928   4.064  18.249  0.00  0.00    +0.000 A 
ATOM     11  C   UNL     1       1.608   3.682  18.031  0.00  0.00    +0.000 A 
ATOM     12  C   UNL     1       0.973   2.848  18.953  0.00  0.00    +0.000 A 
ATOM     13  C   UNL     1       1.684   2.436  20.069  0.00  0.00    +0.000 A 
ATOM     14  N   UNL     1       2.960   2.802  20.320  0.00  0.00    +0.000 NA
ATOM     15  C   UNL     1       3.553   3.621  19.410  0.00  0.00    +0.000 A 
ENDBRANCH   9  10
ENDBRANCH   7   9
ENDBRANCH   4   7
BRANCH   1  16
ATOM     16  O   UNL     1       8.779   8.280  18.675  0.00  0.00    +0.000 OA
BRANCH  16  17
ATOM     17  C   UNL     1       8.490   9.613  18.190  0.00  0.00    +0.000 C 
BRANCH  17  18
ATOM     18  C   UNL     1       9.360  10.623  18.915  0.00  0.00    +0.000 C 
BRANCH  18  20
ATOM     19  C   UNL     1      11.585  11.680  18.417  0.00  0.00    +0.000 C 
ATOM     20  C   UNL     1      10.160  11.479  17.938  0.00  0.00    +0.000 C 
ENDBRANCH  18  20
ENDBRANCH  17  18
ENDBRANCH  16  17
ENDBRANCH   1  16
TORSDOF 7
ENDMDL
MODEL 6
REMARK VINA RESULT:      -6.7      2.680      6.076
REMARK  Name = 
REMARK  8 active torsions:
REMARK  status: ('A' for Active; 'I' for Inactive)
REMARK    1  A    between atoms: C_1  and  C_2
REMARK    2  A    between atoms: C_2  and  C_3
REMARK    3  A    between atoms: C_3  and  C_4
REMARK    4  A    between atoms: C_4  and  O_5
REMARK    5  A    between atoms: O_5  and  C_6
REMARK    6  A    between atoms: C_9  and  C_10
REMARK    7  A    between atoms: C_10  and  O_12
REMARK    8  A    between atoms: O_12  and  C_13
REMARK                            x       y       z     vdW  Elec       q    Type
REMARK                         _______ _______ _______ _____ _____    ______ ____
ROOT
ATOM      1  C   UNL     1       3.614   5.475  19.177  0.00  0.00    +0.000 A 
ATOM      2  C   UNL     1       4.846   4.919  19.466  0.00  0.00    +0.000 A 
ATOM      3  C   UNL     1       5.958   5.147  18.692  0.00  0.00    +0.000 A 
ATOM      4  C   UNL     1       5.857   5.914  17.517  0.00  0.00    +0.000 A 
ATOM      5  C   UNL     1       4.628   6.492  17.200  0.00  0.00    +0.000 A 
ATOM      6  C   UNL     1       3.496   6.282  18.019  0.00  0.00    +0.000 A 
ENDROOT
BRANCH   4   7
ATOM      7  C   UNL     1       7.111   6.083  16.722  0.00  0.00    +0.000 C 
ATOM      8  O   UNL     1       7.668   7.152  16.584  0.00  0.00    +0.000 OA
BRANCH   7   9
ATOM      9  O   UNL     1       7.522   4.873  16.176  0.00  0.00    +0.000 OA
BRANCH   9  10
ATOM     10  C   UNL     1       7.095   4.624  14.860  0.00  0.00    +0.000 A 
ATOM     11  C   UNL     1       5.993   3.822  14.579  0.00  0.00    +0.000 A 
ATOM     12  C   UNL     1       5.656   3.561  13.249  0.00  0.00    +0.000 A 
ATOM     13  C   UNL     1       6.445   4.106  12.249  0.00  0.00    +0.000 A 
ATOM     14  N   UNL     1       7.530   4.874  12.487  0.00  0.00    +0.000 NA
ATOM     15  C   UNL     1       7.841   5.108  13.791  0.00  0.00    +0.000 A 
ENDBRANCH   9  10
ENDBRANCH   7   9
ENDBRANCH   4   7
BRANCH   1  16
ATOM     16  O   UNL     1       2.537   5.274  20.012  0.00  0.00    +0.000 OA
BRANCH  16  17
ATOM     17  C   UNL     1       1.454   4.541  19.390  0.00  0.00    +0.000 C 
BRANCH  17  18
ATOM     18  C   UNL     1       1.613   3.058  19.668  0.00  0.00    +0.000 C 
BRANCH  18  20
ATOM     19  C   UNL     1       3.214   1.893  18.121  0.00  0.00    +0.000 C 
ATOM     20  C   UNL     1       1.765   2.259  18.377  0.00  0.00    +0.000 C 
ENDBRANCH  18  20
ENDBRANCH  17  18
ENDBRANCH  16  17
ENDBRANCH   1  16
TORSDOF 7
ENDMDL
MODEL 7
REMARK VINA RESULT:      -6.7      3.397      5.787
REMARK  Name = 
REMARK  8 active torsions:
REMARK  status: ('A' for Active; 'I' for Inactive)
REMARK    1  A    between atoms: C_1  and  C_2
REMARK    2  A    between atoms: C_2  and  C_3
REMARK    3  A    between atoms: C_3  and  C_4
REMARK    4  A    between atoms: C_4  and  O_5
REMARK    5  A    between atoms: O_5  and  C_6
REMARK    6  A    between atoms: C_9  and  C_10
REMARK    7  A    between atoms: C_10  and  O_12
REMARK    8  A    between atoms: O_12  and  C_13
REMARK                            x       y       z     vdW  Elec       q    Type
REMARK                         _______ _______ _______ _____ _____    ______ ____
ROOT
ATOM      1  C   UNL     1       7.469   6.960  18.252  0.00  0.00    +0.000 A 
ATOM      2  C   UNL     1       6.542   7.288  17.280  0.00  0.00    +0.000 A 
ATOM      3  C   UNL     1       5.443   6.507  17.015  0.00  0.00    +0.000 A 
ATOM      4  C   UNL     1       5.261   5.287  17.694  0.00  0.00    +0.000 A 
ATOM      5  C   UNL     1       6.177   4.931  18.684  0.00  0.00    +0.000 A 
ATOM      6  C   UNL     1       7.287   5.756  18.974  0.00  0.00    +0.000 A 
ENDROOT
BRANCH   4   7
ATOM      7  C   UNL     1       4.054   4.490  17.320  0.00  0.00    +0.000 C 
ATOM      8  O   UNL     1       4.111   3.469  16.667  0.00  0.00    +0.000 OA
BRANCH   7   9
ATOM      9  O   UNL     1       2.895   5.081  17.808  0.00  0.00    +0.000 OA
BRANCH   9  10
ATOM     10  C   UNL     1       2.311   4.447  18.918  0.00  0.00    +0.000 A 
ATOM     11  C   UNL     1       2.714   4.719  20.222  0.00  0.00    +0.000 A 
ATOM     12  C   UNL     1       2.140   4.010  21.280  0.00  0.00    +0.000 A 
ATOM     13  C   UNL     1       1.192   3.042  20.988  0.00  0.00    +0.000 A 
ATOM     14  N   UNL     1       0.792   2.741  19.734  0.00  0.00    +0.000 NA
ATOM     15  C   UNL     1       1.370   3.442  18.721  0.00  0.00    +0.000 A 
ENDBRANCH   9  10
ENDBRANCH   7   9
ENDBRANCH   4   7
BRANCH   1  16
ATOM     16  O   UNL     1       8.524   7.800  18.531  0.00  0.00    +0.000 OA
BRANCH  16  17
ATOM     17  C   UNL     1       8.315   9.159  18.080  0.00  0.00    +0.000 C 
BRANCH  17  18
ATOM     18  C   UNL     1       9.128  10.113  18.935  0.00  0.00    +0.000 C 
BRANCH  18  20
ATOM     19  C   UNL     1       9.659  12.560  18.723  0.00  0.00    +0.000 C 
ATOM     20  C   UNL     1       9.801  11.190  18.089  0.00  0.00    +0.000 C 
ENDBRANCH  18  20
ENDBRANCH  17  18
ENDBRANCH  16  17
ENDBRANCH   1  16
TORSDOF 7
ENDMDL
MODEL 8
REMARK VINA RESULT:      -6.6      2.646      6.595
REMARK  Name = 
REMARK  8 active torsions:
REMARK  status: ('A' for Active; 'I' for Inactive)
REMARK    1  A    between atoms: C_1  and  C_2
REMARK    2  A    between atoms: C_2  and  C_3
REMARK    3  A    between atoms: C_3  and  C_4
REMARK    4  A    between atoms: C_4  and  O_5
REMARK    5  A    between atoms: O_5  and  C_6
REMARK    6  A    between atoms: C_9  and  C_10
REMARK    7  A    between atoms: C_10  and  O_12
REMARK    8  A    between atoms: O_12  and  C_13
REMARK                            x       y       z     vdW  Elec       q    Type
REMARK                         _______ _______ _______ _____ _____    ______ ____
ROOT
ATOM      1  C   UNL     1       3.181   4.915  18.228  0.00  0.00    +0.000 A 
ATOM      2  C   UNL     1       3.832   6.040  17.759  0.00  0.00    +0.000 A 
ATOM      3  C   UNL     1       5.102   5.994  17.235  0.00  0.00    +0.000 A 
ATOM      4  C   UNL     1       5.819   4.783  17.225  0.00  0.00    +0.000 A 
ATOM      5  C   UNL     1       5.187   3.629  17.688  0.00  0.00    +0.000 A 
ATOM      6  C   UNL     1       3.869   3.678  18.194  0.00  0.00    +0.000 A 
ENDROOT
BRANCH   4   7
ATOM      7  C   UNL     1       7.204   4.834  16.666  0.00  0.00    +0.000 C 
ATOM      8  O   UNL     1       8.141   4.247  17.165  0.00  0.00    +0.000 OA
BRANCH   7   9
ATOM      9  O   UNL     1       7.254   5.635  15.531  0.00  0.00    +0.000 OA
BRANCH   9  10
ATOM     10  C   UNL     1       6.965   4.987  14.318  0.00  0.00    +0.000 A 
ATOM     11  C   UNL     1       5.932   4.062  14.201  0.00  0.00    +0.000 A 
ATOM     12  C   UNL     1       5.734   3.405  12.984  0.00  0.00    +0.000 A 
ATOM     13  C   UNL     1       6.589   3.692  11.933  0.00  0.00    +0.000 A 
ATOM     14  N   UNL     1       7.611   4.570  12.017  0.00  0.00    +0.000 NA
ATOM     15  C   UNL     1       7.787   5.192  13.215  0.00  0.00    +0.000 A 
ENDBRANCH   9  10
ENDBRANCH   7   9
ENDBRANCH   4   7
BRANCH   1  16
ATOM     16  O   UNL     1       1.885   4.991  18.688  0.00  0.00    +0.000 OA
BRANCH  16  17
ATOM     17  C   UNL     1       1.044   3.908  18.225  0.00  0.00    +0.000 C 
BRANCH  17  18
ATOM     18  C   UNL     1       0.965   2.830  19.290  0.00  0.00    +0.000 C 
BRANCH  18  20
ATOM     19  C   UNL     1       2.081   2.810  21.542  0.00  0.00    +0.000 C 
ATOM     20  C   UNL     1       0.985   3.428  20.694  0.00  0.00    +0.000 C 
ENDBRANCH  18  20
ENDBRANCH  17  18
ENDBRANCH  16  17
ENDBRANCH   1  16
TORSDOF 7
ENDMDL
MODEL 9
REMARK VINA RESULT:      -6.6      1.748      2.405
REMARK  Name = 
REMARK  8 active torsions:
REMARK  status: ('A' for Active; 'I' for Inactive)
REMARK    1  A    between atoms: C_1  and  C_2
REMARK    2  A    between atoms: C_2  and  C_3
REMARK    3  A    between atoms: C_3  and  C_4
REMARK    4  A    between atoms: C_4  and  O_5
REMARK    5  A    between atoms: O_5  and  C_6
REMARK    6  A    between atoms: C_9  and  C_10
REMARK    7  A    between atoms: C_10  and  O_12
REMARK    8  A    between atoms: O_12  and  C_13
REMARK                            x       y       z     vdW  Elec       q    Type
REMARK                         _______ _______ _______ _____ _____    ______ ____
ROOT
ATOM      1  C   UNL     1       6.409   5.258  16.063  0.00  0.00    +0.000 A 
ATOM      2  C   UNL     1       5.554   6.271  15.673  0.00  0.00    +0.000 A 
ATOM      3  C   UNL     1       4.480   6.665  16.436  0.00  0.00    +0.000 A 
ATOM      4  C   UNL     1       4.174   5.986  17.630  0.00  0.00    +0.000 A 
ATOM      5  C   UNL     1       5.022   4.962  18.052  0.00  0.00    +0.000 A 
ATOM      6  C   UNL     1       6.143   4.585  17.280  0.00  0.00    +0.000 A 
ENDROOT
BRANCH   4   7
ATOM      7  C   UNL     1       2.972   6.463  18.378  0.00  0.00    +0.000 C 
ATOM      8  O   UNL     1       2.966   7.478  19.043  0.00  0.00    +0.000 OA
BRANCH   7   9
ATOM      9  O   UNL     1       1.902   5.593  18.209  0.00  0.00    +0.000 OA
BRANCH   9  10
ATOM     10  C   UNL     1       1.871   4.493  19.083  0.00  0.00    +0.000 A 
ATOM     11  C   UNL     1       1.798   3.182  18.621  0.00  0.00    +0.000 A 
ATOM     12  C   UNL     1       1.705   2.135  19.541  0.00  0.00    +0.000 A 
ATOM     13  C   UNL     1       1.678   2.443  20.891  0.00  0.00    +0.000 A 
ATOM     14  N   UNL     1       1.729   3.704  21.372  0.00  0.00    +0.000 NA
ATOM     15  C   UNL     1       1.812   4.706  20.456  0.00  0.00    +0.000 A 
ENDBRANCH   9  10
ENDBRANCH   7   9
ENDBRANCH   4   7
BRANCH   1  16
ATOM     16  O   UNL     1       7.510   4.933  15.301  0.00  0.00    +0.000 OA
BRANCH  16  17
ATOM     17  C   UNL     1       7.221   4.823  13.887  0.00  0.00    +0.000 C 
BRANCH  17  18
ATOM     18  C   UNL     1       6.211   3.715  13.655  0.00  0.00    +0.000 C 
BRANCH  18  20
ATOM     19  C   UNL     1       4.660   3.291  11.724  0.00  0.00    +0.000 C 
ATOM     20  C   UNL     1       6.106   3.352  12.177  0.00  0.00    +0.000 C 
ENDBRANCH  18  20
ENDBRANCH  17  18
ENDBRANCH  16  17
ENDBRANCH   1  16
TORSDOF 7
ENDMDL
