MODEL 1
REMARK VINA RESULT:      -8.8      0.000      0.000
REMARK  Name = 
REMARK  4 active torsions:
REMARK  status: ('A' for Active; 'I' for Inactive)
REMARK    1  A    between atoms: C_9  and  O_10
REMARK    2  A    between atoms: C_11  and  O_12
REMARK    3  A    between atoms: C_16  and  O_17
REMARK    4  A    between atoms: C_21  and  O_22
REMARK                            x       y       z     vdW  Elec       q    Type
REMARK                         _______ _______ _______ _____ _____    ______ ____
ROOT
ATOM      1  O   UNL     1       7.471   4.080  11.655  0.00  0.00    +0.000 OA
ATOM      2  C   UNL     1       6.973   4.252  12.770  0.00  0.00    +0.000 C 
ATOM      3  C   UNL     1       5.726   3.539  13.132  0.00  0.00    +0.000 C 
ATOM      4  C   UNL     1       5.162   3.700  14.343  0.00  0.00    +0.000 C 
ATOM      5  C   UNL     1       5.810   4.524  15.347  0.00  0.00    +0.000 C 
ATOM      6  C   UNL     1       5.460   4.471  16.645  0.00  0.00    +0.000 C 
ATOM      7  C   UNL     1       4.337   3.913  17.375  0.00  0.00    +0.000 A 
ATOM      8  C   UNL     1       2.962   3.909  17.150  0.00  0.00    +0.000 A 
ATOM      9  C   UNL     1       2.155   3.386  18.160  0.00  0.00    +0.000 A 
ATOM     10  C   UNL     1       2.701   2.736  19.272  0.00  0.00    +0.000 A 
ATOM     11  C   UNL     1       4.039   2.887  19.562  0.00  0.00    +0.000 A 
ATOM     12  C   UNL     1       4.766   3.666  18.677  0.00  0.00    +0.000 A 
ATOM     13  C   UNL     1       5.788   4.728  19.031  0.00  0.00    +0.000 C 
ATOM     14  C   UNL     1       6.483   4.906  17.679  0.00  0.00    +0.000 C 
ATOM     15  C   UNL     1       6.908   6.297  17.219  0.00  0.00    +0.000 C 
ATOM     16  O   UNL     1       7.536   6.232  15.911  0.00  0.00    +0.000 OA
ATOM     17  C   UNL     1       7.006   5.327  14.996  0.00  0.00    +0.000 C 
ATOM     18  C   UNL     1       7.557   5.203  13.768  0.00  0.00    +0.000 C 
ENDROOT
BRANCH   9  19
ATOM     19  O   UNL     1       0.813   3.660  18.169  0.00  0.00    +0.000 OA
ATOM     20  H   UNL     1       0.577   3.744  17.226  0.00  0.00    +0.000 HD
ENDBRANCH   9  19
BRANCH  10  21
ATOM     21  O   UNL     1       1.905   2.055  20.143  0.00  0.00    +0.000 OA
ATOM     22  H   UNL     1       1.799   1.162  19.762  0.00  0.00    +0.000 HD
ENDBRANCH  10  21
BRANCH  14  23
ATOM     23  O   UNL     1       7.630   4.039  17.649  0.00  0.00    +0.000 OA
ATOM     24  H   UNL     1       7.984   3.948  18.548  0.00  0.00    +0.000 HD
ENDBRANCH  14  23
BRANCH  18  25
ATOM     25  O   UNL     1       8.687   5.928  13.429  0.00  0.00    +0.000 OA
ATOM     26  H   UNL     1       8.491   6.324  12.560  0.00  0.00    +0.000 HD
ENDBRANCH  18  25
TORSDOF 4
ENDMDL
MODEL 2
REMARK VINA RESULT:      -6.2     11.557     14.740
REMARK  Name = 
REMARK  4 active torsions:
REMARK  status: ('A' for Active; 'I' for Inactive)
REMARK    1  A    between atoms: C_9  and  O_10
REMARK    2  A    between atoms: C_11  and  O_12
REMARK    3  A    between atoms: C_16  and  O_17
REMARK    4  A    between atoms: C_21  and  O_22
REMARK                            x       y       z     vdW  Elec       q    Type
REMARK                         _______ _______ _______ _____ _____    ______ ____
ROOT
ATOM      1  O   UNL     1      -4.235  12.679  25.906  0.00  0.00    +0.000 OA
ATOM      2  C   UNL     1      -4.312  12.711  24.676  0.00  0.00    +0.000 C 
ATOM      3  C   UNL     1      -3.134  12.339  23.859  0.00  0.00    +0.000 C 
ATOM      4  C   UNL     1      -3.189  12.356  22.515  0.00  0.00    +0.000 C 
ATOM      5  C   UNL     1      -4.433  12.671  21.838  0.00  0.00    +0.000 C 
ATOM      6  C   UNL     1      -4.620  12.406  20.532  0.00  0.00    +0.000 C 
ATOM      7  C   UNL     1      -3.747  12.048  19.431  0.00  0.00    +0.000 A 
ATOM      8  C   UNL     1      -2.502  12.513  19.012  0.00  0.00    +0.000 A 
ATOM      9  C   UNL     1      -2.015  12.023  17.800  0.00  0.00    +0.000 A 
ATOM     10  C   UNL     1      -2.659  10.985  17.119  0.00  0.00    +0.000 A 
ATOM     11  C   UNL     1      -3.954  10.650  17.449  0.00  0.00    +0.000 A 
ATOM     12  C   UNL     1      -4.518  11.369  18.490  0.00  0.00    +0.000 A 
ATOM     13  C   UNL     1      -5.916  11.952  18.537  0.00  0.00    +0.000 C 
ATOM     14  C   UNL     1      -6.045  12.243  20.034  0.00  0.00    +0.000 C 
ATOM     15  C   UNL     1      -6.751  13.510  20.505  0.00  0.00    +0.000 C 
ATOM     16  O   UNL     1      -6.749  13.587  21.956  0.00  0.00    +0.000 OA
ATOM     17  C   UNL     1      -5.608  13.139  22.614  0.00  0.00    +0.000 C 
ATOM     18  C   UNL     1      -5.549  13.164  23.963  0.00  0.00    +0.000 C 
ENDROOT
BRANCH   9  19
ATOM     19  O   UNL     1      -0.994  12.676  17.163  0.00  0.00    +0.000 OA
ATOM     20  H   UNL     1      -1.159  13.620  17.348  0.00  0.00    +0.000 HD
ENDBRANCH   9  19
BRANCH  10  21
ATOM     21  O   UNL     1      -2.068  10.380  16.050  0.00  0.00    +0.000 OA
ATOM     22  H   UNL     1      -2.000   9.435  16.285  0.00  0.00    +0.000 HD
ENDBRANCH  10  21
BRANCH  14  23
ATOM     23  O   UNL     1      -6.670  11.107  20.657  0.00  0.00    +0.000 OA
ATOM     24  H   UNL     1      -6.939  11.347  21.559  0.00  0.00    +0.000 HD
ENDBRANCH  14  23
BRANCH  18  25
ATOM     25  O   UNL     1      -6.643  13.576  24.706  0.00  0.00    +0.000 OA
ATOM     26  H   UNL     1      -7.287  12.847  24.648  0.00  0.00    +0.000 HD
ENDBRANCH  18  25
TORSDOF 4
ENDMDL
MODEL 3
REMARK VINA RESULT:      -6.2     10.274     12.999
REMARK  Name = 
REMARK  4 active torsions:
REMARK  status: ('A' for Active; 'I' for Inactive)
REMARK    1  A    between atoms: C_9  and  O_10
REMARK    2  A    between atoms: C_11  and  O_12
REMARK    3  A    between atoms: C_16  and  O_17
REMARK    4  A    between atoms: C_21  and  O_22
REMARK                            x       y       z     vdW  Elec       q    Type
REMARK                         _______ _______ _______ _____ _____    ______ ____
ROOT
ATOM      1  O   UNL     1       2.758  16.435  18.220  0.00  0.00    +0.000 OA
ATOM      2  C   UNL     1       3.962  16.224  18.379  0.00  0.00    +0.000 C 
ATOM      3  C   UNL     1       4.613  15.113  17.647  0.00  0.00    +0.000 C 
ATOM      4  C   UNL     1       5.927  14.861  17.793  0.00  0.00    +0.000 C 
ATOM      5  C   UNL     1       6.749  15.725  18.620  0.00  0.00    +0.000 C 
ATOM      6  C   UNL     1       8.092  15.704  18.555  0.00  0.00    +0.000 C 
ATOM      7  C   UNL     1       9.070  14.802  17.978  0.00  0.00    +0.000 A 
ATOM      8  C   UNL     1       9.189  13.414  17.956  0.00  0.00    +0.000 A 
ATOM      9  C   UNL     1      10.361  12.885  17.415  0.00  0.00    +0.000 A 
ATOM     10  C   UNL     1      11.300  13.696  16.767  0.00  0.00    +0.000 A 
ATOM     11  C   UNL     1      11.254  15.062  16.936  0.00  0.00    +0.000 A 
ATOM     12  C   UNL     1      10.225  15.540  17.730  0.00  0.00    +0.000 A 
ATOM     13  C   UNL     1      10.327  16.604  18.804  0.00  0.00    +0.000 C 
ATOM     14  C   UNL     1       8.848  16.944  19.000  0.00  0.00    +0.000 C 
ATOM     15  C   UNL     1       8.310  17.226  20.399  0.00  0.00    +0.000 C 
ATOM     16  O   UNL     1       6.887  17.515  20.351  0.00  0.00    +0.000 OA
ATOM     17  C   UNL     1       6.122  16.788  19.443  0.00  0.00    +0.000 C 
ATOM     18  C   UNL     1       4.796  17.023  19.334  0.00  0.00    +0.000 C 
ENDROOT
BRANCH   9  19
ATOM     19  O   UNL     1      10.702  11.584  17.670  0.00  0.00    +0.000 OA
ATOM     20  H   UNL     1      10.440  11.443  18.599  0.00  0.00    +0.000 HD
ENDBRANCH   9  19
BRANCH  10  21
ATOM     21  O   UNL     1      12.333  13.146  16.070  0.00  0.00    +0.000 OA
ATOM     22  H   UNL     1      11.971  12.924  15.191  0.00  0.00    +0.000 HD
ENDBRANCH  10  21
BRANCH  14  23
ATOM     23  O   UNL     1       8.529  18.060  18.149  0.00  0.00    +0.000 OA
ATOM     24  H   UNL     1       8.708  18.885  18.628  0.00  0.00    +0.000 HD
ENDBRANCH  14  23
BRANCH  18  25
ATOM     25  O   UNL     1       4.196  18.026  20.076  0.00  0.00    +0.000 OA
ATOM     26  H   UNL     1       3.571  17.572  20.671  0.00  0.00    +0.000 HD
ENDBRANCH  18  25
TORSDOF 4
ENDMDL
MODEL 4
REMARK VINA RESULT:      -6.2      9.117     10.982
REMARK  Name = 
REMARK  4 active torsions:
REMARK  status: ('A' for Active; 'I' for Inactive)
REMARK    1  A    between atoms: C_9  and  O_10
REMARK    2  A    between atoms: C_11  and  O_12
REMARK    3  A    between atoms: C_16  and  O_17
REMARK    4  A    between atoms: C_21  and  O_22
REMARK                            x       y       z     vdW  Elec       q    Type
REMARK                         _______ _______ _______ _____ _____    ______ ____
ROOT
ATOM      1  O   UNL     1      10.829  11.235  17.453  0.00  0.00    +0.000 OA
ATOM      2  C   UNL     1      10.227  11.684  18.432  0.00  0.00    +0.000 C 
ATOM      3  C   UNL     1       9.898  10.787  19.563  0.00  0.00    +0.000 C 
ATOM      4  C   UNL     1       9.249  11.247  20.648  0.00  0.00    +0.000 C 
ATOM      5  C   UNL     1       8.924  12.657  20.761  0.00  0.00    +0.000 C 
ATOM      6  C   UNL     1       8.562  13.212  21.932  0.00  0.00    +0.000 C 
ATOM      7  C   UNL     1       8.150  12.692  23.221  0.00  0.00    +0.000 A 
ATOM      8  C   UNL     1       7.286  11.668  23.603  0.00  0.00    +0.000 A 
ATOM      9  C   UNL     1       7.016  11.539  24.965  0.00  0.00    +0.000 A 
ATOM     10  C   UNL     1       7.710  12.286  25.923  0.00  0.00    +0.000 A 
ATOM     11  C   UNL     1       8.431  13.393  25.535  0.00  0.00    +0.000 A 
ATOM     12  C   UNL     1       8.441  13.664  24.176  0.00  0.00    +0.000 A 
ATOM     13  C   UNL     1       8.267  15.018  23.519  0.00  0.00    +0.000 C 
ATOM     14  C   UNL     1       8.767  14.707  22.106  0.00  0.00    +0.000 C 
ATOM     15  C   UNL     1       8.067  15.321  20.899  0.00  0.00    +0.000 C 
ATOM     16  O   UNL     1       8.698  14.885  19.665  0.00  0.00    +0.000 OA
ATOM     17  C   UNL     1       9.150  13.570  19.614  0.00  0.00    +0.000 C 
ATOM     18  C   UNL     1       9.765  13.107  18.504  0.00  0.00    +0.000 C 
ENDROOT
BRANCH   9  19
ATOM     19  O   UNL     1       5.936  10.806  25.379  0.00  0.00    +0.000 OA
ATOM     20  H   UNL     1       6.236   9.880  25.321  0.00  0.00    +0.000 HD
ENDBRANCH   9  19
BRANCH  10  21
ATOM     21  O   UNL     1       7.583  12.007  27.251  0.00  0.00    +0.000 OA
ATOM     22  H   UNL     1       8.387  12.365  27.675  0.00  0.00    +0.000 HD
ENDBRANCH  10  21
BRANCH  14  23
ATOM     23  O   UNL     1      10.166  15.034  22.045  0.00  0.00    +0.000 OA
ATOM     24  H   UNL     1      10.591  14.488  21.364  0.00  0.00    +0.000 HD
ENDBRANCH  14  23
BRANCH  18  25
ATOM     25  O   UNL     1      10.006  13.949  17.431  0.00  0.00    +0.000 OA
ATOM     26  H   UNL     1       9.803  14.847  17.754  0.00  0.00    +0.000 HD
ENDBRANCH  18  25
TORSDOF 4
ENDMDL
MODEL 5
REMARK VINA RESULT:      -6.1     10.229     11.918
REMARK  Name = 
REMARK  4 active torsions:
REMARK  status: ('A' for Active; 'I' for Inactive)
REMARK    1  A    between atoms: C_9  and  O_10
REMARK    2  A    between atoms: C_11  and  O_12
REMARK    3  A    between atoms: C_16  and  O_17
REMARK    4  A    between atoms: C_21  and  O_22
REMARK                            x       y       z     vdW  Elec       q    Type
REMARK                         _______ _______ _______ _____ _____    ______ ____
ROOT
ATOM      1  O   UNL     1       1.926   7.865  20.616  0.00  0.00    +0.000 OA
ATOM      2  C   UNL     1       1.095   8.764  20.764  0.00  0.00    +0.000 C 
ATOM      3  C   UNL     1       0.497   8.996  22.099  0.00  0.00    +0.000 C 
ATOM      4  C   UNL     1      -0.407   9.973  22.295  0.00  0.00    +0.000 C 
ATOM      5  C   UNL     1      -0.759  10.870  21.210  0.00  0.00    +0.000 C 
ATOM      6  C   UNL     1      -1.407  12.029  21.427  0.00  0.00    +0.000 C 
ATOM      7  C   UNL     1      -2.128  12.598  22.549  0.00  0.00    +0.000 A 
ATOM      8  C   UNL     1      -3.053  12.076  23.450  0.00  0.00    +0.000 A 
ATOM      9  C   UNL     1      -3.656  12.973  24.332  0.00  0.00    +0.000 A 
ATOM     10  C   UNL     1      -3.231  14.302  24.431  0.00  0.00    +0.000 A 
ATOM     11  C   UNL     1      -2.442  14.842  23.439  0.00  0.00    +0.000 A 
ATOM     12  C   UNL     1      -2.092  13.984  22.409  0.00  0.00    +0.000 A 
ATOM     13  C   UNL     1      -2.103  14.294  20.926  0.00  0.00    +0.000 C 
ATOM     14  C   UNL     1      -1.262  13.132  20.393  0.00  0.00    +0.000 C 
ATOM     15  C   UNL     1      -1.640  12.460  19.077  0.00  0.00    +0.000 C 
ATOM     16  O   UNL     1      -0.716  11.382  18.770  0.00  0.00    +0.000 OA
ATOM     17  C   UNL     1      -0.257  10.616  19.837  0.00  0.00    +0.000 C 
ATOM     18  C   UNL     1       0.620   9.611  19.623  0.00  0.00    +0.000 C 
ENDROOT
BRANCH   9  19
ATOM     19  O   UNL     1      -4.801  12.613  24.992  0.00  0.00    +0.000 OA
ATOM     20  H   UNL     1      -4.520  12.502  25.919  0.00  0.00    +0.000 HD
ENDBRANCH   9  19
BRANCH  10  21
ATOM     21  O   UNL     1      -3.685  15.108  25.431  0.00  0.00    +0.000 OA
ATOM     22  H   UNL     1      -4.649  14.954  25.478  0.00  0.00    +0.000 HD
ENDBRANCH  10  21
BRANCH  14  23
ATOM     23  O   UNL     1       0.106  13.570  20.312  0.00  0.00    +0.000 OA
ATOM     24  H   UNL     1       0.683  12.876  20.667  0.00  0.00    +0.000 HD
ENDBRANCH  14  23
BRANCH  18  25
ATOM     25  O   UNL     1       1.118   9.372  18.353  0.00  0.00    +0.000 OA
ATOM     26  H   UNL     1       1.397   8.437  18.354  0.00  0.00    +0.000 HD
ENDBRANCH  18  25
TORSDOF 4
ENDMDL
MODEL 6
REMARK VINA RESULT:      -6.0      7.559      9.381
REMARK  Name = 
REMARK  4 active torsions:
REMARK  status: ('A' for Active; 'I' for Inactive)
REMARK    1  A    between atoms: C_9  and  O_10
REMARK    2  A    between atoms: C_11  and  O_12
REMARK    3  A    between atoms: C_16  and  O_17
REMARK    4  A    between atoms: C_21  and  O_22
REMARK                            x       y       z     vdW  Elec       q    Type
REMARK                         _______ _______ _______ _____ _____    ______ ____
ROOT
ATOM      1  O   UNL     1       2.849   5.618  17.863  0.00  0.00    +0.000 OA
ATOM      2  C   UNL     1       2.523   6.693  18.371  0.00  0.00    +0.000 C 
ATOM      3  C   UNL     1       2.532   7.924  17.548  0.00  0.00    +0.000 C 
ATOM      4  C   UNL     1       2.175   9.111  18.072  0.00  0.00    +0.000 C 
ATOM      5  C   UNL     1       1.702   9.193  19.441  0.00  0.00    +0.000 C 
ATOM      6  C   UNL     1       1.054  10.277  19.906  0.00  0.00    +0.000 C 
ATOM      7  C   UNL     1       0.863  11.632  19.428  0.00  0.00    +0.000 A 
ATOM      8  C   UNL     1       1.718  12.568  18.850  0.00  0.00    +0.000 A 
ATOM      9  C   UNL     1       1.210  13.850  18.641  0.00  0.00    +0.000 A 
ATOM     10  C   UNL     1      -0.144  14.142  18.838  0.00  0.00    +0.000 A 
ATOM     11  C   UNL     1      -0.934  13.270  19.554  0.00  0.00    +0.000 A 
ATOM     12  C   UNL     1      -0.310  12.117  20.003  0.00  0.00    +0.000 A 
ATOM     13  C   UNL     1      -0.438  11.493  21.377  0.00  0.00    +0.000 C 
ATOM     14  C   UNL     1       0.137  10.100  21.104  0.00  0.00    +0.000 C 
ATOM     15  C   UNL     1       1.018   9.422  22.149  0.00  0.00    +0.000 C 
ATOM     16  O   UNL     1       1.458   8.120  21.678  0.00  0.00    +0.000 OA
ATOM     17  C   UNL     1       1.766   8.005  20.326  0.00  0.00    +0.000 C 
ATOM     18  C   UNL     1       2.162   6.816  19.820  0.00  0.00    +0.000 C 
ENDROOT
BRANCH   9  19
ATOM     19  O   UNL     1       2.066  14.893  18.411  0.00  0.00    +0.000 OA
ATOM     20  H   UNL     1       1.498  15.595  18.041  0.00  0.00    +0.000 HD
ENDBRANCH   9  19
BRANCH  10  21
ATOM     21  O   UNL     1      -0.666  15.336  18.439  0.00  0.00    +0.000 OA
ATOM     22  H   UNL     1      -1.449  15.115  17.898  0.00  0.00    +0.000 HD
ENDBRANCH  10  21
BRANCH  14  23
ATOM     23  O   UNL     1      -0.954   9.222  20.779  0.00  0.00    +0.000 OA
ATOM     24  H   UNL     1      -0.609   8.327  20.632  0.00  0.00    +0.000 HD
ENDBRANCH  14  23
BRANCH  18  25
ATOM     25  O   UNL     1       2.207   5.690  20.624  0.00  0.00    +0.000 OA
ATOM     26  H   UNL     1       3.027   5.773  21.144  0.00  0.00    +0.000 HD
ENDBRANCH  18  25
TORSDOF 4
ENDMDL
MODEL 7
REMARK VINA RESULT:      -6.0      8.070      9.651
REMARK  Name = 
REMARK  4 active torsions:
REMARK  status: ('A' for Active; 'I' for Inactive)
REMARK    1  A    between atoms: C_9  and  O_10
REMARK    2  A    between atoms: C_11  and  O_12
REMARK    3  A    between atoms: C_16  and  O_17
REMARK    4  A    between atoms: C_21  and  O_22
REMARK                            x       y       z     vdW  Elec       q    Type
REMARK                         _______ _______ _______ _____ _____    ______ ____
ROOT
ATOM      1  O   UNL     1       2.319  16.026  18.241  0.00  0.00    +0.000 OA
ATOM      2  C   UNL     1       1.914  14.883  18.463  0.00  0.00    +0.000 C 
ATOM      3  C   UNL     1       2.790  13.725  18.168  0.00  0.00    +0.000 C 
ATOM      4  C   UNL     1       2.380  12.466  18.406  0.00  0.00    +0.000 C 
ATOM      5  C   UNL     1       1.092  12.223  19.028  0.00  0.00    +0.000 C 
ATOM      6  C   UNL     1       0.773  11.029  19.560  0.00  0.00    +0.000 C 
ATOM      7  C   UNL     1       1.341   9.696  19.486  0.00  0.00    +0.000 A 
ATOM      8  C   UNL     1       1.848   8.934  18.436  0.00  0.00    +0.000 A 
ATOM      9  C   UNL     1       2.188   7.611  18.717  0.00  0.00    +0.000 A 
ATOM     10  C   UNL     1       2.187   7.117  20.026  0.00  0.00    +0.000 A 
ATOM     11  C   UNL     1       1.539   7.817  21.020  0.00  0.00    +0.000 A 
ATOM     12  C   UNL     1       0.953   9.012  20.635  0.00  0.00    +0.000 A 
ATOM     13  C   UNL     1      -0.423   9.514  21.024  0.00  0.00    +0.000 C 
ATOM     14  C   UNL     1      -0.300  10.989  20.634  0.00  0.00    +0.000 C 
ATOM     15  C   UNL     1      -1.485  11.711  20.000  0.00  0.00    +0.000 C 
ATOM     16  O   UNL     1      -1.145  13.091  19.705  0.00  0.00    +0.000 OA
ATOM     17  C   UNL     1       0.147  13.344  19.252  0.00  0.00    +0.000 C 
ATOM     18  C   UNL     1       0.534  14.608  18.978  0.00  0.00    +0.000 C 
ENDROOT
BRANCH   9  19
ATOM     19  O   UNL     1       2.355   6.718  17.693  0.00  0.00    +0.000 OA
ATOM     20  H   UNL     1       2.919   6.018  18.072  0.00  0.00    +0.000 HD
ENDBRANCH   9  19
BRANCH  10  21
ATOM     21  O   UNL     1       2.713   5.892  20.310  0.00  0.00    +0.000 OA
ATOM     22  H   UNL     1       3.324   5.690  19.576  0.00  0.00    +0.000 HD
ENDBRANCH  10  21
BRANCH  14  23
ATOM     23  O   UNL     1       0.122  11.725  21.795  0.00  0.00    +0.000 OA
ATOM     24  H   UNL     1      -0.597  11.729  22.447  0.00  0.00    +0.000 HD
ENDBRANCH  14  23
BRANCH  18  25
ATOM     25  O   UNL     1      -0.326  15.671  19.202  0.00  0.00    +0.000 OA
ATOM     26  H   UNL     1      -0.105  16.333  18.521  0.00  0.00    +0.000 HD
ENDBRANCH  18  25
TORSDOF 4
ENDMDL
MODEL 8
REMARK VINA RESULT:      -6.0      3.168      6.398
REMARK  Name = 
REMARK  4 active torsions:
REMARK  status: ('A' for Active; 'I' for Inactive)
REMARK    1  A    between atoms: C_9  and  O_10
REMARK    2  A    between atoms: C_11  and  O_12
REMARK    3  A    between atoms: C_16  and  O_17
REMARK    4  A    between atoms: C_21  and  O_22
REMARK                            x       y       z     vdW  Elec       q    Type
REMARK                         _______ _______ _______ _____ _____    ______ ____
ROOT
ATOM      1  O   UNL     1       0.927   9.663  19.619  0.00  0.00    +0.000 OA
ATOM      2  C   UNL     1       1.604   8.714  19.218  0.00  0.00    +0.000 C 
ATOM      3  C   UNL     1       2.182   8.752  17.855  0.00  0.00    +0.000 C 
ATOM      4  C   UNL     1       2.932   7.735  17.391  0.00  0.00    +0.000 C 
ATOM      5  C   UNL     1       3.249   6.610  18.250  0.00  0.00    +0.000 C 
ATOM      6  C   UNL     1       4.227   5.737  17.948  0.00  0.00    +0.000 C 
ATOM      7  C   UNL     1       5.001   5.448  16.756  0.00  0.00    +0.000 A 
ATOM      8  C   UNL     1       4.665   5.320  15.410  0.00  0.00    +0.000 A 
ATOM      9  C   UNL     1       5.668   4.887  14.543  0.00  0.00    +0.000 A 
ATOM     10  C   UNL     1       6.995   4.754  14.966  0.00  0.00    +0.000 A 
ATOM     11  C   UNL     1       7.282   4.724  16.313  0.00  0.00    +0.000 A 
ATOM     12  C   UNL     1       6.201   4.871  17.166  0.00  0.00    +0.000 A 
ATOM     13  C   UNL     1       5.918   4.068  18.419  0.00  0.00    +0.000 C 
ATOM     14  C   UNL     1       4.861   4.953  19.084  0.00  0.00    +0.000 C 
ATOM     15  C   UNL     1       3.676   4.315  19.801  0.00  0.00    +0.000 C 
ATOM     16  O   UNL     1       2.798   5.337  20.346  0.00  0.00    +0.000 OA
ATOM     17  C   UNL     1       2.615   6.488  19.586  0.00  0.00    +0.000 C 
ATOM     18  C   UNL     1       1.828   7.485  20.045  0.00  0.00    +0.000 C 
ENDROOT
BRANCH   9  19
ATOM     19  O   UNL     1       5.337   4.410  13.303  0.00  0.00    +0.000 OA
ATOM     20  H   UNL     1       6.140   4.551  12.768  0.00  0.00    +0.000 HD
ENDBRANCH   9  19
BRANCH  10  21
ATOM     21  O   UNL     1       7.995   4.529  14.068  0.00  0.00    +0.000 OA
ATOM     22  H   UNL     1       8.050   3.559  13.970  0.00  0.00    +0.000 HD
ENDBRANCH  10  21
BRANCH  14  23
ATOM     23  O   UNL     1       5.531   5.840  19.996  0.00  0.00    +0.000 OA
ATOM     24  H   UNL     1       6.408   6.058  19.642  0.00  0.00    +0.000 HD
ENDBRANCH  14  23
BRANCH  18  25
ATOM     25  O   UNL     1       1.245   7.401  21.299  0.00  0.00    +0.000 OA
ATOM     26  H   UNL     1       0.580   8.113  21.326  0.00  0.00    +0.000 HD
ENDBRANCH  18  25
TORSDOF 4
ENDMDL
MODEL 9
REMARK VINA RESULT:      -6.0     10.111     13.490
REMARK  Name = 
REMARK  4 active torsions:
REMARK  status: ('A' for Active; 'I' for Inactive)
REMARK    1  A    between atoms: C_9  and  O_10
REMARK    2  A    between atoms: C_11  and  O_12
REMARK    3  A    between atoms: C_16  and  O_17
REMARK    4  A    between atoms: C_21  and  O_22
REMARK                            x       y       z     vdW  Elec       q    Type
REMARK                         _______ _______ _______ _____ _____    ______ ____
ROOT
ATOM      1  O   UNL     1      10.575  17.015  25.311  0.00  0.00    +0.000 OA
ATOM      2  C   UNL     1      10.340  16.428  24.252  0.00  0.00    +0.000 C 
ATOM      3  C   UNL     1      11.176  16.705  23.061  0.00  0.00    +0.000 C 
ATOM      4  C   UNL     1      10.950  16.075  21.894  0.00  0.00    +0.000 C 
ATOM      5  C   UNL     1       9.923  15.055  21.801  0.00  0.00    +0.000 C 
ATOM      6  C   UNL     1       9.865  14.196  20.767  0.00  0.00    +0.000 C 
ATOM      7  C   UNL     1      10.485  14.135  19.457  0.00  0.00    +0.000 A 
ATOM      8  C   UNL     1      10.718  15.088  18.468  0.00  0.00    +0.000 A 
ATOM      9  C   UNL     1      11.224  14.631  17.252  0.00  0.00    +0.000 A 
ATOM     10  C   UNL     1      11.644  13.307  17.084  0.00  0.00    +0.000 A 
ATOM     11  C   UNL     1      11.265  12.349  17.999  0.00  0.00    +0.000 A 
ATOM     12  C   UNL     1      10.503  12.798  19.065  0.00  0.00    +0.000 A 
ATOM     13  C   UNL     1       9.268  12.136  19.641  0.00  0.00    +0.000 C 
ATOM     14  C   UNL     1       9.160  12.868  20.981  0.00  0.00    +0.000 C 
ATOM     15  C   UNL     1       7.790  13.259  21.526  0.00  0.00    +0.000 C 
ATOM     16  O   UNL     1       7.924  13.948  22.798  0.00  0.00    +0.000 OA
ATOM     17  C   UNL     1       9.003  14.815  22.940  0.00  0.00    +0.000 C 
ATOM     18  C   UNL     1       9.197  15.472  24.104  0.00  0.00    +0.000 C 
ENDROOT
BRANCH   9  19
ATOM     19  O   UNL     1      11.150  15.429  16.141  0.00  0.00    +0.000 OA
ATOM     20  H   UNL     1      10.939  16.313  16.493  0.00  0.00    +0.000 HD
ENDBRANCH   9  19
BRANCH  10  21
ATOM     21  O   UNL     1      12.321  12.927  15.964  0.00  0.00    +0.000 OA
ATOM     22  H   UNL     1      11.689  13.026  15.226  0.00  0.00    +0.000 HD
ENDBRANCH  10  21
BRANCH  14  23
ATOM     23  O   UNL     1       9.847  12.087  21.974  0.00  0.00    +0.000 OA
ATOM     24  H   UNL     1      10.275  12.685  22.608  0.00  0.00    +0.000 HD
ENDBRANCH  14  23
BRANCH  18  25
ATOM     25  O   UNL     1       8.363  15.245  25.186  0.00  0.00    +0.000 OA
ATOM     26  H   UNL     1       8.900  15.444  25.975  0.00  0.00    +0.000 HD
ENDBRANCH  18  25
TORSDOF 4
ENDMDL
