MODEL 1
REMARK VINA RESULT:      -8.1      0.000      0.000
REMARK  Name = 
REMARK  6 active torsions:
REMARK  status: ('A' for Active; 'I' for Inactive)
REMARK    1  A    between atoms: C_2  and  C_3
REMARK    2  A    between atoms: C_2  and  C_11
REMARK    3  A    between atoms: C_4  and  C_5
REMARK    4  A    between atoms: C_14  and  O_15
REMARK    5  A    between atoms: O_15  and  C_16
REMARK    6  A    between atoms: C_16  and  C_17
REMARK                            x       y       z     vdW  Elec       q    Type
REMARK                         _______ _______ _______ _____ _____    ______ ____
ROOT
ATOM      1  C   UNL     1       6.697   5.476  17.236  0.00  0.00    +0.000 A 
ATOM      2  C   UNL     1       7.407   5.272  18.424  0.00  0.00    +0.000 A 
ATOM      3  C   UNL     1       8.131   6.321  18.997  0.00  0.00    +0.000 A 
ATOM      4  C   UNL     1       8.162   7.578  18.391  0.00  0.00    +0.000 A 
ATOM      5  C   UNL     1       7.416   7.800  17.233  0.00  0.00    +0.000 A 
ATOM      6  C   UNL     1       6.688   6.752  16.656  0.00  0.00    +0.000 A 
ENDROOT
BRANCH   1   8
ATOM      7  O   UNL     1       6.191   4.004  15.461  0.00  0.00    +0.000 OA
ATOM      8  C   UNL     1       5.906   4.394  16.588  0.00  0.00    +0.000 C 
BRANCH   8   9
ATOM      9  C   UNL     1       4.790   3.798  17.366  0.00  0.00    +0.000 C 
ATOM     10  C   UNL     1       3.704   4.531  17.656  0.00  0.00    +0.000 C 
BRANCH  10  11
ATOM     11  C   UNL     1       2.584   4.018  18.455  0.00  0.00    +0.000 A 
ATOM     12  C   UNL     1       2.273   4.597  19.682  0.00  0.00    +0.000 A 
ATOM     13  C   UNL     1       1.214   4.073  20.422  0.00  0.00    +0.000 A 
ATOM     14  C   UNL     1       0.498   2.995  19.920  0.00  0.00    +0.000 A 
ATOM     15  C   UNL     1       0.873   2.479  18.689  0.00  0.00    +0.000 A 
ATOM     16  N   UNL     1       1.898   2.963  17.954  0.00  0.00    +0.000 NA
ENDBRANCH  10  11
ENDBRANCH   8   9
ENDBRANCH   1   8
BRANCH   4  17
ATOM     17  O   UNL     1       8.928   8.514  19.031  0.00  0.00    +0.000 OA
BRANCH  17  18
ATOM     18  C   UNL     1       8.800   9.848  18.549  0.00  0.00    +0.000 C 
BRANCH  18  19
ATOM     19  C   UNL     1       9.419  10.834  19.541  0.00  0.00    +0.000 C 
ATOM     20  O   UNL     1       9.290  10.640  20.753  0.00  0.00    +0.000 OA
ATOM     21  N   UNL     1      10.156  11.900  19.053  0.00  0.00    +0.000 N 
ATOM     22  C   UNL     1      10.281  12.270  17.639  0.00  0.00    +0.000 C 
ATOM     23  C   UNL     1      11.702  12.767  17.343  0.00  0.00    +0.000 C 
ATOM     24  O   UNL     1      12.066  13.846  18.216  0.00  0.00    +0.000 OA
ATOM     25  C   UNL     1      12.030  13.423  19.588  0.00  0.00    +0.000 C 
ATOM     26  C   UNL     1      10.635  12.927  19.983  0.00  0.00    +0.000 C 
ENDBRANCH  18  19
ENDBRANCH  17  18
ENDBRANCH   4  17
TORSDOF 6
ENDMDL
MODEL 2
REMARK VINA RESULT:      -8.0      0.943      1.054
REMARK  Name = 
REMARK  6 active torsions:
REMARK  status: ('A' for Active; 'I' for Inactive)
REMARK    1  A    between atoms: C_2  and  C_3
REMARK    2  A    between atoms: C_2  and  C_11
REMARK    3  A    between atoms: C_4  and  C_5
REMARK    4  A    between atoms: C_14  and  O_15
REMARK    5  A    between atoms: O_15  and  C_16
REMARK    6  A    between atoms: C_16  and  C_17
REMARK                            x       y       z     vdW  Elec       q    Type
REMARK                         _______ _______ _______ _____ _____    ______ ____
ROOT
ATOM      1  C   UNL     1       6.523   5.606  17.355  0.00  0.00    +0.000 A 
ATOM      2  C   UNL     1       7.422   5.369  18.401  0.00  0.00    +0.000 A 
ATOM      3  C   UNL     1       8.198   6.414  18.908  0.00  0.00    +0.000 A 
ATOM      4  C   UNL     1       8.094   7.701  18.375  0.00  0.00    +0.000 A 
ATOM      5  C   UNL     1       7.165   7.952  17.364  0.00  0.00    +0.000 A 
ATOM      6  C   UNL     1       6.384   6.907  16.854  0.00  0.00    +0.000 A 
ENDROOT
BRANCH   1   8
ATOM      7  O   UNL     1       5.761   4.222  15.600  0.00  0.00    +0.000 OA
ATOM      8  C   UNL     1       5.669   4.527  16.783  0.00  0.00    +0.000 C 
BRANCH   8   9
ATOM      9  C   UNL     1       4.734   3.831  17.703  0.00  0.00    +0.000 C 
ATOM     10  C   UNL     1       3.817   4.531  18.389  0.00  0.00    +0.000 C 
BRANCH  10  11
ATOM     11  C   UNL     1       2.890   3.912  19.344  0.00  0.00    +0.000 A 
ATOM     12  C   UNL     1       1.515   4.021  19.160  0.00  0.00    +0.000 A 
ATOM     13  C   UNL     1       0.663   3.436  20.097  0.00  0.00    +0.000 A 
ATOM     14  C   UNL     1       1.205   2.760  21.183  0.00  0.00    +0.000 A 
ATOM     15  C   UNL     1       2.585   2.697  21.289  0.00  0.00    +0.000 A 
ATOM     16  N   UNL     1       3.433   3.260  20.401  0.00  0.00    +0.000 NA
ENDBRANCH  10  11
ENDBRANCH   8   9
ENDBRANCH   1   8
BRANCH   4  17
ATOM     17  O   UNL     1       8.926   8.632  18.934  0.00  0.00    +0.000 OA
BRANCH  17  18
ATOM     18  C   UNL     1       8.843   9.942  18.382  0.00  0.00    +0.000 C 
BRANCH  18  19
ATOM     19  C   UNL     1       9.338  10.978  19.393  0.00  0.00    +0.000 C 
ATOM     20  O   UNL     1       9.358  10.695  20.594  0.00  0.00    +0.000 OA
ATOM     21  N   UNL     1       9.802  12.197  18.929  0.00  0.00    +0.000 N 
ATOM     22  C   UNL     1       9.725  12.662  17.540  0.00  0.00    +0.000 C 
ATOM     23  C   UNL     1      10.987  13.455  17.174  0.00  0.00    +0.000 C 
ATOM     24  O   UNL     1      11.204  14.536  18.092  0.00  0.00    +0.000 OA
ATOM     25  C   UNL     1      11.375  14.039  19.429  0.00  0.00    +0.000 C 
ATOM     26  C   UNL     1      10.147  13.248  19.891  0.00  0.00    +0.000 C 
ENDBRANCH  18  19
ENDBRANCH  17  18
ENDBRANCH   4  17
TORSDOF 6
ENDMDL
MODEL 3
REMARK VINA RESULT:      -7.9      5.737      8.467
REMARK  Name = 
REMARK  6 active torsions:
REMARK  status: ('A' for Active; 'I' for Inactive)
REMARK    1  A    between atoms: C_2  and  C_3
REMARK    2  A    between atoms: C_2  and  C_11
REMARK    3  A    between atoms: C_4  and  C_5
REMARK    4  A    between atoms: C_14  and  O_15
REMARK    5  A    between atoms: O_15  and  C_16
REMARK    6  A    between atoms: C_16  and  C_17
REMARK                            x       y       z     vdW  Elec       q    Type
REMARK                         _______ _______ _______ _____ _____    ______ ____
ROOT
ATOM      1  C   UNL     1       1.303   9.151  19.808  0.00  0.00    +0.000 A 
ATOM      2  C   UNL     1       1.205   8.347  20.949  0.00  0.00    +0.000 A 
ATOM      3  C   UNL     1       1.704   7.043  20.932  0.00  0.00    +0.000 A 
ATOM      4  C   UNL     1       2.297   6.522  19.779  0.00  0.00    +0.000 A 
ATOM      5  C   UNL     1       2.439   7.336  18.654  0.00  0.00    +0.000 A 
ATOM      6  C   UNL     1       1.942   8.645  18.668  0.00  0.00    +0.000 A 
ENDROOT
BRANCH   1   8
ATOM      7  O   UNL     1       1.197  11.379  20.583  0.00  0.00    +0.000 OA
ATOM      8  C   UNL     1       0.792  10.550  19.776  0.00  0.00    +0.000 C 
BRANCH   8   9
ATOM      9  C   UNL     1      -0.195  10.897  18.722  0.00  0.00    +0.000 C 
ATOM     10  C   UNL     1      -1.380  10.268  18.674  0.00  0.00    +0.000 C 
BRANCH  10  11
ATOM     11  C   UNL     1      -2.384  10.533  17.637  0.00  0.00    +0.000 A 
ATOM     12  C   UNL     1      -2.211  10.036  16.349  0.00  0.00    +0.000 A 
ATOM     13  C   UNL     1      -3.176  10.322  15.383  0.00  0.00    +0.000 A 
ATOM     14  C   UNL     1      -4.280  11.090  15.729  0.00  0.00    +0.000 A 
ATOM     15  C   UNL     1      -4.375  11.545  17.035  0.00  0.00    +0.000 A 
ATOM     16  N   UNL     1      -3.453  11.288  17.988  0.00  0.00    +0.000 NA
ENDBRANCH  10  11
ENDBRANCH   8   9
ENDBRANCH   1   8
BRANCH   4  17
ATOM     17  O   UNL     1       2.719   5.225  19.877  0.00  0.00    +0.000 OA
BRANCH  17  18
ATOM     18  C   UNL     1       3.110   4.612  18.652  0.00  0.00    +0.000 C 
BRANCH  18  19
ATOM     19  C   UNL     1       4.607   4.293  18.671  0.00  0.00    +0.000 C 
ATOM     20  O   UNL     1       5.049   3.494  19.501  0.00  0.00    +0.000 OA
ATOM     21  N   UNL     1       5.426   4.874  17.717  0.00  0.00    +0.000 N 
ATOM     22  C   UNL     1       5.015   5.907  16.760  0.00  0.00    +0.000 C 
ATOM     23  C   UNL     1       5.703   5.681  15.407  0.00  0.00    +0.000 C 
ATOM     24  O   UNL     1       7.129   5.620  15.553  0.00  0.00    +0.000 OA
ATOM     25  C   UNL     1       7.503   4.536  16.418  0.00  0.00    +0.000 C 
ATOM     26  C   UNL     1       6.877   4.689  17.809  0.00  0.00    +0.000 C 
ENDBRANCH  18  19
ENDBRANCH  17  18
ENDBRANCH   4  17
TORSDOF 6
ENDMDL
MODEL 4
REMARK VINA RESULT:      -7.8      5.422      8.351
REMARK  Name = 
REMARK  6 active torsions:
REMARK  status: ('A' for Active; 'I' for Inactive)
REMARK    1  A    between atoms: C_2  and  C_3
REMARK    2  A    between atoms: C_2  and  C_11
REMARK    3  A    between atoms: C_4  and  C_5
REMARK    4  A    between atoms: C_14  and  O_15
REMARK    5  A    between atoms: O_15  and  C_16
REMARK    6  A    between atoms: C_16  and  C_17
REMARK                            x       y       z     vdW  Elec       q    Type
REMARK                         _______ _______ _______ _____ _____    ______ ____
ROOT
ATOM      1  C   UNL     1       1.525   8.306  19.709  0.00  0.00    +0.000 A 
ATOM      2  C   UNL     1       1.335   7.406  20.762  0.00  0.00    +0.000 A 
ATOM      3  C   UNL     1       1.897   6.128  20.702  0.00  0.00    +0.000 A 
ATOM      4  C   UNL     1       2.644   5.732  19.591  0.00  0.00    +0.000 A 
ATOM      5  C   UNL     1       2.875   6.642  18.559  0.00  0.00    +0.000 A 
ATOM      6  C   UNL     1       2.316   7.925  18.617  0.00  0.00    +0.000 A 
ENDROOT
BRANCH   1   8
ATOM      7  O   UNL     1       1.259  10.472  20.613  0.00  0.00    +0.000 OA
ATOM      8  C   UNL     1       0.952   9.681  19.727  0.00  0.00    +0.000 C 
BRANCH   8   9
ATOM      9  C   UNL     1       0.027  10.056  18.627  0.00  0.00    +0.000 C 
ATOM     10  C   UNL     1      -1.284  10.204  18.869  0.00  0.00    +0.000 C 
BRANCH  10  11
ATOM     11  C   UNL     1      -2.258  10.533  17.821  0.00  0.00    +0.000 A 
ATOM     12  C   UNL     1      -3.399  11.269  18.128  0.00  0.00    +0.000 A 
ATOM     13  C   UNL     1      -4.312  11.547  17.111  0.00  0.00    +0.000 A 
ATOM     14  C   UNL     1      -4.061  11.088  15.825  0.00  0.00    +0.000 A 
ATOM     15  C   UNL     1      -2.900  10.364  15.605  0.00  0.00    +0.000 A 
ATOM     16  N   UNL     1      -2.002  10.075  16.572  0.00  0.00    +0.000 NA
ENDBRANCH  10  11
ENDBRANCH   8   9
ENDBRANCH   1   8
BRANCH   4  17
ATOM     17  O   UNL     1       3.116   4.448  19.635  0.00  0.00    +0.000 OA
BRANCH  17  18
ATOM     18  C   UNL     1       4.494   4.288  19.316  0.00  0.00    +0.000 C 
BRANCH  18  19
ATOM     19  C   UNL     1       4.656   3.846  17.860  0.00  0.00    +0.000 C 
ATOM     20  O   UNL     1       3.817   3.096  17.355  0.00  0.00    +0.000 OA
ATOM     21  N   UNL     1       5.720   4.342  17.125  0.00  0.00    +0.000 N 
ATOM     22  C   UNL     1       6.819   5.152  17.661  0.00  0.00    +0.000 C 
ATOM     23  C   UNL     1       7.235   6.222  16.643  0.00  0.00    +0.000 C 
ATOM     24  O   UNL     1       7.569   5.632  15.378  0.00  0.00    +0.000 OA
ATOM     25  C   UNL     1       6.441   4.930  14.833  0.00  0.00    +0.000 C 
ATOM     26  C   UNL     1       5.966   3.820  15.777  0.00  0.00    +0.000 C 
ENDBRANCH  18  19
ENDBRANCH  17  18
ENDBRANCH   4  17
TORSDOF 6
ENDMDL
MODEL 5
REMARK VINA RESULT:      -7.7      5.950      8.554
REMARK  Name = 
REMARK  6 active torsions:
REMARK  status: ('A' for Active; 'I' for Inactive)
REMARK    1  A    between atoms: C_2  and  C_3
REMARK    2  A    between atoms: C_2  and  C_11
REMARK    3  A    between atoms: C_4  and  C_5
REMARK    4  A    between atoms: C_14  and  O_15
REMARK    5  A    between atoms: O_15  and  C_16
REMARK    6  A    between atoms: C_16  and  C_17
REMARK                            x       y       z     vdW  Elec       q    Type
REMARK                         _______ _______ _______ _____ _____    ______ ____
ROOT
ATOM      1  C   UNL     1       4.088   5.582  18.534  0.00  0.00    +0.000 A 
ATOM      2  C   UNL     1       3.761   6.704  17.765  0.00  0.00    +0.000 A 
ATOM      3  C   UNL     1       2.787   7.600  18.212  0.00  0.00    +0.000 A 
ATOM      4  C   UNL     1       2.123   7.384  19.422  0.00  0.00    +0.000 A 
ATOM      5  C   UNL     1       2.479   6.292  20.215  0.00  0.00    +0.000 A 
ATOM      6  C   UNL     1       3.457   5.393  19.771  0.00  0.00    +0.000 A 
ENDROOT
BRANCH   1   8
ATOM      7  O   UNL     1       5.758   3.962  18.937  0.00  0.00    +0.000 OA
ATOM      8  C   UNL     1       5.123   4.600  18.105  0.00  0.00    +0.000 C 
BRANCH   8   9
ATOM      9  C   UNL     1       5.330   4.413  16.646  0.00  0.00    +0.000 C 
ATOM     10  C   UNL     1       6.489   4.779  16.077  0.00  0.00    +0.000 C 
BRANCH  10  11
ATOM     11  C   UNL     1       6.744   4.660  14.637  0.00  0.00    +0.000 A 
ATOM     12  C   UNL     1       6.006   3.768  13.864  0.00  0.00    +0.000 A 
ATOM     13  C   UNL     1       6.288   3.667  12.502  0.00  0.00    +0.000 A 
ATOM     14  C   UNL     1       7.290   4.457  11.953  0.00  0.00    +0.000 A 
ATOM     15  C   UNL     1       7.975   5.320  12.793  0.00  0.00    +0.000 A 
ATOM     16  N   UNL     1       7.727   5.433  14.116  0.00  0.00    +0.000 NA
ENDBRANCH  10  11
ENDBRANCH   8   9
ENDBRANCH   1   8
BRANCH   4  17
ATOM     17  O   UNL     1       1.170   8.314  19.736  0.00  0.00    +0.000 OA
BRANCH  17  18
ATOM     18  C   UNL     1       1.435   9.641  19.294  0.00  0.00    +0.000 C 
BRANCH  18  19
ATOM     19  C   UNL     1       0.700  10.653  20.176  0.00  0.00    +0.000 C 
ATOM     20  O   UNL     1       1.290  11.171  21.128  0.00  0.00    +0.000 OA
ATOM     21  N   UNL     1      -0.600  11.003  19.852  0.00  0.00    +0.000 N 
ATOM     22  C   UNL     1      -1.414  10.372  18.808  0.00  0.00    +0.000 C 
ATOM     23  C   UNL     1      -2.279  11.424  18.101  0.00  0.00    +0.000 C 
ATOM     24  O   UNL     1      -3.081  12.154  19.041  0.00  0.00    +0.000 OA
ATOM     25  C   UNL     1      -2.249  12.841  19.990  0.00  0.00    +0.000 C 
ATOM     26  C   UNL     1      -1.360  11.863  20.765  0.00  0.00    +0.000 C 
ENDBRANCH  18  19
ENDBRANCH  17  18
ENDBRANCH   4  17
TORSDOF 6
ENDMDL
MODEL 6
REMARK VINA RESULT:      -7.7      1.342      2.181
REMARK  Name = 
REMARK  6 active torsions:
REMARK  status: ('A' for Active; 'I' for Inactive)
REMARK    1  A    between atoms: C_2  and  C_3
REMARK    2  A    between atoms: C_2  and  C_11
REMARK    3  A    between atoms: C_4  and  C_5
REMARK    4  A    between atoms: C_14  and  O_15
REMARK    5  A    between atoms: O_15  and  C_16
REMARK    6  A    between atoms: C_16  and  C_17
REMARK                            x       y       z     vdW  Elec       q    Type
REMARK                         _______ _______ _______ _____ _____    ______ ____
ROOT
ATOM      1  C   UNL     1       6.575   5.728  17.261  0.00  0.00    +0.000 A 
ATOM      2  C   UNL     1       6.655   7.002  16.689  0.00  0.00    +0.000 A 
ATOM      3  C   UNL     1       7.473   7.978  17.265  0.00  0.00    +0.000 A 
ATOM      4  C   UNL     1       8.210   7.700  18.417  0.00  0.00    +0.000 A 
ATOM      5  C   UNL     1       8.170   6.416  18.964  0.00  0.00    +0.000 A 
ATOM      6  C   UNL     1       7.354   5.434  18.388  0.00  0.00    +0.000 A 
ENDROOT
BRANCH   1   8
ATOM      7  O   UNL     1       5.844   4.327  15.507  0.00  0.00    +0.000 OA
ATOM      8  C   UNL     1       5.724   4.651  16.683  0.00  0.00    +0.000 C 
BRANCH   8   9
ATOM      9  C   UNL     1       4.756   3.980  17.588  0.00  0.00    +0.000 C 
ATOM     10  C   UNL     1       3.702   4.657  18.069  0.00  0.00    +0.000 C 
BRANCH  10  11
ATOM     11  C   UNL     1       2.731   4.067  18.998  0.00  0.00    +0.000 A 
ATOM     12  C   UNL     1       1.671   3.305  18.517  0.00  0.00    +0.000 A 
ATOM     13  C   UNL     1       0.757   2.775  19.428  0.00  0.00    +0.000 A 
ATOM     14  C   UNL     1       0.927   3.018  20.784  0.00  0.00    +0.000 A 
ATOM     15  C   UNL     1       2.011   3.785  21.179  0.00  0.00    +0.000 A 
ATOM     16  N   UNL     1       2.908   4.316  20.318  0.00  0.00    +0.000 NA
ENDBRANCH  10  11
ENDBRANCH   8   9
ENDBRANCH   1   8
BRANCH   4  17
ATOM     17  O   UNL     1       8.948   8.744  18.903  0.00  0.00    +0.000 OA
BRANCH  17  18
ATOM     18  C   UNL     1       8.551  10.037  18.458  0.00  0.00    +0.000 C 
BRANCH  18  19
ATOM     19  C   UNL     1       9.715  11.023  18.580  0.00  0.00    +0.000 C 
ATOM     20  O   UNL     1      10.490  11.171  17.631  0.00  0.00    +0.000 OA
ATOM     21  N   UNL     1       9.842  11.768  19.741  0.00  0.00    +0.000 N 
ATOM     22  C   UNL     1       9.038  11.593  20.954  0.00  0.00    +0.000 C 
ATOM     23  C   UNL     1       8.742  12.954  21.597  0.00  0.00    +0.000 C 
ATOM     24  O   UNL     1       9.952  13.681  21.854  0.00  0.00    +0.000 OA
ATOM     25  C   UNL     1      10.667  13.922  20.632  0.00  0.00    +0.000 C 
ATOM     26  C   UNL     1      11.027  12.611  19.926  0.00  0.00    +0.000 C 
ENDBRANCH  18  19
ENDBRANCH  17  18
ENDBRANCH   4  17
TORSDOF 6
ENDMDL
MODEL 7
REMARK VINA RESULT:      -7.7      0.497      1.065
REMARK  Name = 
REMARK  6 active torsions:
REMARK  status: ('A' for Active; 'I' for Inactive)
REMARK    1  A    between atoms: C_2  and  C_3
REMARK    2  A    between atoms: C_2  and  C_11
REMARK    3  A    between atoms: C_4  and  C_5
REMARK    4  A    between atoms: C_14  and  O_15
REMARK    5  A    between atoms: O_15  and  C_16
REMARK    6  A    between atoms: C_16  and  C_17
REMARK                            x       y       z     vdW  Elec       q    Type
REMARK                         _______ _______ _______ _____ _____    ______ ____
ROOT
ATOM      1  C   UNL     1       6.509   6.103  17.322  0.00  0.00    +0.000 A 
ATOM      2  C   UNL     1       6.600   7.420  16.860  0.00  0.00    +0.000 A 
ATOM      3  C   UNL     1       7.481   8.317  17.469  0.00  0.00    +0.000 A 
ATOM      4  C   UNL     1       8.272   7.916  18.548  0.00  0.00    +0.000 A 
ATOM      5  C   UNL     1       8.219   6.590  18.982  0.00  0.00    +0.000 A 
ATOM      6  C   UNL     1       7.339   5.688  18.372  0.00  0.00    +0.000 A 
ENDROOT
BRANCH   1   8
ATOM      7  O   UNL     1       5.653   4.862  15.504  0.00  0.00    +0.000 OA
ATOM      8  C   UNL     1       5.590   5.106  16.704  0.00  0.00    +0.000 C 
BRANCH   8   9
ATOM      9  C   UNL     1       4.626   4.413  17.597  0.00  0.00    +0.000 C 
ATOM     10  C   UNL     1       3.320   4.714  17.541  0.00  0.00    +0.000 C 
BRANCH  10  11
ATOM     11  C   UNL     1       2.320   4.098  18.422  0.00  0.00    +0.000 A 
ATOM     12  C   UNL     1       2.117   4.591  19.707  0.00  0.00    +0.000 A 
ATOM     13  C   UNL     1       1.172   3.970  20.523  0.00  0.00    +0.000 A 
ATOM     14  C   UNL     1       0.459   2.883  20.035  0.00  0.00    +0.000 A 
ATOM     15  C   UNL     1       0.721   2.457  18.743  0.00  0.00    +0.000 A 
ATOM     16  N   UNL     1       1.635   3.036  17.934  0.00  0.00    +0.000 NA
ENDBRANCH  10  11
ENDBRANCH   8   9
ENDBRANCH   1   8
BRANCH   4  17
ATOM     17  O   UNL     1       9.071   8.892  19.078  0.00  0.00    +0.000 OA
BRANCH  17  18
ATOM     18  C   UNL     1       8.892  10.196  18.535  0.00  0.00    +0.000 C 
BRANCH  18  19
ATOM     19  C   UNL     1       9.461  11.251  19.486  0.00  0.00    +0.000 C 
ATOM     20  O   UNL     1       9.349  11.096  20.705  0.00  0.00    +0.000 OA
ATOM     21  N   UNL     1      10.137  12.336  18.953  0.00  0.00    +0.000 N 
ATOM     22  C   UNL     1      10.234  12.659  17.526  0.00  0.00    +0.000 C 
ATOM     23  C   UNL     1      11.625  13.220  17.201  0.00  0.00    +0.000 C 
ATOM     24  O   UNL     1      11.935  14.349  18.030  0.00  0.00    +0.000 OA
ATOM     25  C   UNL     1      11.929  13.976  19.417  0.00  0.00    +0.000 C 
ATOM     26  C   UNL     1      10.565  13.421  19.841  0.00  0.00    +0.000 C 
ENDBRANCH  18  19
ENDBRANCH  17  18
ENDBRANCH   4  17
TORSDOF 6
ENDMDL
MODEL 8
REMARK VINA RESULT:      -7.6      1.436      1.971
REMARK  Name = 
REMARK  6 active torsions:
REMARK  status: ('A' for Active; 'I' for Inactive)
REMARK    1  A    between atoms: C_2  and  C_3
REMARK    2  A    between atoms: C_2  and  C_11
REMARK    3  A    between atoms: C_4  and  C_5
REMARK    4  A    between atoms: C_14  and  O_15
REMARK    5  A    between atoms: O_15  and  C_16
REMARK    6  A    between atoms: C_16  and  C_17
REMARK                            x       y       z     vdW  Elec       q    Type
REMARK                         _______ _______ _______ _____ _____    ______ ____
ROOT
ATOM      1  C   UNL     1       6.630   5.539  17.402  0.00  0.00    +0.000 A 
ATOM      2  C   UNL     1       7.446   5.431  18.533  0.00  0.00    +0.000 A 
ATOM      3  C   UNL     1       8.186   6.533  18.971  0.00  0.00    +0.000 A 
ATOM      4  C   UNL     1       8.128   7.747  18.284  0.00  0.00    +0.000 A 
ATOM      5  C   UNL     1       7.278   7.873  17.184  0.00  0.00    +0.000 A 
ATOM      6  C   UNL     1       6.534   6.772  16.743  0.00  0.00    +0.000 A 
ENDROOT
BRANCH   1   8
ATOM      7  O   UNL     1       5.945   4.004  15.744  0.00  0.00    +0.000 OA
ATOM      8  C   UNL     1       5.817   4.397  16.898  0.00  0.00    +0.000 C 
BRANCH   8   9
ATOM      9  C   UNL     1       4.878   3.749  17.849  0.00  0.00    +0.000 C 
ATOM     10  C   UNL     1       3.927   4.474  18.458  0.00  0.00    +0.000 C 
BRANCH  10  11
ATOM     11  C   UNL     1       2.994   3.906  19.438  0.00  0.00    +0.000 A 
ATOM     12  C   UNL     1       1.628   4.145  19.328  0.00  0.00    +0.000 A 
ATOM     13  C   UNL     1       0.772   3.605  20.287  0.00  0.00    +0.000 A 
ATOM     14  C   UNL     1       1.301   2.844  21.322  0.00  0.00    +0.000 A 
ATOM     15  C   UNL     1       2.673   2.653  21.356  0.00  0.00    +0.000 A 
ATOM     16  N   UNL     1       3.525   3.169  20.444  0.00  0.00    +0.000 NA
ENDBRANCH  10  11
ENDBRANCH   8   9
ENDBRANCH   1   8
BRANCH   4  17
ATOM     17  O   UNL     1       8.919   8.741  18.791  0.00  0.00    +0.000 OA
BRANCH  17  18
ATOM     18  C   UNL     1       8.523  10.069  18.466  0.00  0.00    +0.000 C 
BRANCH  18  19
ATOM     19  C   UNL     1       9.704  11.030  18.618  0.00  0.00    +0.000 C 
ATOM     20  O   UNL     1      10.504  11.163  17.687  0.00  0.00    +0.000 OA
ATOM     21  N   UNL     1       9.820  11.770  19.783  0.00  0.00    +0.000 N 
ATOM     22  C   UNL     1       8.984  11.609  20.977  0.00  0.00    +0.000 C 
ATOM     23  C   UNL     1       8.702  12.976  21.615  0.00  0.00    +0.000 C 
ATOM     24  O   UNL     1       9.921  13.676  21.902  0.00  0.00    +0.000 OA
ATOM     25  C   UNL     1      10.669  13.905  20.698  0.00  0.00    +0.000 C 
ATOM     26  C   UNL     1      11.018  12.587  19.998  0.00  0.00    +0.000 C 
ENDBRANCH  18  19
ENDBRANCH  17  18
ENDBRANCH   4  17
TORSDOF 6
ENDMDL
MODEL 9
REMARK VINA RESULT:      -7.6      5.978      9.004
REMARK  Name = 
REMARK  6 active torsions:
REMARK  status: ('A' for Active; 'I' for Inactive)
REMARK    1  A    between atoms: C_2  and  C_3
REMARK    2  A    between atoms: C_2  and  C_11
REMARK    3  A    between atoms: C_4  and  C_5
REMARK    4  A    between atoms: C_14  and  O_15
REMARK    5  A    between atoms: O_15  and  C_16
REMARK    6  A    between atoms: C_16  and  C_17
REMARK                            x       y       z     vdW  Elec       q    Type
REMARK                         _______ _______ _______ _____ _____    ______ ____
ROOT
ATOM      1  C   UNL     1       3.834   6.022  18.293  0.00  0.00    +0.000 A 
ATOM      2  C   UNL     1       3.653   7.170  17.515  0.00  0.00    +0.000 A 
ATOM      3  C   UNL     1       2.769   8.168  17.932  0.00  0.00    +0.000 A 
ATOM      4  C   UNL     1       2.051   8.029  19.122  0.00  0.00    +0.000 A 
ATOM      5  C   UNL     1       2.263   6.908  19.925  0.00  0.00    +0.000 A 
ATOM      6  C   UNL     1       3.150   5.907  19.511  0.00  0.00    +0.000 A 
ENDROOT
BRANCH   1   8
ATOM      7  O   UNL     1       5.275   4.206  18.743  0.00  0.00    +0.000 OA
ATOM      8  C   UNL     1       4.768   4.932  17.895  0.00  0.00    +0.000 C 
BRANCH   8   9
ATOM      9  C   UNL     1       5.035   4.751  16.445  0.00  0.00    +0.000 C 
ATOM     10  C   UNL     1       6.294   4.793  15.981  0.00  0.00    +0.000 C 
BRANCH  10  11
ATOM     11  C   UNL     1       6.624   4.662  14.557  0.00  0.00    +0.000 A 
ATOM     12  C   UNL     1       5.908   3.786  13.747  0.00  0.00    +0.000 A 
ATOM     13  C   UNL     1       6.261   3.674  12.402  0.00  0.00    +0.000 A 
ATOM     14  C   UNL     1       7.311   4.437  11.907  0.00  0.00    +0.000 A 
ATOM     15  C   UNL     1       7.970   5.286  12.781  0.00  0.00    +0.000 A 
ATOM     16  N   UNL     1       7.653   5.409  14.089  0.00  0.00    +0.000 NA
ENDBRANCH  10  11
ENDBRANCH   8   9
ENDBRANCH   1   8
BRANCH   4  17
ATOM     17  O   UNL     1       1.195   9.058  19.408  0.00  0.00    +0.000 OA
BRANCH  17  18
ATOM     18  C   UNL     1       1.035  10.029  18.380  0.00  0.00    +0.000 C 
BRANCH  18  19
ATOM     19  C   UNL     1       0.007  11.083  18.798  0.00  0.00    +0.000 C 
ATOM     20  O   UNL     1       0.392  12.145  19.294  0.00  0.00    +0.000 OA
ATOM     21  N   UNL     1      -1.336  10.839  18.562  0.00  0.00    +0.000 N 
ATOM     22  C   UNL     1      -1.896   9.574  18.075  0.00  0.00    +0.000 C 
ATOM     23  C   UNL     1      -3.058   9.844  17.110  0.00  0.00    +0.000 C 
ATOM     24  O   UNL     1      -4.056  10.675  17.721  0.00  0.00    +0.000 OA
ATOM     25  C   UNL     1      -3.499  11.944  18.097  0.00  0.00    +0.000 C 
ATOM     26  C   UNL     1      -2.337  11.774  19.082  0.00  0.00    +0.000 C 
ENDBRANCH  18  19
ENDBRANCH  17  18
ENDBRANCH   4  17
TORSDOF 6
ENDMDL
