MODEL 1
REMARK VINA RESULT:      -4.9      0.000      0.000
REMARK  Name = 
REMARK  8 active torsions:
REMARK  status: ('A' for Active; 'I' for Inactive)
REMARK    1  A    between atoms: C_2  and  C_3
REMARK    2  A    between atoms: C_3  and  N_4
REMARK    3  A    between atoms: N_4  and  C_5
REMARK    4  A    between atoms: N_4  and  C_6
REMARK    5  A    between atoms: N_4  and  C_7
REMARK    6  A    between atoms: C_7  and  C_8
REMARK    7  A    between atoms: C_8  and  C_9
REMARK    8  A    between atoms: C_9  and  C_10
REMARK                            x       y       z     vdW  Elec       q    Type
REMARK                         _______ _______ _______ _____ _____    ______ ____
ROOT
ATOM      1  N   UNL     1       3.702   3.741  18.535  0.00  0.00    +0.000 N 
ATOM      2  C   UNL     1       4.168   5.034  19.194  0.00  0.00    +0.000 C 
ATOM      3  C   UNL     1       4.058   2.540  19.382  0.00  0.00    +0.000 C 
ENDROOT
BRANCH   1   4
ATOM      4  C   UNL     1       2.181   3.798  18.299  0.00  0.00    +0.000 C 
BRANCH   4   6
ATOM      5  C   UNL     1       0.919   3.920  20.486  0.00  0.00    +0.000 C 
ATOM      6  C   UNL     1       1.336   3.238  19.409  0.00  0.00    +0.000 C 
ENDBRANCH   4   6
ENDBRANCH   1   4
BRANCH   1   7
ATOM      7  C   UNL     1       4.362   3.631  17.127  0.00  0.00    +0.000 C 
BRANCH   7   8
ATOM      8  C   UNL     1       4.953   4.960  16.630  0.00  0.00    +0.000 C 
BRANCH   8   9
ATOM      9  C   UNL     1       5.580   4.812  15.248  0.00  0.00    +0.000 C 
BRANCH   9  10
ATOM     10  C   UNL     1       7.104   4.922  15.311  0.00  0.00    +0.000 C 
ATOM     11  O   UNL     1       7.607   4.667  16.443  0.00  0.00    +0.000 OA
ATOM     12  O   UNL     1       7.641   5.351  14.260  0.00  0.00    +0.000 OA
ENDBRANCH   9  10
ENDBRANCH   8   9
ENDBRANCH   7   8
ENDBRANCH   1   7
TORSDOF 6
ENDMDL
MODEL 2
REMARK VINA RESULT:      -4.9      1.439      2.094
REMARK  Name = 
REMARK  8 active torsions:
REMARK  status: ('A' for Active; 'I' for Inactive)
REMARK    1  A    between atoms: C_2  and  C_3
REMARK    2  A    between atoms: C_3  and  N_4
REMARK    3  A    between atoms: N_4  and  C_5
REMARK    4  A    between atoms: N_4  and  C_6
REMARK    5  A    between atoms: N_4  and  C_7
REMARK    6  A    between atoms: C_7  and  C_8
REMARK    7  A    between atoms: C_8  and  C_9
REMARK    8  A    between atoms: C_9  and  C_10
REMARK                            x       y       z     vdW  Elec       q    Type
REMARK                         _______ _______ _______ _____ _____    ______ ____
ROOT
ATOM      1  N   UNL     1       3.479   3.056  18.807  0.00  0.00    +0.000 N 
ATOM      2  C   UNL     1       4.376   2.237  19.727  0.00  0.00    +0.000 C 
ATOM      3  C   UNL     1       2.581   2.158  17.984  0.00  0.00    +0.000 C 
ENDROOT
BRANCH   1   4
ATOM      4  C   UNL     1       2.634   4.037  19.642  0.00  0.00    +0.000 C 
BRANCH   4   6
ATOM      5  C   UNL     1       1.305   2.849  21.435  0.00  0.00    +0.000 C 
ATOM      6  C   UNL     1       1.383   3.459  20.242  0.00  0.00    +0.000 C 
ENDBRANCH   4   6
ENDBRANCH   1   4
BRANCH   1   7
ATOM      7  C   UNL     1       4.377   3.929  17.879  0.00  0.00    +0.000 C 
BRANCH   7   8
ATOM      8  C   UNL     1       5.150   5.020  18.636  0.00  0.00    +0.000 C 
BRANCH   8   9
ATOM      9  C   UNL     1       6.113   5.764  17.718  0.00  0.00    +0.000 C 
BRANCH   9  10
ATOM     10  C   UNL     1       7.346   4.916  17.397  0.00  0.00    +0.000 C 
ATOM     11  O   UNL     1       7.571   4.756  16.163  0.00  0.00    +0.000 OA
ATOM     12  O   UNL     1       7.906   4.409  18.400  0.00  0.00    +0.000 OA
ENDBRANCH   9  10
ENDBRANCH   8   9
ENDBRANCH   7   8
ENDBRANCH   1   7
TORSDOF 6
ENDMDL
MODEL 3
REMARK VINA RESULT:      -4.9      1.544      2.127
REMARK  Name = 
REMARK  8 active torsions:
REMARK  status: ('A' for Active; 'I' for Inactive)
REMARK    1  A    between atoms: C_2  and  C_3
REMARK    2  A    between atoms: C_3  and  N_4
REMARK    3  A    between atoms: N_4  and  C_5
REMARK    4  A    between atoms: N_4  and  C_6
REMARK    5  A    between atoms: N_4  and  C_7
REMARK    6  A    between atoms: C_7  and  C_8
REMARK    7  A    between atoms: C_8  and  C_9
REMARK    8  A    between atoms: C_9  and  C_10
REMARK                            x       y       z     vdW  Elec       q    Type
REMARK                         _______ _______ _______ _____ _____    ______ ____
ROOT
ATOM      1  N   UNL     1       3.010   3.632  18.220  0.00  0.00    +0.000 N 
ATOM      2  C   UNL     1       2.532   2.248  17.800  0.00  0.00    +0.000 C 
ATOM      3  C   UNL     1       1.974   4.686  17.895  0.00  0.00    +0.000 C 
ENDROOT
BRANCH   1   4
ATOM      4  C   UNL     1       3.325   3.639  19.727  0.00  0.00    +0.000 C 
BRANCH   4   6
ATOM      5  C   UNL     1       1.691   2.905  21.511  0.00  0.00    +0.000 C 
ATOM      6  C   UNL     1       2.138   3.815  20.632  0.00  0.00    +0.000 C 
ENDBRANCH   4   6
ENDBRANCH   1   4
BRANCH   1   7
ATOM      7  C   UNL     1       4.351   3.943  17.488  0.00  0.00    +0.000 C 
BRANCH   7   8
ATOM      8  C   UNL     1       4.862   5.370  17.741  0.00  0.00    +0.000 C 
BRANCH   8   9
ATOM      9  C   UNL     1       6.284   5.367  18.292  0.00  0.00    +0.000 C 
BRANCH   9  10
ATOM     10  C   UNL     1       7.317   5.223  17.172  0.00  0.00    +0.000 C 
ATOM     11  O   UNL     1       8.069   4.212  17.273  0.00  0.00    +0.000 OA
ATOM     12  O   UNL     1       7.346   6.183  16.364  0.00  0.00    +0.000 OA
ENDBRANCH   9  10
ENDBRANCH   8   9
ENDBRANCH   7   8
ENDBRANCH   1   7
TORSDOF 6
ENDMDL
MODEL 4
REMARK VINA RESULT:      -4.9      1.163      1.284
REMARK  Name = 
REMARK  8 active torsions:
REMARK  status: ('A' for Active; 'I' for Inactive)
REMARK    1  A    between atoms: C_2  and  C_3
REMARK    2  A    between atoms: C_3  and  N_4
REMARK    3  A    between atoms: N_4  and  C_5
REMARK    4  A    between atoms: N_4  and  C_6
REMARK    5  A    between atoms: N_4  and  C_7
REMARK    6  A    between atoms: C_7  and  C_8
REMARK    7  A    between atoms: C_8  and  C_9
REMARK    8  A    between atoms: C_9  and  C_10
REMARK                            x       y       z     vdW  Elec       q    Type
REMARK                         _______ _______ _______ _____ _____    ______ ____
ROOT
ATOM      1  N   UNL     1       3.813   4.802  18.283  0.00  0.00    +0.000 N 
ATOM      2  C   UNL     1       3.082   5.926  19.008  0.00  0.00    +0.000 C 
ATOM      3  C   UNL     1       4.608   3.956  19.253  0.00  0.00    +0.000 C 
ENDROOT
BRANCH   1   4
ATOM      4  C   UNL     1       2.799   3.929  17.520  0.00  0.00    +0.000 C 
BRANCH   4   6
ATOM      5  C   UNL     1       0.978   2.774  18.840  0.00  0.00    +0.000 C 
ATOM      6  C   UNL     1       1.436   3.828  18.147  0.00  0.00    +0.000 C 
ENDBRANCH   4   6
ENDBRANCH   1   4
BRANCH   1   7
ATOM      7  C   UNL     1       4.752   5.427  17.208  0.00  0.00    +0.000 C 
BRANCH   7   8
ATOM      8  C   UNL     1       4.767   4.642  15.887  0.00  0.00    +0.000 C 
BRANCH   8   9
ATOM      9  C   UNL     1       6.019   3.782  15.759  0.00  0.00    +0.000 C 
BRANCH   9  10
ATOM     10  C   UNL     1       7.290   4.617  15.935  0.00  0.00    +0.000 C 
ATOM     11  O   UNL     1       7.935   4.382  16.996  0.00  0.00    +0.000 OA
ATOM     12  O   UNL     1       7.464   5.493  15.053  0.00  0.00    +0.000 OA
ENDBRANCH   9  10
ENDBRANCH   8   9
ENDBRANCH   7   8
ENDBRANCH   1   7
TORSDOF 6
ENDMDL
MODEL 5
REMARK VINA RESULT:      -4.9      1.303      1.655
REMARK  Name = 
REMARK  8 active torsions:
REMARK  status: ('A' for Active; 'I' for Inactive)
REMARK    1  A    between atoms: C_2  and  C_3
REMARK    2  A    between atoms: C_3  and  N_4
REMARK    3  A    between atoms: N_4  and  C_5
REMARK    4  A    between atoms: N_4  and  C_6
REMARK    5  A    between atoms: N_4  and  C_7
REMARK    6  A    between atoms: C_7  and  C_8
REMARK    7  A    between atoms: C_8  and  C_9
REMARK    8  A    between atoms: C_9  and  C_10
REMARK                            x       y       z     vdW  Elec       q    Type
REMARK                         _______ _______ _______ _____ _____    ______ ____
ROOT
ATOM      1  N   UNL     1       3.193   3.462  18.589  0.00  0.00    +0.000 N 
ATOM      2  C   UNL     1       4.432   3.054  19.376  0.00  0.00    +0.000 C 
ATOM      3  C   UNL     1       2.631   2.290  17.814  0.00  0.00    +0.000 C 
ENDROOT
BRANCH   1   4
ATOM      4  C   UNL     1       2.129   4.027  19.550  0.00  0.00    +0.000 C 
BRANCH   4   6
ATOM      5  C   UNL     1       1.343   2.804  21.618  0.00  0.00    +0.000 C 
ATOM      6  C   UNL     1       2.241   3.566  20.976  0.00  0.00    +0.000 C 
ENDBRANCH   4   6
ENDBRANCH   1   4
BRANCH   1   7
ATOM      7  C   UNL     1       3.573   4.624  17.622  0.00  0.00    +0.000 C 
BRANCH   7   8
ATOM      8  C   UNL     1       4.828   4.328  16.784  0.00  0.00    +0.000 C 
BRANCH   8   9
ATOM      9  C   UNL     1       5.930   5.349  17.046  0.00  0.00    +0.000 C 
BRANCH   9  10
ATOM     10  C   UNL     1       7.306   4.684  17.097  0.00  0.00    +0.000 C 
ATOM     11  O   UNL     1       7.733   4.439  18.262  0.00  0.00    +0.000 OA
ATOM     12  O   UNL     1       7.871   4.567  15.982  0.00  0.00    +0.000 OA
ENDBRANCH   9  10
ENDBRANCH   8   9
ENDBRANCH   7   8
ENDBRANCH   1   7
TORSDOF 6
ENDMDL
MODEL 6
REMARK VINA RESULT:      -4.8      1.009      1.613
REMARK  Name = 
REMARK  8 active torsions:
REMARK  status: ('A' for Active; 'I' for Inactive)
REMARK    1  A    between atoms: C_2  and  C_3
REMARK    2  A    between atoms: C_3  and  N_4
REMARK    3  A    between atoms: N_4  and  C_5
REMARK    4  A    between atoms: N_4  and  C_6
REMARK    5  A    between atoms: N_4  and  C_7
REMARK    6  A    between atoms: C_7  and  C_8
REMARK    7  A    between atoms: C_8  and  C_9
REMARK    8  A    between atoms: C_9  and  C_10
REMARK                            x       y       z     vdW  Elec       q    Type
REMARK                         _______ _______ _______ _____ _____    ______ ____
ROOT
ATOM      1  N   UNL     1       3.516   4.199  18.849  0.00  0.00    +0.000 N 
ATOM      2  C   UNL     1       2.447   3.955  17.791  0.00  0.00    +0.000 C 
ATOM      3  C   UNL     1       3.389   5.587  19.439  0.00  0.00    +0.000 C 
ENDROOT
BRANCH   1   4
ATOM      4  C   UNL     1       3.403   3.135  19.957  0.00  0.00    +0.000 C 
BRANCH   4   6
ATOM      5  C   UNL     1       1.294   2.809  21.312  0.00  0.00    +0.000 C 
ATOM      6  C   UNL     1       2.441   3.459  21.066  0.00  0.00    +0.000 C 
ENDBRANCH   4   6
ENDBRANCH   1   4
BRANCH   1   7
ATOM      7  C   UNL     1       4.919   4.009  18.198  0.00  0.00    +0.000 C 
BRANCH   7   8
ATOM      8  C   UNL     1       4.918   4.247  16.679  0.00  0.00    +0.000 C 
BRANCH   8   9
ATOM      9  C   UNL     1       5.782   5.445  16.299  0.00  0.00    +0.000 C 
BRANCH   9  10
ATOM     10  C   UNL     1       7.163   5.004  15.809  0.00  0.00    +0.000 C 
ATOM     11  O   UNL     1       7.894   4.475  16.695  0.00  0.00    +0.000 OA
ATOM     12  O   UNL     1       7.422   5.321  14.622  0.00  0.00    +0.000 OA
ENDBRANCH   9  10
ENDBRANCH   8   9
ENDBRANCH   7   8
ENDBRANCH   1   7
TORSDOF 6
ENDMDL
MODEL 7
REMARK VINA RESULT:      -4.8      1.550      2.264
REMARK  Name = 
REMARK  8 active torsions:
REMARK  status: ('A' for Active; 'I' for Inactive)
REMARK    1  A    between atoms: C_2  and  C_3
REMARK    2  A    between atoms: C_3  and  N_4
REMARK    3  A    between atoms: N_4  and  C_5
REMARK    4  A    between atoms: N_4  and  C_6
REMARK    5  A    between atoms: N_4  and  C_7
REMARK    6  A    between atoms: C_7  and  C_8
REMARK    7  A    between atoms: C_8  and  C_9
REMARK    8  A    between atoms: C_9  and  C_10
REMARK                            x       y       z     vdW  Elec       q    Type
REMARK                         _______ _______ _______ _____ _____    ______ ____
ROOT
ATOM      1  N   UNL     1       3.181   4.010  18.490  0.00  0.00    +0.000 N 
ATOM      2  C   UNL     1       3.163   4.138  20.009  0.00  0.00    +0.000 C 
ATOM      3  C   UNL     1       2.588   2.690  18.049  0.00  0.00    +0.000 C 
ENDROOT
BRANCH   1   4
ATOM      4  C   UNL     1       2.405   5.183  17.861  0.00  0.00    +0.000 C 
BRANCH   4   6
ATOM      5  C   UNL     1       2.812   7.676  17.972  0.00  0.00    +0.000 C 
ATOM      6  C   UNL     1       2.549   6.502  18.567  0.00  0.00    +0.000 C 
ENDBRANCH   4   6
ENDBRANCH   1   4
BRANCH   1   7
ATOM      7  C   UNL     1       4.653   4.140  17.994  0.00  0.00    +0.000 C 
BRANCH   7   8
ATOM      8  C   UNL     1       4.760   4.468  16.496  0.00  0.00    +0.000 C 
BRANCH   8   9
ATOM      9  C   UNL     1       6.067   3.953  15.902  0.00  0.00    +0.000 C 
BRANCH   9  10
ATOM     10  C   UNL     1       7.259   4.795  16.361  0.00  0.00    +0.000 C 
ATOM     11  O   UNL     1       7.337   5.938  15.825  0.00  0.00    +0.000 OA
ATOM     12  O   UNL     1       8.055   4.199  17.127  0.00  0.00    +0.000 OA
ENDBRANCH   9  10
ENDBRANCH   8   9
ENDBRANCH   7   8
ENDBRANCH   1   7
TORSDOF 6
ENDMDL
MODEL 8
REMARK VINA RESULT:      -4.8      1.205      1.846
REMARK  Name = 
REMARK  8 active torsions:
REMARK  status: ('A' for Active; 'I' for Inactive)
REMARK    1  A    between atoms: C_2  and  C_3
REMARK    2  A    between atoms: C_3  and  N_4
REMARK    3  A    between atoms: N_4  and  C_5
REMARK    4  A    between atoms: N_4  and  C_6
REMARK    5  A    between atoms: N_4  and  C_7
REMARK    6  A    between atoms: C_7  and  C_8
REMARK    7  A    between atoms: C_8  and  C_9
REMARK    8  A    between atoms: C_9  and  C_10
REMARK                            x       y       z     vdW  Elec       q    Type
REMARK                         _______ _______ _______ _____ _____    ______ ____
ROOT
ATOM      1  N   UNL     1       3.257   3.336  18.373  0.00  0.00    +0.000 N 
ATOM      2  C   UNL     1       3.281   1.814  18.294  0.00  0.00    +0.000 C 
ATOM      3  C   UNL     1       2.095   3.902  17.586  0.00  0.00    +0.000 C 
ENDROOT
BRANCH   1   4
ATOM      4  C   UNL     1       3.173   3.779  19.846  0.00  0.00    +0.000 C 
BRANCH   4   6
ATOM      5  C   UNL     1       1.470   2.831  21.456  0.00  0.00    +0.000 C 
ATOM      6  C   UNL     1       1.810   3.677  20.471  0.00  0.00    +0.000 C 
ENDBRANCH   4   6
ENDBRANCH   1   4
BRANCH   1   7
ATOM      7  C   UNL     1       4.608   3.887  17.824  0.00  0.00    +0.000 C 
BRANCH   7   8
ATOM      8  C   UNL     1       4.450   5.195  17.031  0.00  0.00    +0.000 C 
BRANCH   8   9
ATOM      9  C   UNL     1       5.419   5.257  15.855  0.00  0.00    +0.000 C 
BRANCH   9  10
ATOM     10  C   UNL     1       6.834   5.614  16.315  0.00  0.00    +0.000 C 
ATOM     11  O   UNL     1       6.977   6.808  16.708  0.00  0.00    +0.000 OA
ATOM     12  O   UNL     1       7.684   4.707  16.143  0.00  0.00    +0.000 OA
ENDBRANCH   9  10
ENDBRANCH   8   9
ENDBRANCH   7   8
ENDBRANCH   1   7
TORSDOF 6
ENDMDL
MODEL 9
REMARK VINA RESULT:      -4.8      1.131      1.973
REMARK  Name = 
REMARK  8 active torsions:
REMARK  status: ('A' for Active; 'I' for Inactive)
REMARK    1  A    between atoms: C_2  and  C_3
REMARK    2  A    between atoms: C_3  and  N_4
REMARK    3  A    between atoms: N_4  and  C_5
REMARK    4  A    between atoms: N_4  and  C_6
REMARK    5  A    between atoms: N_4  and  C_7
REMARK    6  A    between atoms: C_7  and  C_8
REMARK    7  A    between atoms: C_8  and  C_9
REMARK    8  A    between atoms: C_9  and  C_10
REMARK                            x       y       z     vdW  Elec       q    Type
REMARK                         _______ _______ _______ _____ _____    ______ ____
ROOT
ATOM      1  N   UNL     1       2.827   3.755  18.459  0.00  0.00    +0.000 N 
ATOM      2  C   UNL     1       1.822   2.669  18.093  0.00  0.00    +0.000 C 
ATOM      3  C   UNL     1       2.438   5.083  17.849  0.00  0.00    +0.000 C 
ENDROOT
BRANCH   1   4
ATOM      4  C   UNL     1       2.924   3.878  19.992  0.00  0.00    +0.000 C 
BRANCH   4   6
ATOM      5  C   UNL     1       1.586   2.671  21.766  0.00  0.00    +0.000 C 
ATOM      6  C   UNL     1       1.668   3.538  20.745  0.00  0.00    +0.000 C 
ENDBRANCH   4   6
ENDBRANCH   1   4
BRANCH   1   7
ATOM      7  C   UNL     1       4.239   3.319  17.963  0.00  0.00    +0.000 C 
BRANCH   7   8
ATOM      8  C   UNL     1       5.023   4.458  17.291  0.00  0.00    +0.000 C 
BRANCH   8   9
ATOM      9  C   UNL     1       5.634   4.012  15.967  0.00  0.00    +0.000 C 
BRANCH   9  10
ATOM     10  C   UNL     1       6.976   4.701  15.712  0.00  0.00    +0.000 C 
ATOM     11  O   UNL     1       7.040   5.351  14.629  0.00  0.00    +0.000 OA
ATOM     12  O   UNL     1       7.865   4.444  16.561  0.00  0.00    +0.000 OA
ENDBRANCH   9  10
ENDBRANCH   8   9
ENDBRANCH   7   8
ENDBRANCH   1   7
TORSDOF 6
ENDMDL
