MODEL 1
REMARK VINA RESULT:      -7.6      0.000      0.000
REMARK  Name = 
REMARK  5 active torsions:
REMARK  status: ('A' for Active; 'I' for Inactive)
REMARK    1  A    between atoms: C_1  and  C_2
REMARK    2  A    between atoms: C_5  and  C_6
REMARK    3  A    between atoms: C_6  and  N_7
REMARK    4  A    between atoms: N_10  and  S_11
REMARK    5  A    between atoms: S_11  and  C_14
REMARK                            x       y       z     vdW  Elec       q    Type
REMARK                         _______ _______ _______ _____ _____    ______ ____
ROOT
ATOM      1  N   UNL     1       1.787   6.366  20.136  0.00  0.00    +0.000 NA
ATOM      2  C   UNL     1       1.751   4.972  20.614  0.00  0.00    +0.000 C 
ATOM      3  C   UNL     1       1.337   4.074  19.454  0.00  0.00    +0.000 C 
ATOM      4  N   UNL     1       2.315   4.132  18.327  0.00  0.00    +0.000 NA
ATOM      5  C   UNL     1       2.506   5.557  17.891  0.00  0.00    +0.000 C 
ATOM      6  C   UNL     1       2.808   6.506  19.084  0.00  0.00    +0.000 C 
ENDROOT
BRANCH   4   7
ATOM      7  S   UNL     1       3.759   3.241  18.482  0.00  0.00    +0.000 S 
ATOM      8  O   UNL     1       4.255   3.382  19.831  0.00  0.00    +0.000 OA
ATOM      9  O   UNL     1       3.504   1.920  17.944  0.00  0.00    +0.000 OA
BRANCH   7  10
ATOM     10  C   UNL     1       4.887   4.050  17.378  0.00  0.00    +0.000 A 
ATOM     11  C   UNL     1       4.745   3.776  16.003  0.00  0.00    +0.000 A 
ATOM     12  C   UNL     1       5.509   4.463  15.064  0.00  0.00    +0.000 A 
ATOM     13  C   UNL     1       6.416   5.426  15.494  0.00  0.00    +0.000 A 
ATOM     14  C   UNL     1       6.570   5.696  16.859  0.00  0.00    +0.000 A 
ATOM     15 CL   UNL     1       7.700   6.941  17.280  0.00  0.00    +0.000 Cl
ATOM     16  C   UNL     1       5.811   5.004  17.823  0.00  0.00    +0.000 A 
ATOM     17 CL   UNL     1       6.007   5.389  19.501  0.00  0.00    +0.000 Cl
ENDBRANCH   7  10
ENDBRANCH   4   7
BRANCH   1  18
ATOM     18  C   UNL     1       1.922   7.319  21.238  0.00  0.00    +0.000 C 
BRANCH  18  23
ATOM     19  C   UNL     1      -1.410  12.058  20.538  0.00  0.00    +0.000 C 
ATOM     20  C   UNL     1      -0.566  10.828  20.697  0.00  0.00    +0.000 A 
ATOM     21  C   UNL     1       0.144  10.292  19.615  0.00  0.00    +0.000 A 
ATOM     22  C   UNL     1       0.920   9.140  19.773  0.00  0.00    +0.000 A 
ATOM     23  C   UNL     1       0.998   8.505  21.018  0.00  0.00    +0.000 A 
ATOM     24  C   UNL     1       0.277   9.042  22.097  0.00  0.00    +0.000 A 
ATOM     25  C   UNL     1      -0.490  10.196  21.941  0.00  0.00    +0.000 A 
ENDBRANCH  18  23
ENDBRANCH   1  18
TORSDOF 4
ENDMDL
MODEL 2
REMARK VINA RESULT:      -7.6      4.834      9.086
REMARK  Name = 
REMARK  5 active torsions:
REMARK  status: ('A' for Active; 'I' for Inactive)
REMARK    1  A    between atoms: C_1  and  C_2
REMARK    2  A    between atoms: C_5  and  C_6
REMARK    3  A    between atoms: C_6  and  N_7
REMARK    4  A    between atoms: N_10  and  S_11
REMARK    5  A    between atoms: S_11  and  C_14
REMARK                            x       y       z     vdW  Elec       q    Type
REMARK                         _______ _______ _______ _____ _____    ______ ____
ROOT
ATOM      1  N   UNL     1       1.798   8.236  18.570  0.00  0.00    +0.000 NA
ATOM      2  C   UNL     1       1.468   9.520  17.929  0.00  0.00    +0.000 C 
ATOM      3  C   UNL     1       0.059   9.923  18.349  0.00  0.00    +0.000 C 
ATOM      4  N   UNL     1      -0.047  10.123  19.825  0.00  0.00    +0.000 NA
ATOM      5  C   UNL     1       0.420   8.888  20.542  0.00  0.00    +0.000 C 
ATOM      6  C   UNL     1       1.803   8.397  20.034  0.00  0.00    +0.000 C 
ENDROOT
BRANCH   4   7
ATOM      7  S   UNL     1       0.547  11.584  20.472  0.00  0.00    +0.000 S 
ATOM      8  O   UNL     1       1.429  11.284  21.576  0.00  0.00    +0.000 OA
ATOM      9  O   UNL     1       1.029  12.377  19.361  0.00  0.00    +0.000 OA
BRANCH   7  10
ATOM     10  C   UNL     1      -0.897  12.393  21.109  0.00  0.00    +0.000 A 
ATOM     11  C   UNL     1      -1.433  13.446  20.340  0.00  0.00    +0.000 A 
ATOM     12  C   UNL     1      -2.632  14.050  20.708  0.00  0.00    +0.000 A 
ATOM     13  C   UNL     1      -3.302  13.603  21.842  0.00  0.00    +0.000 A 
ATOM     14  C   UNL     1      -2.770  12.566  22.617  0.00  0.00    +0.000 A 
ATOM     15 CL   UNL     1      -3.705  12.065  23.987  0.00  0.00    +0.000 Cl
ATOM     16  C   UNL     1      -1.554  11.950  22.264  0.00  0.00    +0.000 A 
ATOM     17 CL   UNL     1      -0.944  10.647  23.230  0.00  0.00    +0.000 Cl
ENDBRANCH   7  10
ENDBRANCH   4   7
BRANCH   1  18
ATOM     18  C   UNL     1       3.021   7.649  18.023  0.00  0.00    +0.000 C 
BRANCH  18  23
ATOM     19  C   UNL     1       3.086   1.841  18.578  0.00  0.00    +0.000 C 
ATOM     20  C   UNL     1       3.076   3.337  18.462  0.00  0.00    +0.000 A 
ATOM     21  C   UNL     1       4.178   4.101  18.866  0.00  0.00    +0.000 A 
ATOM     22  C   UNL     1       4.154   5.495  18.761  0.00  0.00    +0.000 A 
ATOM     23  C   UNL     1       3.026   6.146  18.249  0.00  0.00    +0.000 A 
ATOM     24  C   UNL     1       1.921   5.375  17.853  0.00  0.00    +0.000 A 
ATOM     25  C   UNL     1       1.948   3.985  17.951  0.00  0.00    +0.000 A 
ENDBRANCH  18  23
ENDBRANCH   1  18
TORSDOF 4
ENDMDL
MODEL 3
REMARK VINA RESULT:      -7.6      5.318      9.353
REMARK  Name = 
REMARK  5 active torsions:
REMARK  status: ('A' for Active; 'I' for Inactive)
REMARK    1  A    between atoms: C_1  and  C_2
REMARK    2  A    between atoms: C_5  and  C_6
REMARK    3  A    between atoms: C_6  and  N_7
REMARK    4  A    between atoms: N_10  and  S_11
REMARK    5  A    between atoms: S_11  and  C_14
REMARK                            x       y       z     vdW  Elec       q    Type
REMARK                         _______ _______ _______ _____ _____    ______ ____
ROOT
ATOM      1  N   UNL     1       1.347   8.299  19.655  0.00  0.00    +0.000 NA
ATOM      2  C   UNL     1       1.416   9.426  18.708  0.00  0.00    +0.000 C 
ATOM      3  C   UNL     1       0.033  10.059  18.608  0.00  0.00    +0.000 C 
ATOM      4  N   UNL     1      -0.425  10.608  19.918  0.00  0.00    +0.000 NA
ATOM      5  C   UNL     1      -0.376   9.534  20.966  0.00  0.00    +0.000 C 
ATOM      6  C   UNL     1       0.991   8.796  20.995  0.00  0.00    +0.000 C 
ENDROOT
BRANCH   4   7
ATOM      7  S   UNL     1       0.210  12.110  20.415  0.00  0.00    +0.000 S 
ATOM      8  O   UNL     1       1.396  11.880  21.206  0.00  0.00    +0.000 OA
ATOM      9  O   UNL     1       0.282  12.953  19.239  0.00  0.00    +0.000 OA
BRANCH   7  10
ATOM     10  C   UNL     1      -1.048  12.784  21.468  0.00  0.00    +0.000 A 
ATOM     11  C   UNL     1      -0.631  13.318  22.704  0.00  0.00    +0.000 A 
ATOM     12  C   UNL     1      -1.538  13.974  23.531  0.00  0.00    +0.000 A 
ATOM     13  C   UNL     1      -2.863  14.101  23.128  0.00  0.00    +0.000 A 
ATOM     14  C   UNL     1      -3.287  13.564  21.907  0.00  0.00    +0.000 A 
ATOM     15 CL   UNL     1      -4.950  13.812  21.486  0.00  0.00    +0.000 Cl
ATOM     16  C   UNL     1      -2.385  12.890  21.061  0.00  0.00    +0.000 A 
ATOM     17 CL   UNL     1      -2.940  12.266  19.543  0.00  0.00    +0.000 Cl
ENDBRANCH   7  10
ENDBRANCH   4   7
BRANCH   1  18
ATOM     18  C   UNL     1       2.557   7.478  19.618  0.00  0.00    +0.000 C 
BRANCH  18  23
ATOM     19  C   UNL     1       0.845   1.960  18.799  0.00  0.00    +0.000 C 
ATOM     20  C   UNL     1       1.308   3.373  18.996  0.00  0.00    +0.000 A 
ATOM     21  C   UNL     1       1.737   4.151  17.914  0.00  0.00    +0.000 A 
ATOM     22  C   UNL     1       2.174   5.465  18.111  0.00  0.00    +0.000 A 
ATOM     23  C   UNL     1       2.191   6.020  19.396  0.00  0.00    +0.000 A 
ATOM     24  C   UNL     1       1.767   5.231  20.479  0.00  0.00    +0.000 A 
ATOM     25  C   UNL     1       1.323   3.924  20.280  0.00  0.00    +0.000 A 
ENDBRANCH  18  23
ENDBRANCH   1  18
TORSDOF 4
ENDMDL
MODEL 4
REMARK VINA RESULT:      -7.5      4.928      9.130
REMARK  Name = 
REMARK  5 active torsions:
REMARK  status: ('A' for Active; 'I' for Inactive)
REMARK    1  A    between atoms: C_1  and  C_2
REMARK    2  A    between atoms: C_5  and  C_6
REMARK    3  A    between atoms: C_6  and  N_7
REMARK    4  A    between atoms: N_10  and  S_11
REMARK    5  A    between atoms: S_11  and  C_14
REMARK                            x       y       z     vdW  Elec       q    Type
REMARK                         _______ _______ _______ _____ _____    ______ ____
ROOT
ATOM      1  N   UNL     1       2.033   8.111  18.567  0.00  0.00    +0.000 NA
ATOM      2  C   UNL     1       1.697   9.428  17.997  0.00  0.00    +0.000 C 
ATOM      3  C   UNL     1       0.236   9.732  18.308  0.00  0.00    +0.000 C 
ATOM      4  N   UNL     1      -0.016   9.807  19.778  0.00  0.00    +0.000 NA
ATOM      5  C   UNL     1       0.446   8.540  20.440  0.00  0.00    +0.000 C 
ATOM      6  C   UNL     1       1.894   8.153  20.033  0.00  0.00    +0.000 C 
ENDROOT
BRANCH   4   7
ATOM      7  S   UNL     1       0.439  11.235  20.590  0.00  0.00    +0.000 S 
ATOM      8  O   UNL     1       1.365  10.900  21.645  0.00  0.00    +0.000 OA
ATOM      9  O   UNL     1       0.819  12.198  19.577  0.00  0.00    +0.000 OA
BRANCH   7  10
ATOM     10  C   UNL     1      -1.069  11.813  21.325  0.00  0.00    +0.000 A 
ATOM     11  C   UNL     1      -1.104  11.900  22.731  0.00  0.00    +0.000 A 
ATOM     12  C   UNL     1      -2.203  12.458  23.376  0.00  0.00    +0.000 A 
ATOM     13  C   UNL     1      -3.270  12.933  22.621  0.00  0.00    +0.000 A 
ATOM     14  C   UNL     1      -3.247  12.841  21.225  0.00  0.00    +0.000 A 
ATOM     15 CL   UNL     1      -4.612  13.497  20.382  0.00  0.00    +0.000 Cl
ATOM     16  C   UNL     1      -2.146  12.271  20.556  0.00  0.00    +0.000 A 
ATOM     17 CL   UNL     1      -2.141  12.203  18.825  0.00  0.00    +0.000 Cl
ENDBRANCH   7  10
ENDBRANCH   4   7
BRANCH   1  18
ATOM     18  C   UNL     1       3.331   7.626  18.097  0.00  0.00    +0.000 C 
BRANCH  18  23
ATOM     19  C   UNL     1       3.343   1.791  18.179  0.00  0.00    +0.000 C 
ATOM     20  C   UNL     1       3.327   3.291  18.133  0.00  0.00    +0.000 A 
ATOM     21  C   UNL     1       2.142   3.995  17.889  0.00  0.00    +0.000 A 
ATOM     22  C   UNL     1       2.141   5.392  17.840  0.00  0.00    +0.000 A 
ATOM     23  C   UNL     1       3.329   6.107  18.036  0.00  0.00    +0.000 A 
ATOM     24  C   UNL     1       4.516   5.395  18.272  0.00  0.00    +0.000 A 
ATOM     25  C   UNL     1       4.514   4.002  18.329  0.00  0.00    +0.000 A 
ENDBRANCH  18  23
ENDBRANCH   1  18
TORSDOF 4
ENDMDL
MODEL 5
REMARK VINA RESULT:      -7.5      5.119      9.203
REMARK  Name = 
REMARK  5 active torsions:
REMARK  status: ('A' for Active; 'I' for Inactive)
REMARK    1  A    between atoms: C_1  and  C_2
REMARK    2  A    between atoms: C_5  and  C_6
REMARK    3  A    between atoms: C_6  and  N_7
REMARK    4  A    between atoms: N_10  and  S_11
REMARK    5  A    between atoms: S_11  and  C_14
REMARK                            x       y       z     vdW  Elec       q    Type
REMARK                         _______ _______ _______ _____ _____    ______ ____
ROOT
ATOM      1  N   UNL     1       1.437   8.313  19.446  0.00  0.00    +0.000 NA
ATOM      2  C   UNL     1       1.507   9.508  18.588  0.00  0.00    +0.000 C 
ATOM      3  C   UNL     1       0.126  10.151  18.541  0.00  0.00    +0.000 C 
ATOM      4  N   UNL     1      -0.327  10.600  19.891  0.00  0.00    +0.000 NA
ATOM      5  C   UNL     1      -0.278   9.448  20.854  0.00  0.00    +0.000 C 
ATOM      6  C   UNL     1       1.087   8.707  20.822  0.00  0.00    +0.000 C 
ENDROOT
BRANCH   4   7
ATOM      7  S   UNL     1       0.314  12.057  20.500  0.00  0.00    +0.000 S 
ATOM      8  O   UNL     1       1.251  11.753  21.556  0.00  0.00    +0.000 OA
ATOM      9  O   UNL     1       0.743  12.842  19.361  0.00  0.00    +0.000 OA
BRANCH   7  10
ATOM     10  C   UNL     1      -1.086  12.883  21.209  0.00  0.00    +0.000 A 
ATOM     11  C   UNL     1      -1.597  13.994  20.509  0.00  0.00    +0.000 A 
ATOM     12  C   UNL     1      -2.765  14.620  20.934  0.00  0.00    +0.000 A 
ATOM     13  C   UNL     1      -3.430  14.138  22.056  0.00  0.00    +0.000 A 
ATOM     14  C   UNL     1      -2.923  13.041  22.763  0.00  0.00    +0.000 A 
ATOM     15 CL   UNL     1      -3.850  12.500  24.123  0.00  0.00    +0.000 Cl
ATOM     16  C   UNL     1      -1.737  12.401  22.352  0.00  0.00    +0.000 A 
ATOM     17 CL   UNL     1      -1.159  11.026  23.233  0.00  0.00    +0.000 Cl
ENDBRANCH   7  10
ENDBRANCH   4   7
BRANCH   1  18
ATOM     18  C   UNL     1       2.644   7.493  19.343  0.00  0.00    +0.000 C 
BRANCH  18  23
ATOM     19  C   UNL     1       0.899   1.947  18.852  0.00  0.00    +0.000 C 
ATOM     20  C   UNL     1       1.370   3.367  18.964  0.00  0.00    +0.000 A 
ATOM     21  C   UNL     1       1.760   4.091  17.831  0.00  0.00    +0.000 A 
ATOM     22  C   UNL     1       2.206   5.411  17.949  0.00  0.00    +0.000 A 
ATOM     23  C   UNL     1       2.269   6.027  19.204  0.00  0.00    +0.000 A 
ATOM     24  C   UNL     1       1.885   5.292  20.338  0.00  0.00    +0.000 A 
ATOM     25  C   UNL     1       1.432   3.979  20.219  0.00  0.00    +0.000 A 
ENDBRANCH  18  23
ENDBRANCH   1  18
TORSDOF 4
ENDMDL
MODEL 6
REMARK VINA RESULT:      -7.4      5.444      9.480
REMARK  Name = 
REMARK  5 active torsions:
REMARK  status: ('A' for Active; 'I' for Inactive)
REMARK    1  A    between atoms: C_1  and  C_2
REMARK    2  A    between atoms: C_5  and  C_6
REMARK    3  A    between atoms: C_6  and  N_7
REMARK    4  A    between atoms: N_10  and  S_11
REMARK    5  A    between atoms: S_11  and  C_14
REMARK                            x       y       z     vdW  Elec       q    Type
REMARK                         _______ _______ _______ _____ _____    ______ ____
ROOT
ATOM      1  N   UNL     1       1.166   8.600  19.712  0.00  0.00    +0.000 NA
ATOM      2  C   UNL     1       0.842   9.732  18.826  0.00  0.00    +0.000 C 
ATOM      3  C   UNL     1      -0.553  10.236  19.175  0.00  0.00    +0.000 C 
ATOM      4  N   UNL     1      -0.631  10.736  20.580  0.00  0.00    +0.000 NA
ATOM      5  C   UNL     1      -0.168   9.666  21.528  0.00  0.00    +0.000 C 
ATOM      6  C   UNL     1       1.199   9.057  21.112  0.00  0.00    +0.000 C 
ENDROOT
BRANCH   4   7
ATOM      7  S   UNL     1      -0.005  12.287  20.906  0.00  0.00    +0.000 S 
ATOM      8  O   UNL     1       1.297  12.150  21.515  0.00  0.00    +0.000 OA
ATOM      9  O   UNL     1      -0.154  13.070  19.696  0.00  0.00    +0.000 OA
BRANCH   7  10
ATOM     10  C   UNL     1      -1.122  12.960  22.108  0.00  0.00    +0.000 A 
ATOM     11  C   UNL     1      -2.247  12.181  22.444  0.00  0.00    +0.000 A 
ATOM     12  C   UNL     1      -3.105  12.582  23.464  0.00  0.00    +0.000 A 
ATOM     13  C   UNL     1      -2.841  13.760  24.155  0.00  0.00    +0.000 A 
ATOM     14  C   UNL     1      -1.731  14.544  23.820  0.00  0.00    +0.000 A 
ATOM     15 CL   UNL     1      -1.477  15.972  24.769  0.00  0.00    +0.000 Cl
ATOM     16  C   UNL     1      -0.859  14.158  22.784  0.00  0.00    +0.000 A 
ATOM     17 CL   UNL     1       0.523  15.139  22.420  0.00  0.00    +0.000 Cl
ENDBRANCH   7  10
ENDBRANCH   4   7
BRANCH   1  18
ATOM     18  C   UNL     1       2.371   7.893  19.280  0.00  0.00    +0.000 C 
BRANCH  18  23
ATOM     19  C   UNL     1       0.992   2.236  18.895  0.00  0.00    +0.000 C 
ATOM     20  C   UNL     1       1.371   3.685  18.982  0.00  0.00    +0.000 A 
ATOM     21  C   UNL     1       1.816   4.386  17.854  0.00  0.00    +0.000 A 
ATOM     22  C   UNL     1       2.174   5.734  17.950  0.00  0.00    +0.000 A 
ATOM     23  C   UNL     1       2.093   6.402  19.177  0.00  0.00    +0.000 A 
ATOM     24  C   UNL     1       1.654   5.692  20.306  0.00  0.00    +0.000 A 
ATOM     25  C   UNL     1       1.289   4.350  20.209  0.00  0.00    +0.000 A 
ENDBRANCH  18  23
ENDBRANCH   1  18
TORSDOF 4
ENDMDL
MODEL 7
REMARK VINA RESULT:      -7.4      5.243      9.333
REMARK  Name = 
REMARK  5 active torsions:
REMARK  status: ('A' for Active; 'I' for Inactive)
REMARK    1  A    between atoms: C_1  and  C_2
REMARK    2  A    between atoms: C_5  and  C_6
REMARK    3  A    between atoms: C_6  and  N_7
REMARK    4  A    between atoms: N_10  and  S_11
REMARK    5  A    between atoms: S_11  and  C_14
REMARK                            x       y       z     vdW  Elec       q    Type
REMARK                         _______ _______ _______ _____ _____    ______ ____
ROOT
ATOM      1  N   UNL     1       1.348   8.314  19.653  0.00  0.00    +0.000 NA
ATOM      2  C   UNL     1       1.296   9.467  18.738  0.00  0.00    +0.000 C 
ATOM      3  C   UNL     1      -0.074  10.123  18.864  0.00  0.00    +0.000 C 
ATOM      4  N   UNL     1      -0.321  10.639  20.244  0.00  0.00    +0.000 NA
ATOM      5  C   UNL     1      -0.136   9.532  21.242  0.00  0.00    +0.000 C 
ATOM      6  C   UNL     1       1.206   8.775  21.045  0.00  0.00    +0.000 C 
ENDROOT
BRANCH   4   7
ATOM      7  S   UNL     1       0.410  12.116  20.681  0.00  0.00    +0.000 S 
ATOM      8  O   UNL     1       1.640  11.841  21.384  0.00  0.00    +0.000 OA
ATOM      9  O   UNL     1       0.428  12.949  19.497  0.00  0.00    +0.000 OA
BRANCH   7  10
ATOM     10  C   UNL     1      -0.739  12.845  21.819  0.00  0.00    +0.000 A 
ATOM     11  C   UNL     1      -1.901  12.106  22.119  0.00  0.00    +0.000 A 
ATOM     12  C   UNL     1      -2.790  12.553  23.093  0.00  0.00    +0.000 A 
ATOM     13  C   UNL     1      -2.521  13.737  23.771  0.00  0.00    +0.000 A 
ATOM     14  C   UNL     1      -1.375  14.482  23.471  0.00  0.00    +0.000 A 
ATOM     15 CL   UNL     1      -1.119  15.921  24.402  0.00  0.00    +0.000 Cl
ATOM     16  C   UNL     1      -0.469  14.049  22.483  0.00  0.00    +0.000 A 
ATOM     17 CL   UNL     1       0.955  14.982  22.162  0.00  0.00    +0.000 Cl
ENDBRANCH   7  10
ENDBRANCH   4   7
BRANCH   1  18
ATOM     18  C   UNL     1       2.523   7.476  19.412  0.00  0.00    +0.000 C 
BRANCH  18  23
ATOM     19  C   UNL     1       1.232   1.815  18.832  0.00  0.00    +0.000 C 
ATOM     20  C   UNL     1       1.540   3.274  18.995  0.00  0.00    +0.000 A 
ATOM     21  C   UNL     1       1.494   3.888  20.253  0.00  0.00    +0.000 A 
ATOM     22  C   UNL     1       1.775   5.251  20.391  0.00  0.00    +0.000 A 
ATOM     23  C   UNL     1       2.107   6.022  19.270  0.00  0.00    +0.000 A 
ATOM     24  C   UNL     1       2.143   5.402  18.010  0.00  0.00    +0.000 A 
ATOM     25  C   UNL     1       1.871   4.041  17.874  0.00  0.00    +0.000 A 
ENDBRANCH  18  23
ENDBRANCH   1  18
TORSDOF 4
ENDMDL
MODEL 8
REMARK VINA RESULT:      -7.4      5.285      9.197
REMARK  Name = 
REMARK  5 active torsions:
REMARK  status: ('A' for Active; 'I' for Inactive)
REMARK    1  A    between atoms: C_1  and  C_2
REMARK    2  A    between atoms: C_5  and  C_6
REMARK    3  A    between atoms: C_6  and  N_7
REMARK    4  A    between atoms: N_10  and  S_11
REMARK    5  A    between atoms: S_11  and  C_14
REMARK                            x       y       z     vdW  Elec       q    Type
REMARK                         _______ _______ _______ _____ _____    ______ ____
ROOT
ATOM      1  N   UNL     1       1.434   8.292  19.551  0.00  0.00    +0.000 NA
ATOM      2  C   UNL     1       1.508   9.335  18.513  0.00  0.00    +0.000 C 
ATOM      3  C   UNL     1       0.143  10.003  18.400  0.00  0.00    +0.000 C 
ATOM      4  N   UNL     1      -0.258  10.672  19.674  0.00  0.00    +0.000 NA
ATOM      5  C   UNL     1      -0.210   9.684  20.805  0.00  0.00    +0.000 C 
ATOM      6  C   UNL     1       1.134   8.907  20.855  0.00  0.00    +0.000 C 
ENDROOT
BRANCH   4   7
ATOM      7  S   UNL     1       0.437  12.187  20.028  0.00  0.00    +0.000 S 
ATOM      8  O   UNL     1       1.202  12.078  21.248  0.00  0.00    +0.000 OA
ATOM      9  O   UNL     1       1.077  12.656  18.817  0.00  0.00    +0.000 OA
BRANCH   7  10
ATOM     10  C   UNL     1      -0.957  13.242  20.329  0.00  0.00    +0.000 A 
ATOM     11  C   UNL     1      -2.232  12.642  20.304  0.00  0.00    +0.000 A 
ATOM     12  C   UNL     1      -3.364  13.375  20.649  0.00  0.00    +0.000 A 
ATOM     13  C   UNL     1      -3.227  14.708  21.023  0.00  0.00    +0.000 A 
ATOM     14  C   UNL     1      -1.965  15.314  21.040  0.00  0.00    +0.000 A 
ATOM     15 CL   UNL     1      -1.905  16.966  21.556  0.00  0.00    +0.000 Cl
ATOM     16  C   UNL     1      -0.810  14.589  20.685  0.00  0.00    +0.000 A 
ATOM     17 CL   UNL     1       0.738  15.364  20.749  0.00  0.00    +0.000 Cl
ENDBRANCH   7  10
ENDBRANCH   4   7
BRANCH   1  18
ATOM     18  C   UNL     1       2.616   7.431  19.547  0.00  0.00    +0.000 C 
BRANCH  18  23
ATOM     19  C   UNL     1       0.733   1.955  18.826  0.00  0.00    +0.000 C 
ATOM     20  C   UNL     1       1.241   3.356  18.999  0.00  0.00    +0.000 A 
ATOM     21  C   UNL     1       1.764   4.076  17.918  0.00  0.00    +0.000 A 
ATOM     22  C   UNL     1       2.243   5.378  18.094  0.00  0.00    +0.000 A 
ATOM     23  C   UNL     1       2.205   5.980  19.357  0.00  0.00    +0.000 A 
ATOM     24  C   UNL     1       1.687   5.251  20.439  0.00  0.00    +0.000 A 
ATOM     25  C   UNL     1       1.202   3.956  20.261  0.00  0.00    +0.000 A 
ENDBRANCH  18  23
ENDBRANCH   1  18
TORSDOF 4
ENDMDL
MODEL 9
REMARK VINA RESULT:      -7.2      1.266      1.700
REMARK  Name = 
REMARK  5 active torsions:
REMARK  status: ('A' for Active; 'I' for Inactive)
REMARK    1  A    between atoms: C_1  and  C_2
REMARK    2  A    between atoms: C_5  and  C_6
REMARK    3  A    between atoms: C_6  and  N_7
REMARK    4  A    between atoms: N_10  and  S_11
REMARK    5  A    between atoms: S_11  and  C_14
REMARK                            x       y       z     vdW  Elec       q    Type
REMARK                         _______ _______ _______ _____ _____    ______ ____
ROOT
ATOM      1  N   UNL     1       1.773   6.666  20.158  0.00  0.00    +0.000 NA
ATOM      2  C   UNL     1       1.603   5.302  20.688  0.00  0.00    +0.000 C 
ATOM      3  C   UNL     1       1.305   4.364  19.525  0.00  0.00    +0.000 C 
ATOM      4  N   UNL     1       2.427   4.320  18.541  0.00  0.00    +0.000 NA
ATOM      5  C   UNL     1       2.747   5.711  18.072  0.00  0.00    +0.000 C 
ATOM      6  C   UNL     1       2.933   6.706  19.250  0.00  0.00    +0.000 C 
ENDROOT
BRANCH   4   7
ATOM      7  S   UNL     1       3.791   3.376  18.934  0.00  0.00    +0.000 S 
ATOM      8  O   UNL     1       3.884   3.259  20.370  0.00  0.00    +0.000 OA
ATOM      9  O   UNL     1       3.730   2.181  18.117  0.00  0.00    +0.000 OA
BRANCH   7  10
ATOM     10  C   UNL     1       5.164   4.338  18.356  0.00  0.00    +0.000 A 
ATOM     11  C   UNL     1       5.960   4.970  19.333  0.00  0.00    +0.000 A 
ATOM     12  C   UNL     1       7.123   5.642  18.969  0.00  0.00    +0.000 A 
ATOM     13  C   UNL     1       7.499   5.682  17.630  0.00  0.00    +0.000 A 
ATOM     14  C   UNL     1       6.708   5.065  16.653  0.00  0.00    +0.000 A 
ATOM     15 CL   UNL     1       7.289   5.145  15.023  0.00  0.00    +0.000 Cl
ATOM     16  C   UNL     1       5.523   4.390  17.003  0.00  0.00    +0.000 A 
ATOM     17 CL   UNL     1       4.588   3.611  15.769  0.00  0.00    +0.000 Cl
ENDBRANCH   7  10
ENDBRANCH   4   7
BRANCH   1  18
ATOM     18  C   UNL     1       1.806   7.668  21.223  0.00  0.00    +0.000 C 
BRANCH  18  23
ATOM     19  C   UNL     1      -1.550  12.296  20.055  0.00  0.00    +0.000 C 
ATOM     20  C   UNL     1      -0.699  11.093  20.335  0.00  0.00    +0.000 A 
ATOM     21  C   UNL     1       0.058  10.491  19.322  0.00  0.00    +0.000 A 
ATOM     22  C   UNL     1       0.840   9.364  19.592  0.00  0.00    +0.000 A 
ATOM     23  C   UNL     1       0.878   8.822  20.882  0.00  0.00    +0.000 A 
ATOM     24  C   UNL     1       0.110   9.425  21.892  0.00  0.00    +0.000 A 
ATOM     25  C   UNL     1      -0.664  10.554  21.624  0.00  0.00    +0.000 A 
ENDBRANCH  18  23
ENDBRANCH   1  18
TORSDOF 4
ENDMDL
