MODEL 1
REMARK VINA RESULT:      -8.1      0.000      0.000
REMARK  Name = 
REMARK  7 active torsions:
REMARK  status: ('A' for Active; 'I' for Inactive)
REMARK    1  A    between atoms: C_1  and  C_2
REMARK    2  A    between atoms: C_2  and  N_3
REMARK    3  A    between atoms: C_5  and  C_6
REMARK    4  A    between atoms: N_8  and  N_9
REMARK    5  A    between atoms: C_10  and  C_11
REMARK    6  A    between atoms: C_16  and  C_17
REMARK    7  A    between atoms: C_23  and  C_24
REMARK                            x       y       z     vdW  Elec       q    Type
REMARK                         _______ _______ _______ _____ _____    ______ ____
ROOT
ATOM      1  N   UNL     1      -0.518  11.085  19.134  0.00  0.00    +0.000 N 
ATOM      2  C   UNL     1       0.361  10.260  18.451  0.00  0.00    +0.000 A 
ATOM      3  C   UNL     1       1.083   9.260  18.980  0.00  0.00    +0.000 A 
ATOM      4  C   UNL     1       0.925   9.024  20.432  0.00  0.00    +0.000 A 
ATOM      5  O   UNL     1       1.522   8.115  21.000  0.00  0.00    +0.000 OA
ATOM      6  C   UNL     1       0.028   9.923  21.190  0.00  0.00    +0.000 A 
ATOM      7  C   UNL     1      -0.091   9.767  22.569  0.00  0.00    +0.000 A 
ATOM      8  C   UNL     1      -0.935  10.611  23.271  0.00  0.00    +0.000 A 
ATOM      9  C   UNL     1      -1.636  11.584  22.568  0.00  0.00    +0.000 A 
ATOM     10  C   UNL     1      -2.614  12.470  23.284  0.00  0.00    +0.000 C 
ATOM     11  N   UNL     1      -1.517  11.750  21.225  0.00  0.00    +0.000 NA
ATOM     12  C   UNL     1      -0.684  10.932  20.531  0.00  0.00    +0.000 A 
ENDROOT
BRANCH   3  13
ATOM     13  C   UNL     1       2.002   8.483  18.104  0.00  0.00    +0.000 C 
ATOM     14  O   UNL     1       2.527   9.014  17.127  0.00  0.00    +0.000 OA
ATOM     15  N   UNL     1       2.208   7.168  18.491  0.00  0.00    +0.000 N 
ATOM     16  H   UNL     1       1.750   6.786  19.321  0.00  0.00    +0.000 HD
BRANCH  15  17
ATOM     17  N   UNL     1       3.062   6.410  17.759  0.00  0.00    +0.000 NA
ATOM     18  C   UNL     1       4.334   6.583  17.910  0.00  0.00    +0.000 C 
BRANCH  18  19
ATOM     19  C   UNL     1       5.272   5.768  17.091  0.00  0.00    +0.000 A 
ATOM     20  C   UNL     1       4.758   4.605  16.487  0.00  0.00    +0.000 A 
ATOM     21  C   UNL     1       5.556   3.812  15.670  0.00  0.00    +0.000 A 
ATOM     22  C   UNL     1       6.882   4.164  15.455  0.00  0.00    +0.000 A 
ATOM     23  C   UNL     1       7.410   5.307  16.061  0.00  0.00    +0.000 A 
ATOM     24  C   UNL     1       6.616   6.128  16.886  0.00  0.00    +0.000 A 
ATOM     25  C   UNL     1       7.227   7.367  17.475  0.00  0.00    +0.000 C 
ENDBRANCH  18  19
ENDBRANCH  15  17
ENDBRANCH   3  13
BRANCH   1  27
ATOM     26  C   UNL     1      -0.163  13.414  18.407  0.00  0.00    +0.000 C 
ATOM     27  C   UNL     1      -1.152  12.259  18.520  0.00  0.00    +0.000 C 
ENDBRANCH   1  27
TORSDOF 4
ENDMDL
MODEL 2
REMARK VINA RESULT:      -8.1      4.426      7.678
REMARK  Name = 
REMARK  7 active torsions:
REMARK  status: ('A' for Active; 'I' for Inactive)
REMARK    1  A    between atoms: C_1  and  C_2
REMARK    2  A    between atoms: C_2  and  N_3
REMARK    3  A    between atoms: C_5  and  C_6
REMARK    4  A    between atoms: N_8  and  N_9
REMARK    5  A    between atoms: C_10  and  C_11
REMARK    6  A    between atoms: C_16  and  C_17
REMARK    7  A    between atoms: C_23  and  C_24
REMARK                            x       y       z     vdW  Elec       q    Type
REMARK                         _______ _______ _______ _____ _____    ______ ____
ROOT
ATOM      1  N   UNL     1       3.534   6.251  17.781  0.00  0.00    +0.000 N 
ATOM      2  C   UNL     1       4.724   6.900  17.494  0.00  0.00    +0.000 A 
ATOM      3  C   UNL     1       5.959   6.423  17.713  0.00  0.00    +0.000 A 
ATOM      4  C   UNL     1       6.053   5.078  18.322  0.00  0.00    +0.000 A 
ATOM      5  O   UNL     1       7.139   4.547  18.534  0.00  0.00    +0.000 OA
ATOM      6  C   UNL     1       4.796   4.387  18.680  0.00  0.00    +0.000 A 
ATOM      7  C   UNL     1       4.853   3.148  19.314  0.00  0.00    +0.000 A 
ATOM      8  C   UNL     1       3.671   2.506  19.643  0.00  0.00    +0.000 A 
ATOM      9  C   UNL     1       2.467   3.125  19.324  0.00  0.00    +0.000 A 
ATOM     10  C   UNL     1       1.168   2.427  19.600  0.00  0.00    +0.000 C 
ATOM     11  N   UNL     1       2.403   4.338  18.715  0.00  0.00    +0.000 NA
ATOM     12  C   UNL     1       3.559   4.978  18.398  0.00  0.00    +0.000 A 
ENDROOT
BRANCH   3  13
ATOM     13  C   UNL     1       7.137   7.266  17.366  0.00  0.00    +0.000 C 
ATOM     14  O   UNL     1       7.885   6.941  16.446  0.00  0.00    +0.000 OA
ATOM     15  N   UNL     1       7.288   8.407  18.139  0.00  0.00    +0.000 N 
ATOM     16  H   UNL     1       6.626   8.629  18.884  0.00  0.00    +0.000 HD
BRANCH  15  17
ATOM     17  N   UNL     1       8.319   9.241  17.856  0.00  0.00    +0.000 NA
ATOM     18  C   UNL     1       8.416  10.356  18.503  0.00  0.00    +0.000 C 
BRANCH  18  19
ATOM     19  C   UNL     1       9.534  11.281  18.178  0.00  0.00    +0.000 A 
ATOM     20  C   UNL     1      10.839  10.843  18.470  0.00  0.00    +0.000 A 
ATOM     21  C   UNL     1      11.944  11.628  18.158  0.00  0.00    +0.000 A 
ATOM     22  C   UNL     1      11.758  12.868  17.560  0.00  0.00    +0.000 A 
ATOM     23  C   UNL     1      10.466  13.322  17.279  0.00  0.00    +0.000 A 
ATOM     24  C   UNL     1       9.335  12.539  17.580  0.00  0.00    +0.000 A 
ATOM     25  C   UNL     1       7.976  13.062  17.216  0.00  0.00    +0.000 C 
ENDBRANCH  18  19
ENDBRANCH  15  17
ENDBRANCH   3  13
BRANCH   1  27
ATOM     26  C   UNL     1       2.162   8.166  18.509  0.00  0.00    +0.000 C 
ATOM     27  C   UNL     1       2.222   6.900  17.661  0.00  0.00    +0.000 C 
ENDBRANCH   1  27
TORSDOF 4
ENDMDL
MODEL 3
REMARK VINA RESULT:      -7.7      4.535      7.820
REMARK  Name = 
REMARK  7 active torsions:
REMARK  status: ('A' for Active; 'I' for Inactive)
REMARK    1  A    between atoms: C_1  and  C_2
REMARK    2  A    between atoms: C_2  and  N_3
REMARK    3  A    between atoms: C_5  and  C_6
REMARK    4  A    between atoms: N_8  and  N_9
REMARK    5  A    between atoms: C_10  and  C_11
REMARK    6  A    between atoms: C_16  and  C_17
REMARK    7  A    between atoms: C_23  and  C_24
REMARK                            x       y       z     vdW  Elec       q    Type
REMARK                         _______ _______ _______ _____ _____    ______ ____
ROOT
ATOM      1  N   UNL     1       3.585   6.537  17.906  0.00  0.00    +0.000 N 
ATOM      2  C   UNL     1       4.814   7.145  17.706  0.00  0.00    +0.000 A 
ATOM      3  C   UNL     1       5.992   6.519  17.555  0.00  0.00    +0.000 A 
ATOM      4  C   UNL     1       5.971   5.041  17.612  0.00  0.00    +0.000 A 
ATOM      5  O   UNL     1       6.993   4.381  17.457  0.00  0.00    +0.000 OA
ATOM      6  C   UNL     1       4.677   4.373  17.872  0.00  0.00    +0.000 A 
ATOM      7  C   UNL     1       4.636   2.986  17.996  0.00  0.00    +0.000 A 
ATOM      8  C   UNL     1       3.420   2.369  18.237  0.00  0.00    +0.000 A 
ATOM      9  C   UNL     1       2.282   3.160  18.342  0.00  0.00    +0.000 A 
ATOM     10  C   UNL     1       0.938   2.521  18.530  0.00  0.00    +0.000 C 
ATOM     11  N   UNL     1       2.315   4.514  18.233  0.00  0.00    +0.000 NA
ATOM     12  C   UNL     1       3.506   5.128  18.007  0.00  0.00    +0.000 A 
ENDROOT
BRANCH   3  13
ATOM     13  C   UNL     1       7.228   7.329  17.373  0.00  0.00    +0.000 C 
ATOM     14  O   UNL     1       7.992   7.096  16.438  0.00  0.00    +0.000 OA
ATOM     15  N   UNL     1       7.413   8.335  18.310  0.00  0.00    +0.000 N 
ATOM     16  H   UNL     1       6.736   8.485  19.059  0.00  0.00    +0.000 HD
BRANCH  15  17
ATOM     17  N   UNL     1       8.500   9.135  18.184  0.00  0.00    +0.000 NA
ATOM     18  C   UNL     1       8.676  10.087  19.041  0.00  0.00    +0.000 C 
BRANCH  18  19
ATOM     19  C   UNL     1       9.856  10.980  18.892  0.00  0.00    +0.000 A 
ATOM     20  C   UNL     1      10.418  11.097  17.607  0.00  0.00    +0.000 A 
ATOM     21  C   UNL     1      11.495  11.945  17.372  0.00  0.00    +0.000 A 
ATOM     22  C   UNL     1      12.033  12.678  18.421  0.00  0.00    +0.000 A 
ATOM     23  C   UNL     1      11.496  12.558  19.706  0.00  0.00    +0.000 A 
ATOM     24  C   UNL     1      10.400  11.712  19.963  0.00  0.00    +0.000 A 
ATOM     25  C   UNL     1       9.839  11.658  21.355  0.00  0.00    +0.000 C 
ENDBRANCH  18  19
ENDBRANCH  15  17
ENDBRANCH   3  13
BRANCH   1  27
ATOM     26  C   UNL     1       2.451   8.715  17.685  0.00  0.00    +0.000 C 
ATOM     27  C   UNL     1       2.364   7.290  18.222  0.00  0.00    +0.000 C 
ENDBRANCH   1  27
TORSDOF 4
ENDMDL
MODEL 4
REMARK VINA RESULT:      -7.7      2.290      9.389
REMARK  Name = 
REMARK  7 active torsions:
REMARK  status: ('A' for Active; 'I' for Inactive)
REMARK    1  A    between atoms: C_1  and  C_2
REMARK    2  A    between atoms: C_2  and  N_3
REMARK    3  A    between atoms: C_5  and  C_6
REMARK    4  A    between atoms: N_8  and  N_9
REMARK    5  A    between atoms: C_10  and  C_11
REMARK    6  A    between atoms: C_16  and  C_17
REMARK    7  A    between atoms: C_23  and  C_24
REMARK                            x       y       z     vdW  Elec       q    Type
REMARK                         _______ _______ _______ _____ _____    ______ ____
ROOT
ATOM      1  N   UNL     1       2.099   5.482  20.415  0.00  0.00    +0.000 N 
ATOM      2  C   UNL     1       1.324   6.436  21.053  0.00  0.00    +0.000 A 
ATOM      3  C   UNL     1       1.146   7.706  20.656  0.00  0.00    +0.000 A 
ATOM      4  C   UNL     1       1.848   8.121  19.423  0.00  0.00    +0.000 A 
ATOM      5  O   UNL     1       1.724   9.254  18.967  0.00  0.00    +0.000 OA
ATOM      6  C   UNL     1       2.718   7.132  18.751  0.00  0.00    +0.000 A 
ATOM      7  C   UNL     1       3.444   7.513  17.625  0.00  0.00    +0.000 A 
ATOM      8  C   UNL     1       4.255   6.580  17.001  0.00  0.00    +0.000 A 
ATOM      9  C   UNL     1       4.311   5.292  17.522  0.00  0.00    +0.000 A 
ATOM     10  C   UNL     1       5.121   4.236  16.831  0.00  0.00    +0.000 C 
ATOM     11  N   UNL     1       3.615   4.916  18.627  0.00  0.00    +0.000 NA
ATOM     12  C   UNL     1       2.825   5.829  19.251  0.00  0.00    +0.000 A 
ENDROOT
BRANCH   3  13
ATOM     13  C   UNL     1       0.295   8.612  21.477  0.00  0.00    +0.000 C 
ATOM     14  O   UNL     1      -0.750   8.200  21.977  0.00  0.00    +0.000 OA
ATOM     15  N   UNL     1       0.784   9.901  21.624  0.00  0.00    +0.000 N 
ATOM     16  H   UNL     1       1.666  10.181  21.192  0.00  0.00    +0.000 HD
BRANCH  15  17
ATOM     17  N   UNL     1       0.078  10.770  22.389  0.00  0.00    +0.000 NA
ATOM     18  C   UNL     1      -0.764  11.565  21.812  0.00  0.00    +0.000 C 
BRANCH  18  19
ATOM     19  C   UNL     1      -1.523  12.535  22.647  0.00  0.00    +0.000 A 
ATOM     20  C   UNL     1      -2.707  12.075  23.254  0.00  0.00    +0.000 A 
ATOM     21  C   UNL     1      -3.453  12.904  24.085  0.00  0.00    +0.000 A 
ATOM     22  C   UNL     1      -3.031  14.208  24.311  0.00  0.00    +0.000 A 
ATOM     23  C   UNL     1      -1.867  14.683  23.701  0.00  0.00    +0.000 A 
ATOM     24  C   UNL     1      -1.093  13.857  22.863  0.00  0.00    +0.000 A 
ATOM     25  C   UNL     1       0.171  14.409  22.271  0.00  0.00    +0.000 C 
ENDBRANCH  18  19
ENDBRANCH  15  17
ENDBRANCH   3  13
BRANCH   1  27
ATOM     26  C   UNL     1       1.195   3.217  20.779  0.00  0.00    +0.000 C 
ATOM     27  C   UNL     1       2.374   4.160  20.994  0.00  0.00    +0.000 C 
ENDBRANCH   1  27
TORSDOF 4
ENDMDL
MODEL 5
REMARK VINA RESULT:      -7.6      1.542      2.424
REMARK  Name = 
REMARK  7 active torsions:
REMARK  status: ('A' for Active; 'I' for Inactive)
REMARK    1  A    between atoms: C_1  and  C_2
REMARK    2  A    between atoms: C_2  and  N_3
REMARK    3  A    between atoms: C_5  and  C_6
REMARK    4  A    between atoms: N_8  and  N_9
REMARK    5  A    between atoms: C_10  and  C_11
REMARK    6  A    between atoms: C_16  and  C_17
REMARK    7  A    between atoms: C_23  and  C_24
REMARK                            x       y       z     vdW  Elec       q    Type
REMARK                         _______ _______ _______ _____ _____    ______ ____
ROOT
ATOM      1  N   UNL     1      -1.878  11.226  18.943  0.00  0.00    +0.000 N 
ATOM      2  C   UNL     1      -0.769  10.527  18.493  0.00  0.00    +0.000 A 
ATOM      3  C   UNL     1       0.341  10.263  19.201  0.00  0.00    +0.000 A 
ATOM      4  C   UNL     1       0.380  10.771  20.589  0.00  0.00    +0.000 A 
ATOM      5  O   UNL     1       1.340  10.555  21.322  0.00  0.00    +0.000 OA
ATOM      6  C   UNL     1      -0.773  11.560  21.074  0.00  0.00    +0.000 A 
ATOM      7  C   UNL     1      -0.737  12.107  22.355  0.00  0.00    +0.000 A 
ATOM      8  C   UNL     1      -1.822  12.843  22.802  0.00  0.00    +0.000 A 
ATOM      9  C   UNL     1      -2.911  13.004  21.953  0.00  0.00    +0.000 A 
ATOM     10  C   UNL     1      -4.133  13.733  22.429  0.00  0.00    +0.000 C 
ATOM     11  N   UNL     1      -2.949  12.483  20.699  0.00  0.00    +0.000 NA
ATOM     12  C   UNL     1      -1.885  11.768  20.249  0.00  0.00    +0.000 A 
ENDROOT
BRANCH   3  13
ATOM     13  C   UNL     1       1.455   9.516  18.554  0.00  0.00    +0.000 C 
ATOM     14  O   UNL     1       2.015   9.973  17.558  0.00  0.00    +0.000 OA
ATOM     15  N   UNL     1       1.792   8.319  19.167  0.00  0.00    +0.000 N 
ATOM     16  H   UNL     1       1.295   7.998  20.000  0.00  0.00    +0.000 HD
BRANCH  15  17
ATOM     17  N   UNL     1       2.822   7.603  18.653  0.00  0.00    +0.000 NA
ATOM     18  C   UNL     1       2.569   6.474  18.076  0.00  0.00    +0.000 C 
BRANCH  18  19
ATOM     19  C   UNL     1       3.700   5.676  17.530  0.00  0.00    +0.000 A 
ATOM     20  C   UNL     1       4.908   6.355  17.282  0.00  0.00    +0.000 A 
ATOM     21  C   UNL     1       6.027   5.676  16.814  0.00  0.00    +0.000 A 
ATOM     22  C   UNL     1       5.951   4.310  16.575  0.00  0.00    +0.000 A 
ATOM     23  C   UNL     1       4.753   3.626  16.801  0.00  0.00    +0.000 A 
ATOM     24  C   UNL     1       3.611   4.295  17.283  0.00  0.00    +0.000 A 
ATOM     25  C   UNL     1       2.366   3.498  17.548  0.00  0.00    +0.000 C 
ENDBRANCH  18  19
ENDBRANCH  15  17
ENDBRANCH   3  13
BRANCH   1  27
ATOM     26  C   UNL     1      -3.290  10.511  17.053  0.00  0.00    +0.000 C 
ATOM     27  C   UNL     1      -2.988  11.613  18.062  0.00  0.00    +0.000 C 
ENDBRANCH   1  27
TORSDOF 4
ENDMDL
MODEL 6
REMARK VINA RESULT:      -7.5      2.552      3.311
REMARK  Name = 
REMARK  7 active torsions:
REMARK  status: ('A' for Active; 'I' for Inactive)
REMARK    1  A    between atoms: C_1  and  C_2
REMARK    2  A    between atoms: C_2  and  N_3
REMARK    3  A    between atoms: C_5  and  C_6
REMARK    4  A    between atoms: N_8  and  N_9
REMARK    5  A    between atoms: C_10  and  C_11
REMARK    6  A    between atoms: C_16  and  C_17
REMARK    7  A    between atoms: C_23  and  C_24
REMARK                            x       y       z     vdW  Elec       q    Type
REMARK                         _______ _______ _______ _____ _____    ______ ____
ROOT
ATOM      1  N   UNL     1       1.019  12.403  20.127  0.00  0.00    +0.000 N 
ATOM      2  C   UNL     1       1.392  11.178  19.598  0.00  0.00    +0.000 A 
ATOM      3  C   UNL     1       0.967   9.974  20.012  0.00  0.00    +0.000 A 
ATOM      4  C   UNL     1       0.013   9.960  21.143  0.00  0.00    +0.000 A 
ATOM      5  O   UNL     1      -0.453   8.909  21.572  0.00  0.00    +0.000 OA
ATOM      6  C   UNL     1      -0.362  11.253  21.753  0.00  0.00    +0.000 A 
ATOM      7  C   UNL     1      -1.207  11.268  22.861  0.00  0.00    +0.000 A 
ATOM      8  C   UNL     1      -1.555  12.483  23.425  0.00  0.00    +0.000 A 
ATOM      9  C   UNL     1      -1.049  13.648  22.859  0.00  0.00    +0.000 A 
ATOM     10  C   UNL     1      -1.462  14.986  23.398  0.00  0.00    +0.000 C 
ATOM     11  N   UNL     1      -0.216  13.642  21.786  0.00  0.00    +0.000 NA
ATOM     12  C   UNL     1       0.138  12.452  21.233  0.00  0.00    +0.000 A 
ENDROOT
BRANCH   3  13
ATOM     13  C   UNL     1       1.489   8.749  19.345  0.00  0.00    +0.000 C 
ATOM     14  O   UNL     1       1.517   8.673  18.118  0.00  0.00    +0.000 OA
ATOM     15  N   UNL     1       1.933   7.758  20.207  0.00  0.00    +0.000 N 
ATOM     16  H   UNL     1       1.893   7.885  21.220  0.00  0.00    +0.000 HD
BRANCH  15  17
ATOM     17  N   UNL     1       2.455   6.628  19.668  0.00  0.00    +0.000 NA
ATOM     18  C   UNL     1       1.770   5.533  19.734  0.00  0.00    +0.000 C 
BRANCH  18  19
ATOM     19  C   UNL     1       2.351   4.287  19.164  0.00  0.00    +0.000 A 
ATOM     20  C   UNL     1       3.146   4.416  18.010  0.00  0.00    +0.000 A 
ATOM     21  C   UNL     1       3.762   3.308  17.438  0.00  0.00    +0.000 A 
ATOM     22  C   UNL     1       3.581   2.053  18.006  0.00  0.00    +0.000 A 
ATOM     23  C   UNL     1       2.781   1.909  19.142  0.00  0.00    +0.000 A 
ATOM     24  C   UNL     1       2.155   3.020  19.741  0.00  0.00    +0.000 A 
ATOM     25  C   UNL     1       1.342   2.808  20.985  0.00  0.00    +0.000 C 
ENDBRANCH  18  19
ENDBRANCH  15  17
ENDBRANCH   3  13
BRANCH   1  27
ATOM     26  C   UNL     1       2.468  13.491  18.455  0.00  0.00    +0.000 C 
ATOM     27  C   UNL     1       1.647  13.669  19.727  0.00  0.00    +0.000 C 
ENDBRANCH   1  27
TORSDOF 4
ENDMDL
MODEL 7
REMARK VINA RESULT:      -7.5      2.116      9.142
REMARK  Name = 
REMARK  7 active torsions:
REMARK  status: ('A' for Active; 'I' for Inactive)
REMARK    1  A    between atoms: C_1  and  C_2
REMARK    2  A    between atoms: C_2  and  N_3
REMARK    3  A    between atoms: C_5  and  C_6
REMARK    4  A    between atoms: N_8  and  N_9
REMARK    5  A    between atoms: C_10  and  C_11
REMARK    6  A    between atoms: C_16  and  C_17
REMARK    7  A    between atoms: C_23  and  C_24
REMARK                            x       y       z     vdW  Elec       q    Type
REMARK                         _______ _______ _______ _____ _____    ______ ____
ROOT
ATOM      1  N   UNL     1       3.087   4.895  19.156  0.00  0.00    +0.000 N 
ATOM      2  C   UNL     1       2.374   5.855  19.857  0.00  0.00    +0.000 A 
ATOM      3  C   UNL     1       2.267   7.154  19.534  0.00  0.00    +0.000 A 
ATOM      4  C   UNL     1       2.981   7.597  18.317  0.00  0.00    +0.000 A 
ATOM      5  O   UNL     1       2.919   8.758  17.927  0.00  0.00    +0.000 OA
ATOM      6  C   UNL     1       3.786   6.599  17.580  0.00  0.00    +0.000 A 
ATOM      7  C   UNL     1       4.522   7.000  16.468  0.00  0.00    +0.000 A 
ATOM      8  C   UNL     1       5.272   6.059  15.782  0.00  0.00    +0.000 A 
ATOM      9  C   UNL     1       5.257   4.743  16.230  0.00  0.00    +0.000 A 
ATOM     10  C   UNL     1       5.998   3.682  15.470  0.00  0.00    +0.000 C 
ATOM     11  N   UNL     1       4.550   4.346  17.320  0.00  0.00    +0.000 NA
ATOM     12  C   UNL     1       3.820   5.265  18.004  0.00  0.00    +0.000 A 
ENDROOT
BRANCH   3  13
ATOM     13  C   UNL     1       1.478   8.059  20.414  0.00  0.00    +0.000 C 
ATOM     14  O   UNL     1       1.377   7.824  21.617  0.00  0.00    +0.000 OA
ATOM     15  N   UNL     1       0.908   9.148  19.774  0.00  0.00    +0.000 N 
ATOM     16  H   UNL     1       1.036   9.294  18.771  0.00  0.00    +0.000 HD
BRANCH  15  17
ATOM     17  N   UNL     1       0.204  10.035  20.521  0.00  0.00    +0.000 NA
ATOM     18  C   UNL     1       0.724  11.192  20.769  0.00  0.00    +0.000 C 
BRANCH  18  19
ATOM     19  C   UNL     1      -0.037  12.157  21.607  0.00  0.00    +0.000 A 
ATOM     20  C   UNL     1      -1.119  11.652  22.352  0.00  0.00    +0.000 A 
ATOM     21  C   UNL     1      -1.855  12.478  23.194  0.00  0.00    +0.000 A 
ATOM     22  C   UNL     1      -1.527  13.824  23.295  0.00  0.00    +0.000 A 
ATOM     23  C   UNL     1      -0.465  14.342  22.548  0.00  0.00    +0.000 A 
ATOM     24  C   UNL     1       0.297  13.521  21.696  0.00  0.00    +0.000 A 
ATOM     25  C   UNL     1       1.453  14.126  20.952  0.00  0.00    +0.000 C 
ENDBRANCH  18  19
ENDBRANCH  15  17
ENDBRANCH   3  13
BRANCH   1  27
ATOM     26  C   UNL     1       2.502   3.298  20.941  0.00  0.00    +0.000 C 
ATOM     27  C   UNL     1       3.290   3.529  19.656  0.00  0.00    +0.000 C 
ENDBRANCH   1  27
TORSDOF 4
ENDMDL
MODEL 8
REMARK VINA RESULT:      -7.4      1.909      9.307
REMARK  Name = 
REMARK  7 active torsions:
REMARK  status: ('A' for Active; 'I' for Inactive)
REMARK    1  A    between atoms: C_1  and  C_2
REMARK    2  A    between atoms: C_2  and  N_3
REMARK    3  A    between atoms: C_5  and  C_6
REMARK    4  A    between atoms: N_8  and  N_9
REMARK    5  A    between atoms: C_10  and  C_11
REMARK    6  A    between atoms: C_16  and  C_17
REMARK    7  A    between atoms: C_23  and  C_24
REMARK                            x       y       z     vdW  Elec       q    Type
REMARK                         _______ _______ _______ _____ _____    ______ ____
ROOT
ATOM      1  N   UNL     1       3.241   4.214  18.148  0.00  0.00    +0.000 N 
ATOM      2  C   UNL     1       2.553   5.066  18.997  0.00  0.00    +0.000 A 
ATOM      3  C   UNL     1       2.565   6.408  18.952  0.00  0.00    +0.000 A 
ATOM      4  C   UNL     1       3.397   7.030  17.899  0.00  0.00    +0.000 A 
ATOM      5  O   UNL     1       3.449   8.248  17.763  0.00  0.00    +0.000 OA
ATOM      6  C   UNL     1       4.177   6.140  17.013  0.00  0.00    +0.000 A 
ATOM      7  C   UNL     1       5.020   6.697  16.054  0.00  0.00    +0.000 A 
ATOM      8  C   UNL     1       5.746   5.857  15.226  0.00  0.00    +0.000 A 
ATOM      9  C   UNL     1       5.601   4.483  15.382  0.00  0.00    +0.000 A 
ATOM     10  C   UNL     1       6.315   3.542  14.456  0.00  0.00    +0.000 C 
ATOM     11  N   UNL     1       4.790   3.931  16.322  0.00  0.00    +0.000 NA
ATOM     12  C   UNL     1       4.082   4.749  17.145  0.00  0.00    +0.000 A 
ENDROOT
BRANCH   3  13
ATOM     13  C   UNL     1       1.783   7.176  19.960  0.00  0.00    +0.000 C 
ATOM     14  O   UNL     1       1.442   6.648  21.017  0.00  0.00    +0.000 OA
ATOM     15  N   UNL     1       1.505   8.488  19.609  0.00  0.00    +0.000 N 
ATOM     16  H   UNL     1       1.825   8.873  18.719  0.00  0.00    +0.000 HD
BRANCH  15  17
ATOM     17  N   UNL     1       0.826   9.258  20.495  0.00  0.00    +0.000 NA
ATOM     18  C   UNL     1       0.096  10.226  20.048  0.00  0.00    +0.000 C 
BRANCH  18  19
ATOM     19  C   UNL     1      -0.632  11.086  21.020  0.00  0.00    +0.000 A 
ATOM     20  C   UNL     1      -0.777  10.596  22.331  0.00  0.00    +0.000 A 
ATOM     21  C   UNL     1      -1.405  11.356  23.313  0.00  0.00    +0.000 A 
ATOM     22  C   UNL     1      -1.909  12.610  22.993  0.00  0.00    +0.000 A 
ATOM     23  C   UNL     1      -1.786  13.101  21.690  0.00  0.00    +0.000 A 
ATOM     24  C   UNL     1      -1.146  12.351  20.685  0.00  0.00    +0.000 A 
ATOM     25  C   UNL     1      -1.007  12.951  19.315  0.00  0.00    +0.000 C 
ENDBRANCH  18  19
ENDBRANCH  15  17
ENDBRANCH   3  13
BRANCH   1  27
ATOM     26  C   UNL     1       1.934   2.203  18.718  0.00  0.00    +0.000 C 
ATOM     27  C   UNL     1       3.306   2.761  18.357  0.00  0.00    +0.000 C 
ENDBRANCH   1  27
TORSDOF 4
ENDMDL
MODEL 9
REMARK VINA RESULT:      -7.4      2.013      9.196
REMARK  Name = 
REMARK  7 active torsions:
REMARK  status: ('A' for Active; 'I' for Inactive)
REMARK    1  A    between atoms: C_1  and  C_2
REMARK    2  A    between atoms: C_2  and  N_3
REMARK    3  A    between atoms: C_5  and  C_6
REMARK    4  A    between atoms: N_8  and  N_9
REMARK    5  A    between atoms: C_10  and  C_11
REMARK    6  A    between atoms: C_16  and  C_17
REMARK    7  A    between atoms: C_23  and  C_24
REMARK                            x       y       z     vdW  Elec       q    Type
REMARK                         _______ _______ _______ _____ _____    ______ ____
ROOT
ATOM      1  N   UNL     1       3.153   4.955  19.144  0.00  0.00    +0.000 N 
ATOM      2  C   UNL     1       2.413   5.934  19.787  0.00  0.00    +0.000 A 
ATOM      3  C   UNL     1       2.288   7.214  19.402  0.00  0.00    +0.000 A 
ATOM      4  C   UNL     1       3.014   7.612  18.175  0.00  0.00    +0.000 A 
ATOM      5  O   UNL     1       2.937   8.752  17.730  0.00  0.00    +0.000 OA
ATOM      6  C   UNL     1       3.847   6.595  17.499  0.00  0.00    +0.000 A 
ATOM      7  C   UNL     1       4.593   6.956  16.379  0.00  0.00    +0.000 A 
ATOM      8  C   UNL     1       5.369   5.997  15.751  0.00  0.00    +0.000 A 
ATOM      9  C   UNL     1       5.371   4.704  16.261  0.00  0.00    +0.000 A 
ATOM     10  C   UNL     1       6.142   3.622  15.563  0.00  0.00    +0.000 C 
ATOM     11  N   UNL     1       4.654   4.346  17.358  0.00  0.00    +0.000 NA
ATOM     12  C   UNL     1       3.898   5.283  17.987  0.00  0.00    +0.000 A 
ENDROOT
BRANCH   3  13
ATOM     13  C   UNL     1       1.470   8.145  20.226  0.00  0.00    +0.000 C 
ATOM     14  O   UNL     1       1.342   7.958  21.435  0.00  0.00    +0.000 OA
ATOM     15  N   UNL     1       0.906   9.203  19.529  0.00  0.00    +0.000 N 
ATOM     16  H   UNL     1       1.057   9.310  18.525  0.00  0.00    +0.000 HD
BRANCH  15  17
ATOM     17  N   UNL     1       0.176  10.111  20.223  0.00  0.00    +0.000 NA
ATOM     18  C   UNL     1       0.773  11.151  20.707  0.00  0.00    +0.000 C 
BRANCH  18  19
ATOM     19  C   UNL     1      -0.022  12.137  21.487  0.00  0.00    +0.000 A 
ATOM     20  C   UNL     1       0.005  13.476  21.053  0.00  0.00    +0.000 A 
ATOM     21  C   UNL     1      -0.744  14.453  21.700  0.00  0.00    +0.000 A 
ATOM     22  C   UNL     1      -1.522  14.106  22.798  0.00  0.00    +0.000 A 
ATOM     23  C   UNL     1      -1.545  12.784  23.249  0.00  0.00    +0.000 A 
ATOM     24  C   UNL     1      -0.800  11.779  22.603  0.00  0.00    +0.000 A 
ATOM     25  C   UNL     1      -0.899  10.368  23.108  0.00  0.00    +0.000 C 
ENDBRANCH  18  19
ENDBRANCH  15  17
ENDBRANCH   3  13
BRANCH   1  27
ATOM     26  C   UNL     1       2.348   3.316  20.800  0.00  0.00    +0.000 C 
ATOM     27  C   UNL     1       3.372   3.618  19.711  0.00  0.00    +0.000 C 
ENDBRANCH   1  27
TORSDOF 4
ENDMDL
