MODEL 1
REMARK VINA RESULT:      -8.1      0.000      0.000
REMARK  Name = 
REMARK  12 active torsions:
REMARK  status: ('A' for Active; 'I' for Inactive)
REMARK    1  A    between atoms: C_1  and  O_2
REMARK    2  A    between atoms: O_2  and  C_3
REMARK    3  A    between atoms: C_3  and  C_5
REMARK    4  A    between atoms: C_5  and  C_6
REMARK    5  A    between atoms: C_6  and  C_7
REMARK    6  A    between atoms: C_7  and  C_8
REMARK    7  A    between atoms: C_9  and  C_10
REMARK    8  A    between atoms: C_10  and  C_11
REMARK    9  A    between atoms: C_16  and  C_17
REMARK   10  A    between atoms: C_20  and  C_21
REMARK   11  A    between atoms: C_21  and  O_22
REMARK   12  A    between atoms: C_21  and  C_23
REMARK                            x       y       z     vdW  Elec       q    Type
REMARK                         _______ _______ _______ _____ _____    ______ ____
ROOT
ATOM      1  C   UNL     1       1.582   4.026  18.530  0.00  0.00    +0.000 C 
ATOM      2  C   UNL     1       0.955   2.963  19.404  0.00  0.00    +0.000 C 
ATOM      3  O   UNL     1       0.076   2.193  19.032  0.00  0.00    +0.000 OA
ATOM      4  C   UNL     1       1.523   2.904  20.784  0.00  0.00    +0.000 C 
ATOM      5  C   UNL     1       2.363   4.159  20.903  0.00  0.00    +0.000 C 
ATOM      6  C   UNL     1       2.528   4.788  19.492  0.00  0.00    +0.000 C 
ENDROOT
BRANCH   6   7
ATOM      7  C   UNL     1       2.221   6.276  19.501  0.00  0.00    +0.000 A 
ATOM      8  C   UNL     1       1.683   6.975  20.593  0.00  0.00    +0.000 A 
ATOM      9  C   UNL     1       1.366   8.351  20.487  0.00  0.00    +0.000 A 
ATOM     10  C   UNL     1       1.555   9.054  19.285  0.00  0.00    +0.000 A 
ATOM     11  C   UNL     1       2.163   8.344  18.236  0.00  0.00    +0.000 A 
ATOM     12  C   UNL     1       2.507   7.008  18.353  0.00  0.00    +0.000 A 
BRANCH  10  13
ATOM     13  C   UNL     1       1.246  10.542  19.082  0.00  0.00    +0.000 C 
BRANCH  13  14
ATOM     14  C   UNL     1      -0.274  10.914  19.239  0.00  0.00    +0.000 C 
ATOM     15  C   UNL     1      -0.682  11.265  20.676  0.00  0.00    +0.000 C 
ATOM     16  C   UNL     1      -0.356  12.700  21.073  0.00  0.00    +0.000 C 
ATOM     17  C   UNL     1      -0.846  13.737  20.067  0.00  0.00    +0.000 C 
ATOM     18  C   UNL     1      -0.541  13.397  18.613  0.00  0.00    +0.000 C 
ATOM     19  C   UNL     1      -0.837  11.952  18.256  0.00  0.00    +0.000 C 
ENDBRANCH  13  14
BRANCH  13  20
ATOM     20  O   UNL     1       1.647  10.844  17.741  0.00  0.00    +0.000 OA
ATOM     21  H   UNL     1       1.942  10.009  17.335  0.00  0.00    +0.000 HD
ENDBRANCH  13  20
ENDBRANCH  10  13
ENDBRANCH   6   7
BRANCH   1  22
ATOM     22  C   UNL     1       2.365   3.406  17.370  0.00  0.00    +0.000 C 
BRANCH  22  24
ATOM     23  C   UNL     1       4.856   3.689  16.924  0.00  0.00    +0.000 C 
ATOM     24  C   UNL     1       3.831   3.229  17.657  0.00  0.00    +0.000 C 
BRANCH  23  25
ATOM     25  C   UNL     1       4.745   4.421  15.619  0.00  0.00    +0.000 C 
BRANCH  25  26
ATOM     26  C   UNL     1       5.444   5.778  15.642  0.00  0.00    +0.000 C 
BRANCH  26  27
ATOM     27  C   UNL     1       6.926   5.689  16.009  0.00  0.00    +0.000 C 
BRANCH  27  28
ATOM     28  C   UNL     1       7.213   6.500  17.247  0.00  0.00    +0.000 C 
ATOM     29  O   UNL     1       7.633   7.649  17.257  0.00  0.00    +0.000 OA
BRANCH  28  31
ATOM     30  C   UNL     1       7.919   5.878  19.378  0.00  0.00    +0.000 C 
ATOM     31  O   UNL     1       6.928   5.763  18.357  0.00  0.00    +0.000 OA
ENDBRANCH  28  31
ENDBRANCH  27  28
ENDBRANCH  26  27
ENDBRANCH  25  26
ENDBRANCH  23  25
ENDBRANCH  22  24
ENDBRANCH   1  22
TORSDOF 11
ENDMDL
MODEL 2
REMARK VINA RESULT:      -8.0      1.845      2.514
REMARK  Name = 
REMARK  12 active torsions:
REMARK  status: ('A' for Active; 'I' for Inactive)
REMARK    1  A    between atoms: C_1  and  O_2
REMARK    2  A    between atoms: O_2  and  C_3
REMARK    3  A    between atoms: C_3  and  C_5
REMARK    4  A    between atoms: C_5  and  C_6
REMARK    5  A    between atoms: C_6  and  C_7
REMARK    6  A    between atoms: C_7  and  C_8
REMARK    7  A    between atoms: C_9  and  C_10
REMARK    8  A    between atoms: C_10  and  C_11
REMARK    9  A    between atoms: C_16  and  C_17
REMARK   10  A    between atoms: C_20  and  C_21
REMARK   11  A    between atoms: C_21  and  O_22
REMARK   12  A    between atoms: C_21  and  C_23
REMARK                            x       y       z     vdW  Elec       q    Type
REMARK                         _______ _______ _______ _____ _____    ______ ____
ROOT
ATOM      1  C   UNL     1       2.660   4.638  18.594  0.00  0.00    +0.000 C 
ATOM      2  C   UNL     1       1.719   3.467  18.765  0.00  0.00    +0.000 C 
ATOM      3  O   UNL     1       1.469   2.648  17.887  0.00  0.00    +0.000 OA
ATOM      4  C   UNL     1       1.122   3.367  20.130  0.00  0.00    +0.000 C 
ATOM      5  C   UNL     1       1.474   4.681  20.796  0.00  0.00    +0.000 C 
ATOM      6  C   UNL     1       2.532   5.416  19.928  0.00  0.00    +0.000 C 
ENDROOT
BRANCH   6   7
ATOM      7  C   UNL     1       2.151   6.866  19.685  0.00  0.00    +0.000 A 
ATOM      8  C   UNL     1       1.528   7.699  20.628  0.00  0.00    +0.000 A 
ATOM      9  C   UNL     1       1.147   9.020  20.289  0.00  0.00    +0.000 A 
ATOM     10  C   UNL     1       1.357   9.531  18.996  0.00  0.00    +0.000 A 
ATOM     11  C   UNL     1       2.048   8.700  18.101  0.00  0.00    +0.000 A 
ATOM     12  C   UNL     1       2.453   7.421  18.445  0.00  0.00    +0.000 A 
BRANCH  10  13
ATOM     13  C   UNL     1       0.984  10.948  18.544  0.00  0.00    +0.000 C 
BRANCH  13  14
ATOM     14  C   UNL     1       0.981  12.017  19.698  0.00  0.00    +0.000 C 
ATOM     15  C   UNL     1       2.193  12.958  19.675  0.00  0.00    +0.000 C 
ATOM     16  C   UNL     1       2.052  14.115  18.691  0.00  0.00    +0.000 C 
ATOM     17  C   UNL     1       0.737  14.874  18.829  0.00  0.00    +0.000 C 
ATOM     18  C   UNL     1      -0.495  13.984  18.942  0.00  0.00    +0.000 C 
ATOM     19  C   UNL     1      -0.314  12.818  19.896  0.00  0.00    +0.000 C 
ENDBRANCH  13  14
BRANCH  13  20
ATOM     20  O   UNL     1      -0.345  10.851  18.019  0.00  0.00    +0.000 OA
ATOM     21  H   UNL     1      -0.391  11.438  17.243  0.00  0.00    +0.000 HD
ENDBRANCH  13  20
ENDBRANCH  10  13
ENDBRANCH   6   7
BRANCH   1  22
ATOM     22  C   UNL     1       4.100   4.170  18.369  0.00  0.00    +0.000 C 
BRANCH  22  24
ATOM     23  C   UNL     1       6.352   5.198  18.967  0.00  0.00    +0.000 C 
ATOM     24  C   UNL     1       5.099   4.834  19.278  0.00  0.00    +0.000 C 
BRANCH  23  25
ATOM     25  C   UNL     1       7.040   4.952  17.657  0.00  0.00    +0.000 C 
BRANCH  25  26
ATOM     26  C   UNL     1       6.680   5.990  16.596  0.00  0.00    +0.000 C 
BRANCH  26  27
ATOM     27  C   UNL     1       5.951   5.394  15.392  0.00  0.00    +0.000 C 
BRANCH  27  28
ATOM     28  C   UNL     1       6.941   4.900  14.367  0.00  0.00    +0.000 C 
ATOM     29  O   UNL     1       7.939   5.504  14.001  0.00  0.00    +0.000 OA
BRANCH  28  31
ATOM     30  C   UNL     1       5.528   3.736  12.926  0.00  0.00    +0.000 C 
ATOM     31  O   UNL     1       6.558   3.674  13.912  0.00  0.00    +0.000 OA
ENDBRANCH  28  31
ENDBRANCH  27  28
ENDBRANCH  26  27
ENDBRANCH  25  26
ENDBRANCH  23  25
ENDBRANCH  22  24
ENDBRANCH   1  22
TORSDOF 11
ENDMDL
MODEL 3
REMARK VINA RESULT:      -8.0      1.788      2.584
REMARK  Name = 
REMARK  12 active torsions:
REMARK  status: ('A' for Active; 'I' for Inactive)
REMARK    1  A    between atoms: C_1  and  O_2
REMARK    2  A    between atoms: O_2  and  C_3
REMARK    3  A    between atoms: C_3  and  C_5
REMARK    4  A    between atoms: C_5  and  C_6
REMARK    5  A    between atoms: C_6  and  C_7
REMARK    6  A    between atoms: C_7  and  C_8
REMARK    7  A    between atoms: C_9  and  C_10
REMARK    8  A    between atoms: C_10  and  C_11
REMARK    9  A    between atoms: C_16  and  C_17
REMARK   10  A    between atoms: C_20  and  C_21
REMARK   11  A    between atoms: C_21  and  O_22
REMARK   12  A    between atoms: C_21  and  C_23
REMARK                            x       y       z     vdW  Elec       q    Type
REMARK                         _______ _______ _______ _____ _____    ______ ____
ROOT
ATOM      1  C   UNL     1       2.902   4.226  18.691  0.00  0.00    +0.000 C 
ATOM      2  C   UNL     1       2.092   3.056  19.200  0.00  0.00    +0.000 C 
ATOM      3  O   UNL     1       1.774   2.088  18.518  0.00  0.00    +0.000 OA
ATOM      4  C   UNL     1       1.722   3.160  20.643  0.00  0.00    +0.000 C 
ATOM      5  C   UNL     1       2.070   4.584  21.022  0.00  0.00    +0.000 C 
ATOM      6  C   UNL     1       2.922   5.213  19.886  0.00  0.00    +0.000 C 
ENDROOT
BRANCH   6   7
ATOM      7  C   UNL     1       2.398   6.579  19.480  0.00  0.00    +0.000 A 
ATOM      8  C   UNL     1       2.475   7.113  18.184  0.00  0.00    +0.000 A 
ATOM      9  C   UNL     1       2.018   8.425  17.912  0.00  0.00    +0.000 A 
ATOM     10  C   UNL     1       1.498   9.243  18.930  0.00  0.00    +0.000 A 
ATOM     11  C   UNL     1       1.366   8.654  20.198  0.00  0.00    +0.000 A 
ATOM     12  C   UNL     1       1.779   7.357  20.454  0.00  0.00    +0.000 A 
BRANCH  10  13
ATOM     13  C   UNL     1       0.976  10.671  18.726  0.00  0.00    +0.000 C 
BRANCH  13  14
ATOM     14  C   UNL     1       0.580  11.411  20.056  0.00  0.00    +0.000 C 
ATOM     15  C   UNL     1       1.403  12.677  20.330  0.00  0.00    +0.000 C 
ATOM     16  C   UNL     1       0.909  13.905  19.574  0.00  0.00    +0.000 C 
ATOM     17  C   UNL     1      -0.589  14.151  19.723  0.00  0.00    +0.000 C 
ATOM     18  C   UNL     1      -1.451  12.907  19.545  0.00  0.00    +0.000 C 
ATOM     19  C   UNL     1      -0.915  11.689  20.274  0.00  0.00    +0.000 C 
ENDBRANCH  13  14
BRANCH  13  20
ATOM     20  O   UNL     1      -0.198  10.544  17.916  0.00  0.00    +0.000 OA
ATOM     21  H   UNL     1      -0.023   9.841  17.265  0.00  0.00    +0.000 HD
ENDBRANCH  13  20
ENDBRANCH  10  13
ENDBRANCH   6   7
BRANCH   1  22
ATOM     22  C   UNL     1       4.323   3.800  18.309  0.00  0.00    +0.000 C 
BRANCH  22  24
ATOM     23  C   UNL     1       6.121   5.471  18.985  0.00  0.00    +0.000 C 
ATOM     24  C   UNL     1       5.386   4.371  19.208  0.00  0.00    +0.000 C 
BRANCH  23  25
ATOM     25  C   UNL     1       6.080   6.323  17.751  0.00  0.00    +0.000 C 
BRANCH  25  26
ATOM     26  C   UNL     1       6.872   5.723  16.592  0.00  0.00    +0.000 C 
BRANCH  26  27
ATOM     27  C   UNL     1       5.987   5.234  15.445  0.00  0.00    +0.000 C 
BRANCH  27  28
ATOM     28  C   UNL     1       6.832   4.806  14.272  0.00  0.00    +0.000 C 
ATOM     29  O   UNL     1       7.821   5.396  13.861  0.00  0.00    +0.000 OA
BRANCH  28  31
ATOM     30  C   UNL     1       6.482   3.581  12.322  0.00  0.00    +0.000 C 
ATOM     31  O   UNL     1       6.330   3.657  13.739  0.00  0.00    +0.000 OA
ENDBRANCH  28  31
ENDBRANCH  27  28
ENDBRANCH  26  27
ENDBRANCH  25  26
ENDBRANCH  23  25
ENDBRANCH  22  24
ENDBRANCH   1  22
TORSDOF 11
ENDMDL
MODEL 4
REMARK VINA RESULT:      -8.0      0.904      1.252
REMARK  Name = 
REMARK  12 active torsions:
REMARK  status: ('A' for Active; 'I' for Inactive)
REMARK    1  A    between atoms: C_1  and  O_2
REMARK    2  A    between atoms: O_2  and  C_3
REMARK    3  A    between atoms: C_3  and  C_5
REMARK    4  A    between atoms: C_5  and  C_6
REMARK    5  A    between atoms: C_6  and  C_7
REMARK    6  A    between atoms: C_7  and  C_8
REMARK    7  A    between atoms: C_9  and  C_10
REMARK    8  A    between atoms: C_10  and  C_11
REMARK    9  A    between atoms: C_16  and  C_17
REMARK   10  A    between atoms: C_20  and  C_21
REMARK   11  A    between atoms: C_21  and  O_22
REMARK   12  A    between atoms: C_21  and  C_23
REMARK                            x       y       z     vdW  Elec       q    Type
REMARK                         _______ _______ _______ _____ _____    ______ ____
ROOT
ATOM      1  C   UNL     1       1.696   4.083  18.363  0.00  0.00    +0.000 C 
ATOM      2  C   UNL     1       1.058   3.020  19.229  0.00  0.00    +0.000 C 
ATOM      3  O   UNL     1       0.222   2.216  18.831  0.00  0.00    +0.000 OA
ATOM      4  C   UNL     1       1.557   3.007  20.636  0.00  0.00    +0.000 C 
ATOM      5  C   UNL     1       2.353   4.289  20.767  0.00  0.00    +0.000 C 
ATOM      6  C   UNL     1       2.570   4.894  19.353  0.00  0.00    +0.000 C 
ENDROOT
BRANCH   6   7
ATOM      7  C   UNL     1       2.220   6.371  19.313  0.00  0.00    +0.000 A 
ATOM      8  C   UNL     1       1.649   7.087  20.378  0.00  0.00    +0.000 A 
ATOM      9  C   UNL     1       1.293   8.449  20.227  0.00  0.00    +0.000 A 
ATOM     10  C   UNL     1       1.475   9.120  19.005  0.00  0.00    +0.000 A 
ATOM     11  C   UNL     1       2.115   8.398  17.985  0.00  0.00    +0.000 A 
ATOM     12  C   UNL     1       2.497   7.076  18.147  0.00  0.00    +0.000 A 
BRANCH  10  13
ATOM     13  C   UNL     1       1.125  10.592  18.754  0.00  0.00    +0.000 C 
BRANCH  13  14
ATOM     14  C   UNL     1       0.663  11.375  20.037  0.00  0.00    +0.000 C 
ATOM     15  C   UNL     1       1.617  12.505  20.450  0.00  0.00    +0.000 C 
ATOM     16  C   UNL     1       1.412  13.797  19.667  0.00  0.00    +0.000 C 
ATOM     17  C   UNL     1      -0.040  14.259  19.621  0.00  0.00    +0.000 C 
ATOM     18  C   UNL     1      -1.042  13.156  19.297  0.00  0.00    +0.000 C 
ATOM     19  C   UNL     1      -0.791  11.869  20.061  0.00  0.00    +0.000 C 
ENDBRANCH  13  14
BRANCH  13  20
ATOM     20  O   UNL     1       0.039  10.579  17.820  0.00  0.00    +0.000 OA
ATOM     21  H   UNL     1      -0.673  10.045  18.215  0.00  0.00    +0.000 HD
ENDBRANCH  13  20
ENDBRANCH  10  13
ENDBRANCH   6   7
BRANCH   1  22
ATOM     22  C   UNL     1       2.554   3.463  17.257  0.00  0.00    +0.000 C 
BRANCH  22  24
ATOM     23  C   UNL     1       5.059   3.690  16.860  0.00  0.00    +0.000 C 
ATOM     24  C   UNL     1       4.009   3.341  17.619  0.00  0.00    +0.000 C 
BRANCH  23  25
ATOM     25  C   UNL     1       4.994   4.214  15.456  0.00  0.00    +0.000 C 
BRANCH  25  26
ATOM     26  C   UNL     1       5.667   5.576  15.301  0.00  0.00    +0.000 C 
BRANCH  26  27
ATOM     27  C   UNL     1       5.293   6.563  16.406  0.00  0.00    +0.000 C 
BRANCH  27  28
ATOM     28  C   UNL     1       6.442   6.739  17.368  0.00  0.00    +0.000 C 
ATOM     29  O   UNL     1       6.594   6.114  18.408  0.00  0.00    +0.000 OA
BRANCH  28  31
ATOM     30  C   UNL     1       8.077   8.301  17.928  0.00  0.00    +0.000 C 
ATOM     31  O   UNL     1       7.291   7.696  16.901  0.00  0.00    +0.000 OA
ENDBRANCH  28  31
ENDBRANCH  27  28
ENDBRANCH  26  27
ENDBRANCH  25  26
ENDBRANCH  23  25
ENDBRANCH  22  24
ENDBRANCH   1  22
TORSDOF 11
ENDMDL
MODEL 5
REMARK VINA RESULT:      -8.0      1.476      2.316
REMARK  Name = 
REMARK  12 active torsions:
REMARK  status: ('A' for Active; 'I' for Inactive)
REMARK    1  A    between atoms: C_1  and  O_2
REMARK    2  A    between atoms: O_2  and  C_3
REMARK    3  A    between atoms: C_3  and  C_5
REMARK    4  A    between atoms: C_5  and  C_6
REMARK    5  A    between atoms: C_6  and  C_7
REMARK    6  A    between atoms: C_7  and  C_8
REMARK    7  A    between atoms: C_9  and  C_10
REMARK    8  A    between atoms: C_10  and  C_11
REMARK    9  A    between atoms: C_16  and  C_17
REMARK   10  A    between atoms: C_20  and  C_21
REMARK   11  A    between atoms: C_21  and  O_22
REMARK   12  A    between atoms: C_21  and  C_23
REMARK                            x       y       z     vdW  Elec       q    Type
REMARK                         _______ _______ _______ _____ _____    ______ ____
ROOT
ATOM      1  C   UNL     1       2.213   5.280  18.315  0.00  0.00    +0.000 C 
ATOM      2  C   UNL     1       1.504   3.994  18.671  0.00  0.00    +0.000 C 
ATOM      3  O   UNL     1       1.041   3.210  17.849  0.00  0.00    +0.000 OA
ATOM      4  C   UNL     1       1.431   3.730  20.139  0.00  0.00    +0.000 C 
ATOM      5  C   UNL     1       1.870   5.031  20.780  0.00  0.00    +0.000 C 
ATOM      6  C   UNL     1       2.487   5.947  19.688  0.00  0.00    +0.000 C 
ENDROOT
BRANCH   6   7
ATOM      7  C   UNL     1       1.912   7.352  19.741  0.00  0.00    +0.000 A 
ATOM      8  C   UNL     1       1.899   8.252  18.664  0.00  0.00    +0.000 A 
ATOM      9  C   UNL     1       1.402   9.568  18.825  0.00  0.00    +0.000 A 
ATOM     10  C   UNL     1       0.930  10.022  20.069  0.00  0.00    +0.000 A 
ATOM     11  C   UNL     1       0.888   9.076  21.105  0.00  0.00    +0.000 A 
ATOM     12  C   UNL     1       1.340   7.778  20.935  0.00  0.00    +0.000 A 
BRANCH  10  13
ATOM     13  C   UNL     1       0.369  11.426  20.333  0.00  0.00    +0.000 C 
BRANCH  13  14
ATOM     14  C   UNL     1      -1.117  11.443  20.847  0.00  0.00    +0.000 C 
ATOM     15  C   UNL     1      -1.244  11.526  22.374  0.00  0.00    +0.000 C 
ATOM     16  C   UNL     1      -1.105  12.941  22.924  0.00  0.00    +0.000 C 
ATOM     17  C   UNL     1      -1.993  13.960  22.218  0.00  0.00    +0.000 C 
ATOM     18  C   UNL     1      -1.971  13.866  20.697  0.00  0.00    +0.000 C 
ATOM     19  C   UNL     1      -2.070  12.444  20.176  0.00  0.00    +0.000 C 
ENDBRANCH  13  14
BRANCH  13  20
ATOM     20  O   UNL     1       0.417  12.107  19.074  0.00  0.00    +0.000 OA
ATOM     21  H   UNL     1      -0.141  12.901  19.156  0.00  0.00    +0.000 HD
ENDBRANCH  13  20
ENDBRANCH  10  13
ENDBRANCH   6   7
BRANCH   1  22
ATOM     22  C   UNL     1       3.522   5.009  17.568  0.00  0.00    +0.000 C 
BRANCH  22  24
ATOM     23  C   UNL     1       5.409   4.002  18.950  0.00  0.00    +0.000 C 
ATOM     24  C   UNL     1       4.332   3.887  18.158  0.00  0.00    +0.000 C 
BRANCH  23  25
ATOM     25  C   UNL     1       6.070   5.287  19.355  0.00  0.00    +0.000 C 
BRANCH  25  26
ATOM     26  C   UNL     1       7.438   5.479  18.703  0.00  0.00    +0.000 C 
BRANCH  26  27
ATOM     27  C   UNL     1       7.466   6.619  17.685  0.00  0.00    +0.000 C 
BRANCH  27  28
ATOM     28  C   UNL     1       6.790   6.200  16.404  0.00  0.00    +0.000 C 
ATOM     29  O   UNL     1       5.899   6.820  15.841  0.00  0.00    +0.000 OA
BRANCH  28  31
ATOM     30  C   UNL     1       6.892   4.671  14.650  0.00  0.00    +0.000 C 
ATOM     31  O   UNL     1       7.325   5.028  15.963  0.00  0.00    +0.000 OA
ENDBRANCH  28  31
ENDBRANCH  27  28
ENDBRANCH  26  27
ENDBRANCH  25  26
ENDBRANCH  23  25
ENDBRANCH  22  24
ENDBRANCH   1  22
TORSDOF 11
ENDMDL
MODEL 6
REMARK VINA RESULT:      -7.8      1.598      2.404
REMARK  Name = 
REMARK  12 active torsions:
REMARK  status: ('A' for Active; 'I' for Inactive)
REMARK    1  A    between atoms: C_1  and  O_2
REMARK    2  A    between atoms: O_2  and  C_3
REMARK    3  A    between atoms: C_3  and  C_5
REMARK    4  A    between atoms: C_5  and  C_6
REMARK    5  A    between atoms: C_6  and  C_7
REMARK    6  A    between atoms: C_7  and  C_8
REMARK    7  A    between atoms: C_9  and  C_10
REMARK    8  A    between atoms: C_10  and  C_11
REMARK    9  A    between atoms: C_16  and  C_17
REMARK   10  A    between atoms: C_20  and  C_21
REMARK   11  A    between atoms: C_21  and  O_22
REMARK   12  A    between atoms: C_21  and  C_23
REMARK                            x       y       z     vdW  Elec       q    Type
REMARK                         _______ _______ _______ _____ _____    ______ ____
ROOT
ATOM      1  C   UNL     1       2.247   5.434  18.297  0.00  0.00    +0.000 C 
ATOM      2  C   UNL     1       1.569   4.128  18.646  0.00  0.00    +0.000 C 
ATOM      3  O   UNL     1       1.114   3.344  17.819  0.00  0.00    +0.000 OA
ATOM      4  C   UNL     1       1.518   3.845  20.110  0.00  0.00    +0.000 C 
ATOM      5  C   UNL     1       1.936   5.147  20.763  0.00  0.00    +0.000 C 
ATOM      6  C   UNL     1       2.521   6.089  19.675  0.00  0.00    +0.000 C 
ENDROOT
BRANCH   6   7
ATOM      7  C   UNL     1       1.917   7.480  19.752  0.00  0.00    +0.000 A 
ATOM      8  C   UNL     1       1.346   8.042  20.905  0.00  0.00    +0.000 A 
ATOM      9  C   UNL     1       0.745   9.323  20.865  0.00  0.00    +0.000 A 
ATOM     10  C   UNL     1       0.678  10.062  19.671  0.00  0.00    +0.000 A 
ATOM     11  C   UNL     1       1.323   9.505  18.555  0.00  0.00    +0.000 A 
ATOM     12  C   UNL     1       1.943   8.267  18.605  0.00  0.00    +0.000 A 
BRANCH  10  13
ATOM     13  C   UNL     1       0.053  11.456  19.537  0.00  0.00    +0.000 C 
BRANCH  13  14
ATOM     14  C   UNL     1       1.089  12.606  19.259  0.00  0.00    +0.000 C 
ATOM     15  C   UNL     1       0.494  13.812  18.518  0.00  0.00    +0.000 C 
ATOM     16  C   UNL     1      -0.246  14.786  19.428  0.00  0.00    +0.000 C 
ATOM     17  C   UNL     1       0.558  15.205  20.654  0.00  0.00    +0.000 C 
ATOM     18  C   UNL     1       1.243  14.054  21.382  0.00  0.00    +0.000 C 
ATOM     19  C   UNL     1       1.937  13.077  20.450  0.00  0.00    +0.000 C 
ENDBRANCH  13  14
BRANCH  13  20
ATOM     20  O   UNL     1      -0.583  11.719  20.793  0.00  0.00    +0.000 OA
ATOM     21  H   UNL     1       0.118  11.766  21.466  0.00  0.00    +0.000 HD
ENDBRANCH  13  20
ENDBRANCH  10  13
ENDBRANCH   6   7
BRANCH   1  22
ATOM     22  C   UNL     1       3.553   5.200  17.533  0.00  0.00    +0.000 C 
BRANCH  22  24
ATOM     23  C   UNL     1       5.412   4.123  18.899  0.00  0.00    +0.000 C 
ATOM     24  C   UNL     1       4.365   4.050  18.064  0.00  0.00    +0.000 C 
BRANCH  23  25
ATOM     25  C   UNL     1       6.034   5.384  19.423  0.00  0.00    +0.000 C 
BRANCH  25  26
ATOM     26  C   UNL     1       7.495   5.540  19.008  0.00  0.00    +0.000 C 
BRANCH  26  27
ATOM     27  C   UNL     1       7.717   6.655  17.987  0.00  0.00    +0.000 C 
BRANCH  27  28
ATOM     28  C   UNL     1       7.070   6.302  16.671  0.00  0.00    +0.000 C 
ATOM     29  O   UNL     1       6.204   6.961  16.111  0.00  0.00    +0.000 OA
BRANCH  28  31
ATOM     30  C   UNL     1       6.794   4.528  15.188  0.00  0.00    +0.000 C 
ATOM     31  O   UNL     1       7.599   5.141  16.195  0.00  0.00    +0.000 OA
ENDBRANCH  28  31
ENDBRANCH  27  28
ENDBRANCH  26  27
ENDBRANCH  25  26
ENDBRANCH  23  25
ENDBRANCH  22  24
ENDBRANCH   1  22
TORSDOF 11
ENDMDL
MODEL 7
REMARK VINA RESULT:      -7.8      1.516      1.975
REMARK  Name = 
REMARK  12 active torsions:
REMARK  status: ('A' for Active; 'I' for Inactive)
REMARK    1  A    between atoms: C_1  and  O_2
REMARK    2  A    between atoms: O_2  and  C_3
REMARK    3  A    between atoms: C_3  and  C_5
REMARK    4  A    between atoms: C_5  and  C_6
REMARK    5  A    between atoms: C_6  and  C_7
REMARK    6  A    between atoms: C_7  and  C_8
REMARK    7  A    between atoms: C_9  and  C_10
REMARK    8  A    between atoms: C_10  and  C_11
REMARK    9  A    between atoms: C_16  and  C_17
REMARK   10  A    between atoms: C_20  and  C_21
REMARK   11  A    between atoms: C_21  and  O_22
REMARK   12  A    between atoms: C_21  and  C_23
REMARK                            x       y       z     vdW  Elec       q    Type
REMARK                         _______ _______ _______ _____ _____    ______ ____
ROOT
ATOM      1  C   UNL     1       1.446   4.412  18.689  0.00  0.00    +0.000 C 
ATOM      2  C   UNL     1       0.936   3.247  19.506  0.00  0.00    +0.000 C 
ATOM      3  O   UNL     1       0.099   2.442  19.111  0.00  0.00    +0.000 OA
ATOM      4  C   UNL     1       1.565   3.132  20.855  0.00  0.00    +0.000 C 
ATOM      5  C   UNL     1       2.318   4.435  21.034  0.00  0.00    +0.000 C 
ATOM      6  C   UNL     1       2.377   5.173  19.668  0.00  0.00    +0.000 C 
ENDROOT
BRANCH   6   7
ATOM      7  C   UNL     1       1.964   6.629  19.798  0.00  0.00    +0.000 A 
ATOM      8  C   UNL     1       1.345   7.188  20.928  0.00  0.00    +0.000 A 
ATOM      9  C   UNL     1       0.935   8.543  20.934  0.00  0.00    +0.000 A 
ATOM     10  C   UNL     1       1.110   9.364  19.806  0.00  0.00    +0.000 A 
ATOM     11  C   UNL     1       1.798   8.796  18.722  0.00  0.00    +0.000 A 
ATOM     12  C   UNL     1       2.232   7.481  18.732  0.00  0.00    +0.000 A 
BRANCH  10  13
ATOM     13  C   UNL     1       0.702  10.840  19.726  0.00  0.00    +0.000 C 
BRANCH  13  14
ATOM     14  C   UNL     1      -0.739  11.144  20.277  0.00  0.00    +0.000 C 
ATOM     15  C   UNL     1      -0.773  11.475  21.776  0.00  0.00    +0.000 C 
ATOM     16  C   UNL     1      -0.416  12.922  22.092  0.00  0.00    +0.000 C 
ATOM     17  C   UNL     1      -1.194  13.938  21.263  0.00  0.00    +0.000 C 
ATOM     18  C   UNL     1      -1.265  13.613  19.775  0.00  0.00    +0.000 C 
ATOM     19  C   UNL     1      -1.582  12.157  19.488  0.00  0.00    +0.000 C 
ENDBRANCH  13  14
BRANCH  13  20
ATOM     20  O   UNL     1       0.731  11.176  18.334  0.00  0.00    +0.000 OA
ATOM     21  H   UNL     1       1.537  11.702  18.182  0.00  0.00    +0.000 HD
ENDBRANCH  13  20
ENDBRANCH  10  13
ENDBRANCH   6   7
BRANCH   1  22
ATOM     22  C   UNL     1       2.221   3.936  17.457  0.00  0.00    +0.000 C 
BRANCH  22  24
ATOM     23  C   UNL     1       4.723   4.401  17.517  0.00  0.00    +0.000 C 
ATOM     24  C   UNL     1       3.662   3.611  17.739  0.00  0.00    +0.000 C 
BRANCH  23  25
ATOM     25  C   UNL     1       4.693   5.755  16.871  0.00  0.00    +0.000 C 
BRANCH  25  26
ATOM     26  C   UNL     1       6.074   6.229  16.426  0.00  0.00    +0.000 C 
BRANCH  26  27
ATOM     27  C   UNL     1       7.042   5.081  16.138  0.00  0.00    +0.000 C 
BRANCH  27  28
ATOM     28  C   UNL     1       7.163   4.853  14.653  0.00  0.00    +0.000 C 
ATOM     29  O   UNL     1       7.822   5.539  13.884  0.00  0.00    +0.000 OA
BRANCH  28  31
ATOM     30  C   UNL     1       6.223   3.662  12.885  0.00  0.00    +0.000 C 
ATOM     31  O   UNL     1       6.432   3.761  14.294  0.00  0.00    +0.000 OA
ENDBRANCH  28  31
ENDBRANCH  27  28
ENDBRANCH  26  27
ENDBRANCH  25  26
ENDBRANCH  23  25
ENDBRANCH  22  24
ENDBRANCH   1  22
TORSDOF 11
ENDMDL
MODEL 8
REMARK VINA RESULT:      -7.7      1.763      2.437
REMARK  Name = 
REMARK  12 active torsions:
REMARK  status: ('A' for Active; 'I' for Inactive)
REMARK    1  A    between atoms: C_1  and  O_2
REMARK    2  A    between atoms: O_2  and  C_3
REMARK    3  A    between atoms: C_3  and  C_5
REMARK    4  A    between atoms: C_5  and  C_6
REMARK    5  A    between atoms: C_6  and  C_7
REMARK    6  A    between atoms: C_7  and  C_8
REMARK    7  A    between atoms: C_9  and  C_10
REMARK    8  A    between atoms: C_10  and  C_11
REMARK    9  A    between atoms: C_16  and  C_17
REMARK   10  A    between atoms: C_20  and  C_21
REMARK   11  A    between atoms: C_21  and  O_22
REMARK   12  A    between atoms: C_21  and  C_23
REMARK                            x       y       z     vdW  Elec       q    Type
REMARK                         _______ _______ _______ _____ _____    ______ ____
ROOT
ATOM      1  C   UNL     1       2.918   4.045  18.535  0.00  0.00    +0.000 C 
ATOM      2  C   UNL     1       1.952   2.888  18.414  0.00  0.00    +0.000 C 
ATOM      3  O   UNL     1       1.848   2.177  17.419  0.00  0.00    +0.000 OA
ATOM      4  C   UNL     1       1.133   2.653  19.639  0.00  0.00    +0.000 C 
ATOM      5  C   UNL     1       1.378   3.877  20.499  0.00  0.00    +0.000 C 
ATOM      6  C   UNL     1       2.573   4.674  19.909  0.00  0.00    +0.000 C 
ENDROOT
BRANCH   6   7
ATOM      7  C   UNL     1       2.250   6.152  19.771  0.00  0.00    +0.000 A 
ATOM      8  C   UNL     1       1.699   6.949  20.787  0.00  0.00    +0.000 A 
ATOM      9  C   UNL     1       1.367   8.304  20.546  0.00  0.00    +0.000 A 
ATOM     10  C   UNL     1       1.555   8.887  19.281  0.00  0.00    +0.000 A 
ATOM     11  C   UNL     1       2.175   8.086  18.309  0.00  0.00    +0.000 A 
ATOM     12  C   UNL     1       2.533   6.772  18.558  0.00  0.00    +0.000 A 
BRANCH  10  13
ATOM     13  C   UNL     1       1.230  10.346  18.932  0.00  0.00    +0.000 C 
BRANCH  13  14
ATOM     14  C   UNL     1      -0.288  10.726  19.090  0.00  0.00    +0.000 C 
ATOM     15  C   UNL     1      -0.683  11.120  20.520  0.00  0.00    +0.000 C 
ATOM     16  C   UNL     1      -0.350  12.565  20.872  0.00  0.00    +0.000 C 
ATOM     17  C   UNL     1      -0.846  13.574  19.841  0.00  0.00    +0.000 C 
ATOM     18  C   UNL     1      -0.554  13.190  18.395  0.00  0.00    +0.000 C 
ATOM     19  C   UNL     1      -0.856  11.736  18.082  0.00  0.00    +0.000 C 
ENDBRANCH  13  14
BRANCH  13  20
ATOM     20  O   UNL     1       1.593  10.507  17.556  0.00  0.00    +0.000 OA
ATOM     21  H   UNL     1       2.440  10.987  17.537  0.00  0.00    +0.000 HD
ENDBRANCH  13  20
ENDBRANCH  10  13
ENDBRANCH   6   7
BRANCH   1  22
ATOM     22  C   UNL     1       4.372   3.566  18.501  0.00  0.00    +0.000 C 
BRANCH  22  24
ATOM     23  C   UNL     1       6.140   5.363  18.863  0.00  0.00    +0.000 C 
ATOM     24  C   UNL     1       5.306   4.417  19.319  0.00  0.00    +0.000 C 
BRANCH  23  25
ATOM     25  C   UNL     1       6.361   5.721  17.423  0.00  0.00    +0.000 C 
BRANCH  25  26
ATOM     26  C   UNL     1       7.146   4.654  16.662  0.00  0.00    +0.000 C 
BRANCH  26  27
ATOM     27  C   UNL     1       7.328   4.980  15.180  0.00  0.00    +0.000 C 
BRANCH  27  28
ATOM     28  C   UNL     1       6.241   4.332  14.360  0.00  0.00    +0.000 C 
ATOM     29  O   UNL     1       5.111   4.083  14.755  0.00  0.00    +0.000 OA
BRANCH  28  31
ATOM     30  C   UNL     1       5.800   3.294  12.322  0.00  0.00    +0.000 C 
ATOM     31  O   UNL     1       6.706   4.070  13.106  0.00  0.00    +0.000 OA
ENDBRANCH  28  31
ENDBRANCH  27  28
ENDBRANCH  26  27
ENDBRANCH  25  26
ENDBRANCH  23  25
ENDBRANCH  22  24
ENDBRANCH   1  22
TORSDOF 11
ENDMDL
MODEL 9
REMARK VINA RESULT:      -7.7      1.651      2.369
REMARK  Name = 
REMARK  12 active torsions:
REMARK  status: ('A' for Active; 'I' for Inactive)
REMARK    1  A    between atoms: C_1  and  O_2
REMARK    2  A    between atoms: O_2  and  C_3
REMARK    3  A    between atoms: C_3  and  C_5
REMARK    4  A    between atoms: C_5  and  C_6
REMARK    5  A    between atoms: C_6  and  C_7
REMARK    6  A    between atoms: C_7  and  C_8
REMARK    7  A    between atoms: C_9  and  C_10
REMARK    8  A    between atoms: C_10  and  C_11
REMARK    9  A    between atoms: C_16  and  C_17
REMARK   10  A    between atoms: C_20  and  C_21
REMARK   11  A    between atoms: C_21  and  O_22
REMARK   12  A    between atoms: C_21  and  C_23
REMARK                            x       y       z     vdW  Elec       q    Type
REMARK                         _______ _______ _______ _____ _____    ______ ____
ROOT
ATOM      1  C   UNL     1       2.659   4.094  18.509  0.00  0.00    +0.000 C 
ATOM      2  C   UNL     1       1.715   2.933  18.729  0.00  0.00    +0.000 C 
ATOM      3  O   UNL     1       1.434   2.100  17.873  0.00  0.00    +0.000 OA
ATOM      4  C   UNL     1       1.157   2.861  20.112  0.00  0.00    +0.000 C 
ATOM      5  C   UNL     1       1.537   4.185  20.743  0.00  0.00    +0.000 C 
ATOM      6  C   UNL     1       2.575   4.897  19.833  0.00  0.00    +0.000 C 
ENDROOT
BRANCH   6   7
ATOM      7  C   UNL     1       2.197   6.345  19.575  0.00  0.00    +0.000 A 
ATOM      8  C   UNL     1       2.398   7.020  18.360  0.00  0.00    +0.000 A 
ATOM      9  C   UNL     1       2.075   8.392  18.232  0.00  0.00    +0.000 A 
ATOM     10  C   UNL     1       1.567   9.127  19.317  0.00  0.00    +0.000 A 
ATOM     11  C   UNL     1       1.309   8.406  20.493  0.00  0.00    +0.000 A 
ATOM     12  C   UNL     1       1.590   7.055  20.606  0.00  0.00    +0.000 A 
BRANCH  10  13
ATOM     13  C   UNL     1       1.185  10.612  19.266  0.00  0.00    +0.000 C 
BRANCH  13  14
ATOM     14  C   UNL     1      -0.257  10.928  19.810  0.00  0.00    +0.000 C 
ATOM     15  C   UNL     1      -0.264  11.702  21.135  0.00  0.00    +0.000 C 
ATOM     16  C   UNL     1      -0.067  13.205  20.969  0.00  0.00    +0.000 C 
ATOM     17  C   UNL     1      -0.996  13.830  19.933  0.00  0.00    +0.000 C 
ATOM     18  C   UNL     1      -1.092  13.054  18.624  0.00  0.00    +0.000 C 
ATOM     19  C   UNL     1      -1.247  11.557  18.819  0.00  0.00    +0.000 C 
ENDBRANCH  13  14
BRANCH  13  20
ATOM     20  O   UNL     1       1.234  10.980  17.883  0.00  0.00    +0.000 OA
ATOM     21  H   UNL     1       0.936  11.904  17.821  0.00  0.00    +0.000 HD
ENDBRANCH  13  20
ENDBRANCH  10  13
ENDBRANCH   6   7
BRANCH   1  22
ATOM     22  C   UNL     1       4.089   3.612  18.252  0.00  0.00    +0.000 C 
BRANCH  22  24
ATOM     23  C   UNL     1       5.812   5.347  18.960  0.00  0.00    +0.000 C 
ATOM     24  C   UNL     1       5.108   4.225  19.172  0.00  0.00    +0.000 C 
BRANCH  23  25
ATOM     25  C   UNL     1       5.774   6.188  17.718  0.00  0.00    +0.000 C 
BRANCH  25  26
ATOM     26  C   UNL     1       6.601   5.596  16.578  0.00  0.00    +0.000 C 
BRANCH  26  27
ATOM     27  C   UNL     1       5.791   5.360  15.304  0.00  0.00    +0.000 C 
BRANCH  27  28
ATOM     28  C   UNL     1       6.637   4.676  14.260  0.00  0.00    +0.000 C 
ATOM     29  O   UNL     1       6.324   3.663  13.650  0.00  0.00    +0.000 OA
BRANCH  28  31
ATOM     30  C   UNL     1       8.138   5.571  12.721  0.00  0.00    +0.000 C 
ATOM     31  O   UNL     1       7.803   5.360  14.092  0.00  0.00    +0.000 OA
ENDBRANCH  28  31
ENDBRANCH  27  28
ENDBRANCH  26  27
ENDBRANCH  25  26
ENDBRANCH  23  25
ENDBRANCH  22  24
ENDBRANCH   1  22
TORSDOF 11
ENDMDL
