MODEL 1
REMARK VINA RESULT:      -5.9      0.000      0.000
REMARK  Name = 
REMARK  11 active torsions:
REMARK  status: ('A' for Active; 'I' for Inactive)
REMARK    1  A    between atoms: C_1  and  C_2
REMARK    2  A    between atoms: C_2  and  C_3
REMARK    3  A    between atoms: C_4  and  C_5
REMARK    4  A    between atoms: C_5  and  C_6
REMARK    5  A    between atoms: C_7  and  C_8
REMARK    6  A    between atoms: C_8  and  C_9
REMARK    7  A    between atoms: C_10  and  C_11
REMARK    8  A    between atoms: C_11  and  C_12
REMARK    9  A    between atoms: C_12  and  C_13
REMARK   10  A    between atoms: C_13  and  C_14
REMARK   11  A    between atoms: C_14  and  C_15
REMARK                            x       y       z     vdW  Elec       q    Type
REMARK                         _______ _______ _______ _____ _____    ______ ____
ROOT
ATOM      1  C   UNL     1       3.024   6.004  18.072  0.00  0.00    +0.000 C 
ENDROOT
BRANCH   1   3
ATOM      2  C   UNL     1       1.999   5.760  20.356  0.00  0.00    +0.000 C 
ATOM      3  C   UNL     1       2.330   6.519  19.298  0.00  0.00    +0.000 C 
BRANCH   2   4
ATOM      4  C   UNL     1       2.335   4.307  20.498  0.00  0.00    +0.000 C 
BRANCH   4   6
ATOM      5  C   UNL     1       1.053   2.680  19.074  0.00  0.00    +0.000 C 
ATOM      6  C   UNL     1       1.166   3.420  20.186  0.00  0.00    +0.000 C 
BRANCH   5   8
ATOM      7  C   UNL     1       3.236   1.673  18.373  0.00  0.00    +0.000 C 
ATOM      8  C   UNL     1       2.083   2.581  17.982  0.00  0.00    +0.000 C 
ENDBRANCH   5   8
ENDBRANCH   4   6
ENDBRANCH   2   4
ENDBRANCH   1   3
BRANCH   1   9
ATOM      9  C   UNL     1       3.887   7.055  17.440  0.00  0.00    +0.000 C 
ATOM     10  C   UNL     1       4.878   6.813  16.568  0.00  0.00    +0.000 C 
BRANCH  10  11
ATOM     11  C   UNL     1       5.327   5.443  16.135  0.00  0.00    +0.000 C 
BRANCH  11  12
ATOM     12  C   UNL     1       6.681   5.044  16.723  0.00  0.00    +0.000 C 
BRANCH  12  13
ATOM     13  C   UNL     1       6.600   4.692  18.205  0.00  0.00    +0.000 C 
BRANCH  13  14
ATOM     14  C   UNL     1       7.432   5.620  19.067  0.00  0.00    +0.000 C 
ATOM     15  C   UNL     1       7.936   6.876  18.408  0.00  0.00    +0.000 C 
ATOM     16  O   UNL     1       7.696   5.381  20.246  0.00  0.00    +0.000 OA
ENDBRANCH  13  14
ENDBRANCH  12  13
ENDBRANCH  11  12
ENDBRANCH  10  11
ENDBRANCH   1   9
TORSDOF 9
ENDMDL
MODEL 2
REMARK VINA RESULT:      -5.8      3.803      6.696
REMARK  Name = 
REMARK  11 active torsions:
REMARK  status: ('A' for Active; 'I' for Inactive)
REMARK    1  A    between atoms: C_1  and  C_2
REMARK    2  A    between atoms: C_2  and  C_3
REMARK    3  A    between atoms: C_4  and  C_5
REMARK    4  A    between atoms: C_5  and  C_6
REMARK    5  A    between atoms: C_7  and  C_8
REMARK    6  A    between atoms: C_8  and  C_9
REMARK    7  A    between atoms: C_10  and  C_11
REMARK    8  A    between atoms: C_11  and  C_12
REMARK    9  A    between atoms: C_12  and  C_13
REMARK   10  A    between atoms: C_13  and  C_14
REMARK   11  A    between atoms: C_14  and  C_15
REMARK                            x       y       z     vdW  Elec       q    Type
REMARK                         _______ _______ _______ _____ _____    ______ ____
ROOT
ATOM      1  C   UNL     1       5.068   5.065  16.199  0.00  0.00    +0.000 C 
ENDROOT
BRANCH   1   3
ATOM      2  C   UNL     1       6.530   4.505  14.231  0.00  0.00    +0.000 C 
ATOM      3  C   UNL     1       6.382   4.969  15.483  0.00  0.00    +0.000 C 
BRANCH   2   4
ATOM      4  C   UNL     1       5.401   4.083  13.341  0.00  0.00    +0.000 C 
BRANCH   4   6
ATOM      5  C   UNL     1       5.056   2.699  11.272  0.00  0.00    +0.000 C 
ATOM      6  C   UNL     1       5.858   3.184  12.231  0.00  0.00    +0.000 C 
BRANCH   5   8
ATOM      7  C   UNL     1       3.325   3.949   9.966  0.00  0.00    +0.000 C 
ATOM      8  C   UNL     1       3.590   3.001  11.122  0.00  0.00    +0.000 C 
ENDBRANCH   5   8
ENDBRANCH   4   6
ENDBRANCH   2   4
ENDBRANCH   1   3
BRANCH   1   9
ATOM      9  C   UNL     1       4.733   3.792  16.917  0.00  0.00    +0.000 C 
ATOM     10  C   UNL     1       4.276   3.718  18.177  0.00  0.00    +0.000 C 
BRANCH  10  11
ATOM     11  C   UNL     1       4.090   4.896  19.094  0.00  0.00    +0.000 C 
BRANCH  11  12
ATOM     12  C   UNL     1       2.721   4.912  19.776  0.00  0.00    +0.000 C 
BRANCH  12  13
ATOM     13  C   UNL     1       1.625   4.296  18.913  0.00  0.00    +0.000 C 
BRANCH  13  14
ATOM     14  C   UNL     1       0.973   3.097  19.574  0.00  0.00    +0.000 C 
ATOM     15  C   UNL     1       1.210   2.934  21.051  0.00  0.00    +0.000 C 
ATOM     16  O   UNL     1       0.283   2.286  18.956  0.00  0.00    +0.000 OA
ENDBRANCH  13  14
ENDBRANCH  12  13
ENDBRANCH  11  12
ENDBRANCH  10  11
ENDBRANCH   1   9
TORSDOF 9
ENDMDL
MODEL 3
REMARK VINA RESULT:      -5.8      3.281      6.485
REMARK  Name = 
REMARK  11 active torsions:
REMARK  status: ('A' for Active; 'I' for Inactive)
REMARK    1  A    between atoms: C_1  and  C_2
REMARK    2  A    between atoms: C_2  and  C_3
REMARK    3  A    between atoms: C_4  and  C_5
REMARK    4  A    between atoms: C_5  and  C_6
REMARK    5  A    between atoms: C_7  and  C_8
REMARK    6  A    between atoms: C_8  and  C_9
REMARK    7  A    between atoms: C_10  and  C_11
REMARK    8  A    between atoms: C_11  and  C_12
REMARK    9  A    between atoms: C_12  and  C_13
REMARK   10  A    between atoms: C_13  and  C_14
REMARK   11  A    between atoms: C_14  and  C_15
REMARK                            x       y       z     vdW  Elec       q    Type
REMARK                         _______ _______ _______ _____ _____    ______ ____
ROOT
ATOM      1  C   UNL     1       4.809   3.530  16.928  0.00  0.00    +0.000 C 
ENDROOT
BRANCH   1   3
ATOM      2  C   UNL     1       6.361   4.712  15.342  0.00  0.00    +0.000 C 
ATOM      3  C   UNL     1       5.955   4.438  16.592  0.00  0.00    +0.000 C 
BRANCH   2   4
ATOM      4  C   UNL     1       5.688   4.213  14.100  0.00  0.00    +0.000 C 
BRANCH   4   6
ATOM      5  C   UNL     1       6.418   3.230  11.904  0.00  0.00    +0.000 C 
ATOM      6  C   UNL     1       6.656   4.004  12.973  0.00  0.00    +0.000 C 
BRANCH   5   8
ATOM      7  C   UNL     1       4.106   3.357  10.952  0.00  0.00    +0.000 C 
ATOM      8  C   UNL     1       5.141   2.481  11.635  0.00  0.00    +0.000 C 
ENDBRANCH   5   8
ENDBRANCH   4   6
ENDBRANCH   2   4
ENDBRANCH   1   3
BRANCH   1   9
ATOM      9  C   UNL     1       3.532   4.295  17.109  0.00  0.00    +0.000 C 
ATOM     10  C   UNL     1       2.388   3.779  17.589  0.00  0.00    +0.000 C 
BRANCH  10  11
ATOM     11  C   UNL     1       2.186   2.335  17.958  0.00  0.00    +0.000 C 
BRANCH  11  12
ATOM     12  C   UNL     1       1.043   2.127  18.953  0.00  0.00    +0.000 C 
BRANCH  12  13
ATOM     13  C   UNL     1       0.738   3.378  19.771  0.00  0.00    +0.000 C 
BRANCH  13  14
ATOM     14  C   UNL     1       1.510   3.420  21.075  0.00  0.00    +0.000 C 
ATOM     15  C   UNL     1       2.531   4.517  21.215  0.00  0.00    +0.000 C 
ATOM     16  O   UNL     1       1.330   2.611  21.985  0.00  0.00    +0.000 OA
ENDBRANCH  13  14
ENDBRANCH  12  13
ENDBRANCH  11  12
ENDBRANCH  10  11
ENDBRANCH   1   9
TORSDOF 9
ENDMDL
MODEL 4
REMARK VINA RESULT:      -5.8      1.995      3.384
REMARK  Name = 
REMARK  11 active torsions:
REMARK  status: ('A' for Active; 'I' for Inactive)
REMARK    1  A    between atoms: C_1  and  C_2
REMARK    2  A    between atoms: C_2  and  C_3
REMARK    3  A    between atoms: C_4  and  C_5
REMARK    4  A    between atoms: C_5  and  C_6
REMARK    5  A    between atoms: C_7  and  C_8
REMARK    6  A    between atoms: C_8  and  C_9
REMARK    7  A    between atoms: C_10  and  C_11
REMARK    8  A    between atoms: C_11  and  C_12
REMARK    9  A    between atoms: C_12  and  C_13
REMARK   10  A    between atoms: C_13  and  C_14
REMARK   11  A    between atoms: C_14  and  C_15
REMARK                            x       y       z     vdW  Elec       q    Type
REMARK                         _______ _______ _______ _____ _____    ______ ____
ROOT
ATOM      1  C   UNL     1       4.510   3.628  18.981  0.00  0.00    +0.000 C 
ENDROOT
BRANCH   1   3
ATOM      2  C   UNL     1       2.834   2.405  17.560  0.00  0.00    +0.000 C 
ATOM      3  C   UNL     1       3.919   3.188  17.674  0.00  0.00    +0.000 C 
BRANCH   2   4
ATOM      4  C   UNL     1       2.014   1.914  18.714  0.00  0.00    +0.000 C 
BRANCH   4   6
ATOM      5  C   UNL     1       0.653   3.574  20.021  0.00  0.00    +0.000 C 
ATOM      6  C   UNL     1       0.807   2.769  18.959  0.00  0.00    +0.000 C 
BRANCH   5   8
ATOM      7  C   UNL     1       1.788   2.570  22.013  0.00  0.00    +0.000 C 
ATOM      8  C   UNL     1       1.667   3.786  21.112  0.00  0.00    +0.000 C 
ENDBRANCH   5   8
ENDBRANCH   4   6
ENDBRANCH   2   4
ENDBRANCH   1   3
BRANCH   1   9
ATOM      9  C   UNL     1       4.422   5.114  19.157  0.00  0.00    +0.000 C 
ATOM     10  C   UNL     1       5.472   5.951  19.168  0.00  0.00    +0.000 C 
BRANCH  10  11
ATOM     11  C   UNL     1       6.912   5.524  19.072  0.00  0.00    +0.000 C 
BRANCH  11  12
ATOM     12  C   UNL     1       7.516   5.767  17.688  0.00  0.00    +0.000 C 
BRANCH  12  13
ATOM     13  C   UNL     1       7.224   4.633  16.709  0.00  0.00    +0.000 C 
BRANCH  13  14
ATOM     14  C   UNL     1       6.332   5.071  15.565  0.00  0.00    +0.000 C 
ATOM     15  C   UNL     1       6.090   4.058  14.478  0.00  0.00    +0.000 C 
ATOM     16  O   UNL     1       5.822   6.190  15.504  0.00  0.00    +0.000 OA
ENDBRANCH  13  14
ENDBRANCH  12  13
ENDBRANCH  11  12
ENDBRANCH  10  11
ENDBRANCH   1   9
TORSDOF 9
ENDMDL
MODEL 5
REMARK VINA RESULT:      -5.6      2.260      3.340
REMARK  Name = 
REMARK  11 active torsions:
REMARK  status: ('A' for Active; 'I' for Inactive)
REMARK    1  A    between atoms: C_1  and  C_2
REMARK    2  A    between atoms: C_2  and  C_3
REMARK    3  A    between atoms: C_4  and  C_5
REMARK    4  A    between atoms: C_5  and  C_6
REMARK    5  A    between atoms: C_7  and  C_8
REMARK    6  A    between atoms: C_8  and  C_9
REMARK    7  A    between atoms: C_10  and  C_11
REMARK    8  A    between atoms: C_11  and  C_12
REMARK    9  A    between atoms: C_12  and  C_13
REMARK   10  A    between atoms: C_13  and  C_14
REMARK   11  A    between atoms: C_14  and  C_15
REMARK                            x       y       z     vdW  Elec       q    Type
REMARK                         _______ _______ _______ _____ _____    ______ ____
ROOT
ATOM      1  C   UNL     1       3.980   5.090  18.964  0.00  0.00    +0.000 C 
ENDROOT
BRANCH   1   3
ATOM      2  C   UNL     1       2.465   4.151  17.190  0.00  0.00    +0.000 C 
ATOM      3  C   UNL     1       3.646   4.670  17.563  0.00  0.00    +0.000 C 
BRANCH   2   4
ATOM      4  C   UNL     1       1.285   3.982  18.099  0.00  0.00    +0.000 C 
BRANCH   4   6
ATOM      5  C   UNL     1       1.068   2.128  19.783  0.00  0.00    +0.000 C 
ATOM      6  C   UNL     1       1.086   2.553  18.511  0.00  0.00    +0.000 C 
BRANCH   5   8
ATOM      7  C   UNL     1       2.585   2.901  21.618  0.00  0.00    +0.000 C 
ATOM      8  C   UNL     1       1.202   3.004  20.999  0.00  0.00    +0.000 C 
ENDBRANCH   5   8
ENDBRANCH   4   6
ENDBRANCH   2   4
ENDBRANCH   1   3
BRANCH   1   9
ATOM      9  C   UNL     1       5.349   4.630  19.369  0.00  0.00    +0.000 C 
ATOM     10  C   UNL     1       6.492   5.274  19.083  0.00  0.00    +0.000 C 
BRANCH  10  11
ATOM     11  C   UNL     1       6.589   6.525  18.254  0.00  0.00    +0.000 C 
BRANCH  11  12
ATOM     12  C   UNL     1       7.286   6.301  16.912  0.00  0.00    +0.000 C 
BRANCH  12  13
ATOM     13  C   UNL     1       7.098   4.883  16.379  0.00  0.00    +0.000 C 
BRANCH  13  14
ATOM     14  C   UNL     1       6.992   4.842  14.867  0.00  0.00    +0.000 C 
ATOM     15  C   UNL     1       5.854   4.039  14.297  0.00  0.00    +0.000 C 
ATOM     16  O   UNL     1       7.782   5.425  14.125  0.00  0.00    +0.000 OA
ENDBRANCH  13  14
ENDBRANCH  12  13
ENDBRANCH  11  12
ENDBRANCH  10  11
ENDBRANCH   1   9
TORSDOF 9
ENDMDL
MODEL 6
REMARK VINA RESULT:      -5.6      1.976      5.777
REMARK  Name = 
REMARK  11 active torsions:
REMARK  status: ('A' for Active; 'I' for Inactive)
REMARK    1  A    between atoms: C_1  and  C_2
REMARK    2  A    between atoms: C_2  and  C_3
REMARK    3  A    between atoms: C_4  and  C_5
REMARK    4  A    between atoms: C_5  and  C_6
REMARK    5  A    between atoms: C_7  and  C_8
REMARK    6  A    between atoms: C_8  and  C_9
REMARK    7  A    between atoms: C_10  and  C_11
REMARK    8  A    between atoms: C_11  and  C_12
REMARK    9  A    between atoms: C_12  and  C_13
REMARK   10  A    between atoms: C_13  and  C_14
REMARK   11  A    between atoms: C_14  and  C_15
REMARK                            x       y       z     vdW  Elec       q    Type
REMARK                         _______ _______ _______ _____ _____    ______ ____
ROOT
ATOM      1  C   UNL     1       4.340   3.703  17.361  0.00  0.00    +0.000 C 
ENDROOT
BRANCH   1   3
ATOM      2  C   UNL     1       5.382   5.191  15.622  0.00  0.00    +0.000 C 
ATOM      3  C   UNL     1       5.005   3.973  16.043  0.00  0.00    +0.000 C 
BRANCH   2   4
ATOM      4  C   UNL     1       5.262   6.446  16.430  0.00  0.00    +0.000 C 
BRANCH   4   6
ATOM      5  C   UNL     1       7.325   6.823  17.817  0.00  0.00    +0.000 C 
ATOM      6  C   UNL     1       6.596   7.068  16.718  0.00  0.00    +0.000 C 
BRANCH   5   8
ATOM      7  C   UNL     1       8.179   5.319  19.626  0.00  0.00    +0.000 C 
ATOM      8  C   UNL     1       6.953   5.866  18.916  0.00  0.00    +0.000 C 
ENDBRANCH   5   8
ENDBRANCH   4   6
ENDBRANCH   2   4
ENDBRANCH   1   3
BRANCH   1   9
ATOM      9  C   UNL     1       2.850   3.615  17.223  0.00  0.00    +0.000 C 
ATOM     10  C   UNL     1       1.980   4.532  17.678  0.00  0.00    +0.000 C 
BRANCH  10  11
ATOM     11  C   UNL     1       2.358   5.761  18.458  0.00  0.00    +0.000 C 
BRANCH  11  12
ATOM     12  C   UNL     1       2.523   5.492  19.954  0.00  0.00    +0.000 C 
BRANCH  12  13
ATOM     13  C   UNL     1       1.334   4.749  20.555  0.00  0.00    +0.000 C 
BRANCH  13  14
ATOM     14  C   UNL     1       1.729   3.414  21.156  0.00  0.00    +0.000 C 
ATOM     15  C   UNL     1       1.459   2.194  20.316  0.00  0.00    +0.000 C 
ATOM     16  O   UNL     1       2.242   3.307  22.270  0.00  0.00    +0.000 OA
ENDBRANCH  13  14
ENDBRANCH  12  13
ENDBRANCH  11  12
ENDBRANCH  10  11
ENDBRANCH   1   9
TORSDOF 9
ENDMDL
MODEL 7
REMARK VINA RESULT:      -5.6      3.037      4.210
REMARK  Name = 
REMARK  11 active torsions:
REMARK  status: ('A' for Active; 'I' for Inactive)
REMARK    1  A    between atoms: C_1  and  C_2
REMARK    2  A    between atoms: C_2  and  C_3
REMARK    3  A    between atoms: C_4  and  C_5
REMARK    4  A    between atoms: C_5  and  C_6
REMARK    5  A    between atoms: C_7  and  C_8
REMARK    6  A    between atoms: C_8  and  C_9
REMARK    7  A    between atoms: C_10  and  C_11
REMARK    8  A    between atoms: C_11  and  C_12
REMARK    9  A    between atoms: C_12  and  C_13
REMARK   10  A    between atoms: C_13  and  C_14
REMARK   11  A    between atoms: C_14  and  C_15
REMARK                            x       y       z     vdW  Elec       q    Type
REMARK                         _______ _______ _______ _____ _____    ______ ____
ROOT
ATOM      1  C   UNL     1       6.371   5.422  18.013  0.00  0.00    +0.000 C 
ENDROOT
BRANCH   1   3
ATOM      2  C   UNL     1       4.551   4.330  19.362  0.00  0.00    +0.000 C 
ATOM      3  C   UNL     1       5.649   5.100  19.288  0.00  0.00    +0.000 C 
BRANCH   2   4
ATOM      4  C   UNL     1       3.928   3.622  18.198  0.00  0.00    +0.000 C 
BRANCH   4   6
ATOM      5  C   UNL     1       1.442   3.964  18.053  0.00  0.00    +0.000 C 
ATOM      6  C   UNL     1       2.690   4.313  17.709  0.00  0.00    +0.000 C 
BRANCH   5   8
ATOM      7  C   UNL     1       0.902   3.377  20.426  0.00  0.00    +0.000 C 
ATOM      8  C   UNL     1       1.075   2.861  19.008  0.00  0.00    +0.000 C 
ENDBRANCH   5   8
ENDBRANCH   4   6
ENDBRANCH   2   4
ENDBRANCH   1   3
BRANCH   1   9
ATOM      9  C   UNL     1       5.796   6.632  17.341  0.00  0.00    +0.000 C 
ATOM     10  C   UNL     1       5.210   6.635  16.133  0.00  0.00    +0.000 C 
BRANCH  10  11
ATOM     11  C   UNL     1       5.096   5.437  15.230  0.00  0.00    +0.000 C 
BRANCH  11  12
ATOM     12  C   UNL     1       6.443   4.985  14.663  0.00  0.00    +0.000 C 
BRANCH  12  13
ATOM     13  C   UNL     1       6.374   3.611  14.004  0.00  0.00    +0.000 C 
BRANCH  13  14
ATOM     14  C   UNL     1       6.312   3.696  12.492  0.00  0.00    +0.000 C 
ATOM     15  C   UNL     1       5.058   3.174  11.842  0.00  0.00    +0.000 C 
ATOM     16  O   UNL     1       7.224   4.163  11.810  0.00  0.00    +0.000 OA
ENDBRANCH  13  14
ENDBRANCH  12  13
ENDBRANCH  11  12
ENDBRANCH  10  11
ENDBRANCH   1   9
TORSDOF 9
ENDMDL
MODEL 8
REMARK VINA RESULT:      -5.6      2.103      5.981
REMARK  Name = 
REMARK  11 active torsions:
REMARK  status: ('A' for Active; 'I' for Inactive)
REMARK    1  A    between atoms: C_1  and  C_2
REMARK    2  A    between atoms: C_2  and  C_3
REMARK    3  A    between atoms: C_4  and  C_5
REMARK    4  A    between atoms: C_5  and  C_6
REMARK    5  A    between atoms: C_7  and  C_8
REMARK    6  A    between atoms: C_8  and  C_9
REMARK    7  A    between atoms: C_10  and  C_11
REMARK    8  A    between atoms: C_11  and  C_12
REMARK    9  A    between atoms: C_12  and  C_13
REMARK   10  A    between atoms: C_13  and  C_14
REMARK   11  A    between atoms: C_14  and  C_15
REMARK                            x       y       z     vdW  Elec       q    Type
REMARK                         _______ _______ _______ _____ _____    ______ ____
ROOT
ATOM      1  C   UNL     1       4.518   6.456  16.772  0.00  0.00    +0.000 C 
ENDROOT
BRANCH   1   3
ATOM      2  C   UNL     1       5.740   4.259  16.721  0.00  0.00    +0.000 C 
ATOM      3  C   UNL     1       4.595   4.958  16.766  0.00  0.00    +0.000 C 
BRANCH   2   4
ATOM      4  C   UNL     1       7.109   4.867  16.742  0.00  0.00    +0.000 C 
BRANCH   4   6
ATOM      5  C   UNL     1       7.800   6.560  18.467  0.00  0.00    +0.000 C 
ATOM      6  C   UNL     1       7.520   5.295  18.119  0.00  0.00    +0.000 C 
BRANCH   5   8
ATOM      7  C   UNL     1       8.345   8.987  18.183  0.00  0.00    +0.000 C 
ATOM      8  C   UNL     1       7.710   7.756  17.560  0.00  0.00    +0.000 C 
ENDBRANCH   5   8
ENDBRANCH   4   6
ENDBRANCH   2   4
ENDBRANCH   1   3
BRANCH   1   9
ATOM      9  C   UNL     1       3.389   6.950  17.626  0.00  0.00    +0.000 C 
ATOM     10  C   UNL     1       3.153   6.560  18.889  0.00  0.00    +0.000 C 
BRANCH  10  11
ATOM     11  C   UNL     1       3.944   5.515  19.627  0.00  0.00    +0.000 C 
BRANCH  11  12
ATOM     12  C   UNL     1       3.085   4.347  20.113  0.00  0.00    +0.000 C 
BRANCH  12  13
ATOM     13  C   UNL     1       1.619   4.488  19.715  0.00  0.00    +0.000 C 
BRANCH  13  14
ATOM     14  C   UNL     1       1.258   3.629  18.519  0.00  0.00    +0.000 C 
ATOM     15  C   UNL     1       0.960   2.180  18.799  0.00  0.00    +0.000 C 
ATOM     16  O   UNL     1       1.206   4.069  17.371  0.00  0.00    +0.000 OA
ENDBRANCH  13  14
ENDBRANCH  12  13
ENDBRANCH  11  12
ENDBRANCH  10  11
ENDBRANCH   1   9
TORSDOF 9
ENDMDL
MODEL 9
REMARK VINA RESULT:      -5.6      3.793      6.639
REMARK  Name = 
REMARK  11 active torsions:
REMARK  status: ('A' for Active; 'I' for Inactive)
REMARK    1  A    between atoms: C_1  and  C_2
REMARK    2  A    between atoms: C_2  and  C_3
REMARK    3  A    between atoms: C_4  and  C_5
REMARK    4  A    between atoms: C_5  and  C_6
REMARK    5  A    between atoms: C_7  and  C_8
REMARK    6  A    between atoms: C_8  and  C_9
REMARK    7  A    between atoms: C_10  and  C_11
REMARK    8  A    between atoms: C_11  and  C_12
REMARK    9  A    between atoms: C_12  and  C_13
REMARK   10  A    between atoms: C_13  and  C_14
REMARK   11  A    between atoms: C_14  and  C_15
REMARK                            x       y       z     vdW  Elec       q    Type
REMARK                         _______ _______ _______ _____ _____    ______ ____
ROOT
ATOM      1  C   UNL     1       6.757   4.464  16.363  0.00  0.00    +0.000 C 
ENDROOT
BRANCH   1   3
ATOM      2  C   UNL     1       6.698   4.552  13.851  0.00  0.00    +0.000 C 
ATOM      3  C   UNL     1       7.198   4.975  15.023  0.00  0.00    +0.000 C 
BRANCH   2   4
ATOM      4  C   UNL     1       5.580   3.564  13.709  0.00  0.00    +0.000 C 
BRANCH   4   6
ATOM      5  C   UNL     1       5.048   2.793  11.376  0.00  0.00    +0.000 C 
ATOM      6  C   UNL     1       4.893   3.669  12.380  0.00  0.00    +0.000 C 
BRANCH   5   8
ATOM      7  C   UNL     1       7.320   1.819  10.981  0.00  0.00    +0.000 C 
ATOM      8  C   UNL     1       5.893   1.549  11.425  0.00  0.00    +0.000 C 
ENDBRANCH   5   8
ENDBRANCH   4   6
ENDBRANCH   2   4
ENDBRANCH   1   3
BRANCH   1   9
ATOM      9  C   UNL     1       5.741   5.368  16.994  0.00  0.00    +0.000 C 
ATOM     10  C   UNL     1       4.613   4.955  17.595  0.00  0.00    +0.000 C 
BRANCH  10  11
ATOM     11  C   UNL     1       4.156   3.524  17.674  0.00  0.00    +0.000 C 
BRANCH  11  12
ATOM     12  C   UNL     1       2.760   3.310  17.087  0.00  0.00    +0.000 C 
BRANCH  12  13
ATOM     13  C   UNL     1       1.679   4.080  17.840  0.00  0.00    +0.000 C 
BRANCH  13  14
ATOM     14  C   UNL     1       0.949   3.217  18.850  0.00  0.00    +0.000 C 
ATOM     15  C   UNL     1       1.038   3.649  20.289  0.00  0.00    +0.000 C 
ATOM     16  O   UNL     1       0.312   2.212  18.535  0.00  0.00    +0.000 OA
ENDBRANCH  13  14
ENDBRANCH  12  13
ENDBRANCH  11  12
ENDBRANCH  10  11
ENDBRANCH   1   9
TORSDOF 9
ENDMDL
