MODEL 1
REMARK VINA RESULT:      -6.9      0.000      0.000
REMARK  Name = 
REMARK  0 active torsions:
REMARK  status: ('A' for Active; 'I' for Inactive)
REMARK                            x       y       z     vdW  Elec       q    Type
REMARK                         _______ _______ _______ _____ _____    ______ ____
ROOT
ATOM      1  N   UNL     1       7.526   4.760  15.333  0.00  0.00    +0.000 NA
ATOM      2  C   UNL     1       6.789   4.861  16.389  0.00  0.00    +0.000 C 
ATOM      3  N   UNL     1       7.037   5.811  17.315  0.00  0.00    +0.000 N 
ATOM      4  N   UNL     1       5.799   3.965  16.616  0.00  0.00    +0.000 N 
ATOM      5  C   UNL     1       4.690   3.988  17.393  0.00  0.00    +0.000 A 
ATOM      6  N   UNL     1       3.921   2.935  17.571  0.00  0.00    +0.000 NA
ATOM      7  C   UNL     1       2.902   3.218  18.470  0.00  0.00    +0.000 A 
ATOM      8  C   UNL     1       1.943   2.297  18.946  0.00  0.00    +0.000 A 
ATOM      9  C   UNL     1       0.999   2.705  19.896  0.00  0.00    +0.000 A 
ATOM     10  C   UNL     1       0.987   4.017  20.360  0.00  0.00    +0.000 A 
ATOM     11  C   UNL     1       1.910   4.947  19.878  0.00  0.00    +0.000 A 
ATOM     12 CL   UNL     1       1.867   6.563  20.473  0.00  0.00    +0.000 Cl
ATOM     13  C   UNL     1       2.862   4.529  18.936  0.00  0.00    +0.000 A 
ATOM     14  S   UNL     1       4.116   5.413  18.175  0.00  0.00    +0.000 S 
ATOM     15  H   UNL     1       8.239   5.491  15.357  0.00  0.00    +0.000 HD
ATOM     16  H   UNL     1       7.561   6.626  17.022  0.00  0.00    +0.000 HD
ATOM     17  H   UNL     1       6.284   6.036  17.949  0.00  0.00    +0.000 HD
ATOM     18  H   UNL     1       5.864   3.168  15.995  0.00  0.00    +0.000 HD
ENDROOT
TORSDOF 0
ENDMDL
MODEL 2
REMARK VINA RESULT:      -6.7      2.628      5.422
REMARK  Name = 
REMARK  0 active torsions:
REMARK  status: ('A' for Active; 'I' for Inactive)
REMARK                            x       y       z     vdW  Elec       q    Type
REMARK                         _______ _______ _______ _____ _____    ______ ____
ROOT
ATOM      1  N   UNL     1       0.721   3.272  20.710  0.00  0.00    +0.000 NA
ATOM      2  C   UNL     1       1.696   3.974  20.234  0.00  0.00    +0.000 C 
ATOM      3  N   UNL     1       2.202   5.013  20.929  0.00  0.00    +0.000 N 
ATOM      4  N   UNL     1       2.174   3.718  18.993  0.00  0.00    +0.000 N 
ATOM      5  C   UNL     1       3.341   4.014  18.372  0.00  0.00    +0.000 A 
ATOM      6  N   UNL     1       3.547   3.782  17.092  0.00  0.00    +0.000 NA
ATOM      7  C   UNL     1       4.795   4.250  16.705  0.00  0.00    +0.000 A 
ATOM      8  C   UNL     1       5.310   4.233  15.390  0.00  0.00    +0.000 A 
ATOM      9  C   UNL     1       6.568   4.788  15.128  0.00  0.00    +0.000 A 
ATOM     10  C   UNL     1       7.324   5.340  16.159  0.00  0.00    +0.000 A 
ATOM     11  C   UNL     1       6.841   5.339  17.469  0.00  0.00    +0.000 A 
ATOM     12 CL   UNL     1       7.802   6.030  18.721  0.00  0.00    +0.000 Cl
ATOM     13  C   UNL     1       5.574   4.793  17.723  0.00  0.00    +0.000 A 
ATOM     14  S   UNL     1       4.712   4.656  19.196  0.00  0.00    +0.000 S 
ATOM     15  H   UNL     1       0.472   3.637  21.631  0.00  0.00    +0.000 HD
ATOM     16  H   UNL     1       2.056   5.024  21.930  0.00  0.00    +0.000 HD
ATOM     17  H   UNL     1       3.123   5.333  20.664  0.00  0.00    +0.000 HD
ATOM     18  H   UNL     1       1.568   3.093  18.477  0.00  0.00    +0.000 HD
ENDROOT
TORSDOF 0
ENDMDL
MODEL 3
REMARK VINA RESULT:      -6.6      3.092      5.707
REMARK  Name = 
REMARK  0 active torsions:
REMARK  status: ('A' for Active; 'I' for Inactive)
REMARK                            x       y       z     vdW  Elec       q    Type
REMARK                         _______ _______ _______ _____ _____    ______ ____
ROOT
ATOM      1  N   UNL     1       0.087   2.751  19.852  0.00  0.00    +0.000 NA
ATOM      2  C   UNL     1       1.239   2.684  19.272  0.00  0.00    +0.000 C 
ATOM      3  N   UNL     1       1.494   1.729  18.353  0.00  0.00    +0.000 N 
ATOM      4  N   UNL     1       2.233   3.529  19.634  0.00  0.00    +0.000 N 
ATOM      5  C   UNL     1       3.373   3.933  19.024  0.00  0.00    +0.000 A 
ATOM      6  N   UNL     1       4.281   4.671  19.626  0.00  0.00    +0.000 NA
ATOM      7  C   UNL     1       5.377   4.873  18.797  0.00  0.00    +0.000 A 
ATOM      8  C   UNL     1       6.562   5.555  19.148  0.00  0.00    +0.000 A 
ATOM      9  C   UNL     1       7.615   5.640  18.229  0.00  0.00    +0.000 A 
ATOM     10  C   UNL     1       7.493   5.072  16.964  0.00  0.00    +0.000 A 
ATOM     11  C   UNL     1       6.317   4.419  16.591  0.00  0.00    +0.000 A 
ATOM     12 CL   UNL     1       6.199   3.728  15.017  0.00  0.00    +0.000 Cl
ATOM     13  C   UNL     1       5.270   4.327  17.521  0.00  0.00    +0.000 A 
ATOM     14  S   UNL     1       3.731   3.590  17.373  0.00  0.00    +0.000 S 
ATOM     15  H   UNL     1      -0.513   2.013  19.480  0.00  0.00    +0.000 HD
ATOM     16  H   UNL     1       0.704   1.303  17.887  0.00  0.00    +0.000 HD
ATOM     17  H   UNL     1       2.274   1.891  17.732  0.00  0.00    +0.000 HD
ATOM     18  H   UNL     1       2.011   4.028  20.487  0.00  0.00    +0.000 HD
ENDROOT
TORSDOF 0
ENDMDL
MODEL 4
REMARK VINA RESULT:      -6.6      1.312      1.312
REMARK  Name = 
REMARK  0 active torsions:
REMARK  status: ('A' for Active; 'I' for Inactive)
REMARK                            x       y       z     vdW  Elec       q    Type
REMARK                         _______ _______ _______ _____ _____    ______ ____
ROOT
ATOM      1  N   UNL     1       7.561   5.568  15.419  0.00  0.00    +0.000 NA
ATOM      2  C   UNL     1       6.854   5.726  16.488  0.00  0.00    +0.000 C 
ATOM      3  N   UNL     1       6.662   6.954  17.013  0.00  0.00    +0.000 N 
ATOM      4  N   UNL     1       6.357   4.648  17.140  0.00  0.00    +0.000 N 
ATOM      5  C   UNL     1       5.350   4.488  18.031  0.00  0.00    +0.000 A 
ATOM      6  N   UNL     1       5.121   3.351  18.653  0.00  0.00    +0.000 NA
ATOM      7  C   UNL     1       4.081   3.490  19.562  0.00  0.00    +0.000 A 
ATOM      8  C   UNL     1       3.622   2.492  20.449  0.00  0.00    +0.000 A 
ATOM      9  C   UNL     1       2.595   2.784  21.354  0.00  0.00    +0.000 A 
ATOM     10  C   UNL     1       2.009   4.047  21.372  0.00  0.00    +0.000 A 
ATOM     11  C   UNL     1       2.432   5.036  20.482  0.00  0.00    +0.000 A 
ATOM     12 CL   UNL     1       1.686   6.588  20.531  0.00  0.00    +0.000 Cl
ATOM     13  C   UNL     1       3.470   4.741  19.586  0.00  0.00    +0.000 A 
ATOM     14  S   UNL     1       4.210   5.728  18.398  0.00  0.00    +0.000 S 
ATOM     15  H   UNL     1       7.881   6.484  15.098  0.00  0.00    +0.000 HD
ATOM     16  H   UNL     1       6.776   7.750  16.399  0.00  0.00    +0.000 HD
ATOM     17  H   UNL     1       5.886   7.059  17.652  0.00  0.00    +0.000 HD
ATOM     18  H   UNL     1       6.764   3.784  16.803  0.00  0.00    +0.000 HD
ENDROOT
TORSDOF 0
ENDMDL
MODEL 5
REMARK VINA RESULT:      -6.6      1.212      1.213
REMARK  Name = 
REMARK  0 active torsions:
REMARK  status: ('A' for Active; 'I' for Inactive)
REMARK                            x       y       z     vdW  Elec       q    Type
REMARK                         _______ _______ _______ _____ _____    ______ ____
ROOT
ATOM      1  N   UNL     1       8.346   4.463  17.368  0.00  0.00    +0.000 NA
ATOM      2  C   UNL     1       7.367   4.645  18.191  0.00  0.00    +0.000 C 
ATOM      3  N   UNL     1       7.434   5.597  19.144  0.00  0.00    +0.000 N 
ATOM      4  N   UNL     1       6.287   3.828  18.155  0.00  0.00    +0.000 N 
ATOM      5  C   UNL     1       5.018   3.950  18.610  0.00  0.00    +0.000 A 
ATOM      6  N   UNL     1       4.152   2.959  18.586  0.00  0.00    +0.000 NA
ATOM      7  C   UNL     1       2.957   3.338  19.183  0.00  0.00    +0.000 A 
ATOM      8  C   UNL     1       1.839   2.501  19.394  0.00  0.00    +0.000 A 
ATOM      9  C   UNL     1       0.712   2.999  20.058  0.00  0.00    +0.000 A 
ATOM     10  C   UNL     1       0.678   4.321  20.495  0.00  0.00    +0.000 A 
ATOM     11  C   UNL     1       1.764   5.170  20.268  0.00  0.00    +0.000 A 
ATOM     12 CL   UNL     1       1.689   6.799  20.821  0.00  0.00    +0.000 Cl
ATOM     13  C   UNL     1       2.895   4.661  19.613  0.00  0.00    +0.000 A 
ATOM     14  S   UNL     1       4.368   5.432  19.204  0.00  0.00    +0.000 S 
ATOM     15  H   UNL     1       9.080   5.142  17.575  0.00  0.00    +0.000 HD
ATOM     16  H   UNL     1       8.076   6.365  18.995  0.00  0.00    +0.000 HD
ATOM     17  H   UNL     1       6.560   5.893  19.555  0.00  0.00    +0.000 HD
ATOM     18  H   UNL     1       6.452   3.012  17.577  0.00  0.00    +0.000 HD
ENDROOT
TORSDOF 0
ENDMDL
MODEL 6
REMARK VINA RESULT:      -6.5      1.999      2.598
REMARK  Name = 
REMARK  0 active torsions:
REMARK  status: ('A' for Active; 'I' for Inactive)
REMARK                            x       y       z     vdW  Elec       q    Type
REMARK                         _______ _______ _______ _____ _____    ______ ____
ROOT
ATOM      1  N   UNL     1       7.515   5.367  14.658  0.00  0.00    +0.000 NA
ATOM      2  C   UNL     1       6.381   5.001  15.157  0.00  0.00    +0.000 C 
ATOM      3  N   UNL     1       5.671   4.001  14.595  0.00  0.00    +0.000 N 
ATOM      4  N   UNL     1       5.853   5.669  16.210  0.00  0.00    +0.000 N 
ATOM      5  C   UNL     1       4.917   5.349  17.135  0.00  0.00    +0.000 A 
ATOM      6  N   UNL     1       4.449   6.216  18.007  0.00  0.00    +0.000 NA
ATOM      7  C   UNL     1       3.449   5.642  18.781  0.00  0.00    +0.000 A 
ATOM      8  C   UNL     1       2.681   6.307  19.761  0.00  0.00    +0.000 A 
ATOM      9  C   UNL     1       1.664   5.619  20.434  0.00  0.00    +0.000 A 
ATOM     10  C   UNL     1       1.418   4.278  20.156  0.00  0.00    +0.000 A 
ATOM     11  C   UNL     1       2.188   3.597  19.210  0.00  0.00    +0.000 A 
ATOM     12 CL   UNL     1       1.858   1.937  18.892  0.00  0.00    +0.000 Cl
ATOM     13  C   UNL     1       3.197   4.296  18.531  0.00  0.00    +0.000 A 
ATOM     14  S   UNL     1       4.286   3.756  17.325  0.00  0.00    +0.000 S 
ATOM     15  H   UNL     1       7.726   4.778  13.851  0.00  0.00    +0.000 HD
ATOM     16  H   UNL     1       6.172   3.337  14.018  0.00  0.00    +0.000 HD
ATOM     17  H   UNL     1       4.964   3.565  15.170  0.00  0.00    +0.000 HD
ATOM     18  H   UNL     1       6.343   6.538  16.388  0.00  0.00    +0.000 HD
ENDROOT
TORSDOF 0
ENDMDL
MODEL 7
REMARK VINA RESULT:      -6.5      2.329      2.570
REMARK  Name = 
REMARK  0 active torsions:
REMARK  status: ('A' for Active; 'I' for Inactive)
REMARK                            x       y       z     vdW  Elec       q    Type
REMARK                         _______ _______ _______ _____ _____    ______ ____
ROOT
ATOM      1  N   UNL     1       7.454   8.115  17.106  0.00  0.00    +0.000 NA
ATOM      2  C   UNL     1       6.967   6.951  17.383  0.00  0.00    +0.000 C 
ATOM      3  N   UNL     1       7.779   5.920  17.695  0.00  0.00    +0.000 N 
ATOM      4  N   UNL     1       5.634   6.733  17.293  0.00  0.00    +0.000 N 
ATOM      5  C   UNL     1       4.811   5.793  17.816  0.00  0.00    +0.000 A 
ATOM      6  N   UNL     1       3.543   5.688  17.482  0.00  0.00    +0.000 NA
ATOM      7  C   UNL     1       2.959   4.596  18.110  0.00  0.00    +0.000 A 
ATOM      8  C   UNL     1       1.634   4.146  17.921  0.00  0.00    +0.000 A 
ATOM      9  C   UNL     1       1.189   2.994  18.579  0.00  0.00    +0.000 A 
ATOM     10  C   UNL     1       2.038   2.300  19.436  0.00  0.00    +0.000 A 
ATOM     11  C   UNL     1       3.342   2.747  19.657  0.00  0.00    +0.000 A 
ATOM     12 CL   UNL     1       4.367   1.864  20.724  0.00  0.00    +0.000 Cl
ATOM     13  C   UNL     1       3.787   3.895  18.984  0.00  0.00    +0.000 A 
ATOM     14  S   UNL     1       5.310   4.677  19.031  0.00  0.00    +0.000 S 
ATOM     15  H   UNL     1       8.472   8.074  17.188  0.00  0.00    +0.000 HD
ATOM     16  H   UNL     1       8.706   6.139  18.036  0.00  0.00    +0.000 HD
ATOM     17  H   UNL     1       7.358   5.139  18.178  0.00  0.00    +0.000 HD
ATOM     18  H   UNL     1       5.159   7.493  16.821  0.00  0.00    +0.000 HD
ENDROOT
TORSDOF 0
ENDMDL
MODEL 8
REMARK VINA RESULT:      -6.4      2.747      5.346
REMARK  Name = 
REMARK  0 active torsions:
REMARK  status: ('A' for Active; 'I' for Inactive)
REMARK                            x       y       z     vdW  Elec       q    Type
REMARK                         _______ _______ _______ _____ _____    ______ ____
ROOT
ATOM      1  N   UNL     1       1.460   2.180  22.264  0.00  0.00    +0.000 NA
ATOM      2  C   UNL     1       1.722   2.879  21.209  0.00  0.00    +0.000 C 
ATOM      3  N   UNL     1       0.736   3.505  20.534  0.00  0.00    +0.000 N 
ATOM      4  N   UNL     1       2.986   2.930  20.723  0.00  0.00    +0.000 N 
ATOM      5  C   UNL     1       3.626   3.792  19.898  0.00  0.00    +0.000 A 
ATOM      6  N   UNL     1       4.841   3.573  19.441  0.00  0.00    +0.000 NA
ATOM      7  C   UNL     1       5.221   4.577  18.560  0.00  0.00    +0.000 A 
ATOM      8  C   UNL     1       6.428   4.619  17.829  0.00  0.00    +0.000 A 
ATOM      9  C   UNL     1       6.662   5.667  16.931  0.00  0.00    +0.000 A 
ATOM     10  C   UNL     1       5.720   6.679  16.768  0.00  0.00    +0.000 A 
ATOM     11  C   UNL     1       4.534   6.667  17.504  0.00  0.00    +0.000 A 
ATOM     12 CL   UNL     1       3.390   7.935  17.278  0.00  0.00    +0.000 Cl
ATOM     13  C   UNL     1       4.300   5.608  18.393  0.00  0.00    +0.000 A 
ATOM     14  S   UNL     1       2.958   5.305  19.413  0.00  0.00    +0.000 S 
ATOM     15  H   UNL     1       0.457   2.228  22.449  0.00  0.00    +0.000 HD
ATOM     16  H   UNL     1      -0.121   3.704  21.033  0.00  0.00    +0.000 HD
ATOM     17  H   UNL     1       1.012   4.255  19.915  0.00  0.00    +0.000 HD
ATOM     18  H   UNL     1       3.584   2.237  21.157  0.00  0.00    +0.000 HD
ENDROOT
TORSDOF 0
ENDMDL
MODEL 9
REMARK VINA RESULT:      -6.4      1.947      2.040
REMARK  Name = 
REMARK  0 active torsions:
REMARK  status: ('A' for Active; 'I' for Inactive)
REMARK                            x       y       z     vdW  Elec       q    Type
REMARK                         _______ _______ _______ _____ _____    ______ ____
ROOT
ATOM      1  N   UNL     1       7.680   6.421  16.223  0.00  0.00    +0.000 NA
ATOM      2  C   UNL     1       7.023   5.475  16.808  0.00  0.00    +0.000 C 
ATOM      3  N   UNL     1       7.670   4.443  17.388  0.00  0.00    +0.000 N 
ATOM      4  N   UNL     1       5.669   5.470  16.782  0.00  0.00    +0.000 N 
ATOM      5  C   UNL     1       4.730   4.859  17.543  0.00  0.00    +0.000 A 
ATOM      6  N   UNL     1       3.447   4.885  17.252  0.00  0.00    +0.000 NA
ATOM      7  C   UNL     1       2.724   4.116  18.154  0.00  0.00    +0.000 A 
ATOM      8  C   UNL     1       1.336   3.864  18.096  0.00  0.00    +0.000 A 
ATOM      9  C   UNL     1       0.741   3.024  19.045  0.00  0.00    +0.000 A 
ATOM     10  C   UNL     1       1.505   2.452  20.057  0.00  0.00    +0.000 A 
ATOM     11  C   UNL     1       2.874   2.715  20.147  0.00  0.00    +0.000 A 
ATOM     12 CL   UNL     1       3.790   1.991  21.413  0.00  0.00    +0.000 Cl
ATOM     13  C   UNL     1       3.466   3.547  19.185  0.00  0.00    +0.000 A 
ATOM     14  S   UNL     1       5.097   4.042  19.016  0.00  0.00    +0.000 S 
ATOM     15  H   UNL     1       8.679   6.232  16.313  0.00  0.00    +0.000 HD
ATOM     16  H   UNL     1       8.635   4.585  17.656  0.00  0.00    +0.000 HD
ATOM     17  H   UNL     1       7.151   3.904  18.067  0.00  0.00    +0.000 HD
ATOM     18  H   UNL     1       5.303   6.144  16.121  0.00  0.00    +0.000 HD
ENDROOT
TORSDOF 0
ENDMDL
