MODEL 1
REMARK VINA RESULT:      -8.8      0.000      0.000
REMARK  Name = 
REMARK  6 active torsions:
REMARK  status: ('A' for Active; 'I' for Inactive)
REMARK    1  A    between atoms: C_1  and  C_2
REMARK    2  A    between atoms: C_4  and  N_5
REMARK    3  A    between atoms: C_6  and  C_8
REMARK    4  A    between atoms: C_12  and  S_13
REMARK    5  A    between atoms: S_13  and  N_16
REMARK    6  A    between atoms: N_16  and  C_17
REMARK                            x       y       z     vdW  Elec       q    Type
REMARK                         _______ _______ _______ _____ _____    ______ ____
ROOT
ATOM      1  C   UNL     1       3.236   6.487  17.931  0.00  0.00    +0.000 A 
ATOM      2  C   UNL     1       2.668   5.201  18.011  0.00  0.00    +0.000 A 
ATOM      3  C   UNL     1       3.391   4.070  17.642  0.00  0.00    +0.000 A 
ATOM      4  C   UNL     1       4.698   4.212  17.193  0.00  0.00    +0.000 A 
ATOM      5  C   UNL     1       5.268   5.489  17.108  0.00  0.00    +0.000 A 
ATOM      6  C   UNL     1       4.543   6.638  17.461  0.00  0.00    +0.000 A 
ENDROOT
BRANCH   1   8
ATOM      7  N   UNL     1       2.013   8.607  17.637  0.00  0.00    +0.000 N 
ATOM      8  C   UNL     1       2.425   7.599  18.497  0.00  0.00    +0.000 C 
ATOM      9  O   UNL     1       2.174   7.518  19.695  0.00  0.00    +0.000 OA
ATOM     10  H   UNL     1       2.229   8.518  16.653  0.00  0.00    +0.000 HD
BRANCH   7  14
ATOM     11  C   UNL     1      -2.409  10.854  18.261  0.00  0.00    +0.000 C 
ATOM     12  C   UNL     1      -0.912  10.876  18.337  0.00  0.00    +0.000 A 
ATOM     13  C   UNL     1      -0.168   9.745  17.970  0.00  0.00    +0.000 A 
ATOM     14  C   UNL     1       1.233   9.734  18.013  0.00  0.00    +0.000 A 
ATOM     15  C   UNL     1       1.893  10.891  18.446  0.00  0.00    +0.000 A 
ATOM     16  C   UNL     1       1.161  12.025  18.824  0.00  0.00    +0.000 A 
ATOM     17  C   UNL     1      -0.229  12.009  18.765  0.00  0.00    +0.000 A 
ATOM     18  F   UNL     1      -0.912  13.104  19.128  0.00  0.00    +0.000 F 
ENDBRANCH   7  14
ENDBRANCH   1   8
BRANCH   5  19
ATOM     19  S   UNL     1       6.945   5.622  16.536  0.00  0.00    +0.000 S 
ATOM     20  O   UNL     1       7.441   6.904  16.989  0.00  0.00    +0.000 OA
ATOM     21  O   UNL     1       7.636   4.388  16.832  0.00  0.00    +0.000 OA
BRANCH  19  22
ATOM     22  N   UNL     1       6.765   5.755  14.863  0.00  0.00    +0.000 NA
ATOM     23  H   UNL     1       7.276   6.569  14.518  0.00  0.00    +0.000 HD
BRANCH  22  24
ATOM     24  C   UNL     1       6.830   4.548  14.030  0.00  0.00    +0.000 C 
ATOM     25  C   UNL     1       5.470   4.064  13.551  0.00  0.00    +0.000 C 
ATOM     26  C   UNL     1       5.814   3.161  12.376  0.00  0.00    +0.000 C 
ATOM     27  C   UNL     1       7.063   3.771  11.744  0.00  0.00    +0.000 C 
ATOM     28  C   UNL     1       7.543   4.852  12.712  0.00  0.00    +0.000 C 
ENDBRANCH  22  24
ENDBRANCH  19  22
ENDBRANCH   5  19
TORSDOF 5
ENDMDL
MODEL 2
REMARK VINA RESULT:      -8.7      0.323      1.360
REMARK  Name = 
REMARK  6 active torsions:
REMARK  status: ('A' for Active; 'I' for Inactive)
REMARK    1  A    between atoms: C_1  and  C_2
REMARK    2  A    between atoms: C_4  and  N_5
REMARK    3  A    between atoms: C_6  and  C_8
REMARK    4  A    between atoms: C_12  and  S_13
REMARK    5  A    between atoms: S_13  and  N_16
REMARK    6  A    between atoms: N_16  and  C_17
REMARK                            x       y       z     vdW  Elec       q    Type
REMARK                         _______ _______ _______ _____ _____    ______ ____
ROOT
ATOM      1  C   UNL     1       3.226   6.516  17.951  0.00  0.00    +0.000 A 
ATOM      2  C   UNL     1       2.668   5.229  18.076  0.00  0.00    +0.000 A 
ATOM      3  C   UNL     1       3.386   4.095  17.709  0.00  0.00    +0.000 A 
ATOM      4  C   UNL     1       4.678   4.233  17.217  0.00  0.00    +0.000 A 
ATOM      5  C   UNL     1       5.238   5.511  17.087  0.00  0.00    +0.000 A 
ATOM      6  C   UNL     1       4.516   6.664  17.437  0.00  0.00    +0.000 A 
ENDROOT
BRANCH   1   8
ATOM      7  N   UNL     1       2.043   8.660  17.663  0.00  0.00    +0.000 N 
ATOM      8  C   UNL     1       2.426   7.636  18.517  0.00  0.00    +0.000 C 
ATOM      9  O   UNL     1       2.157   7.547  19.711  0.00  0.00    +0.000 OA
ATOM     10  H   UNL     1       2.272   8.578  16.681  0.00  0.00    +0.000 HD
BRANCH   7  14
ATOM     11  C   UNL     1       1.723  13.384  19.268  0.00  0.00    +0.000 C 
ATOM     12  C   UNL     1       1.070  12.110  18.823  0.00  0.00    +0.000 A 
ATOM     13  C   UNL     1       1.852  11.009  18.447  0.00  0.00    +0.000 A 
ATOM     14  C   UNL     1       1.277   9.796  18.040  0.00  0.00    +0.000 A 
ATOM     15  C   UNL     1      -0.120   9.703  18.004  0.00  0.00    +0.000 A 
ATOM     16  C   UNL     1      -0.913  10.800  18.370  0.00  0.00    +0.000 A 
ATOM     17  C   UNL     1      -0.314  11.988  18.775  0.00  0.00    +0.000 A 
ATOM     18  F   UNL     1      -1.089  13.025  19.124  0.00  0.00    +0.000 F 
ENDBRANCH   7  14
ENDBRANCH   1   8
BRANCH   5  19
ATOM     19  S   UNL     1       6.895   5.641  16.461  0.00  0.00    +0.000 S 
ATOM     20  O   UNL     1       7.388   6.946  16.848  0.00  0.00    +0.000 OA
ATOM     21  O   UNL     1       7.610   4.428  16.784  0.00  0.00    +0.000 OA
BRANCH  19  22
ATOM     22  N   UNL     1       6.665   5.706  14.789  0.00  0.00    +0.000 NA
ATOM     23  H   UNL     1       7.179   6.494  14.394  0.00  0.00    +0.000 HD
BRANCH  22  24
ATOM     24  C   UNL     1       6.681   4.463  14.009  0.00  0.00    +0.000 C 
ATOM     25  C   UNL     1       5.316   4.063  13.470  0.00  0.00    +0.000 C 
ATOM     26  C   UNL     1       5.653   3.088  12.352  0.00  0.00    +0.000 C 
ATOM     27  C   UNL     1       6.979   3.574  11.770  0.00  0.00    +0.000 C 
ATOM     28  C   UNL     1       7.487   4.657  12.723  0.00  0.00    +0.000 C 
ENDBRANCH  22  24
ENDBRANCH  19  22
ENDBRANCH   5  19
TORSDOF 5
ENDMDL
MODEL 3
REMARK VINA RESULT:      -8.4      1.332      1.340
REMARK  Name = 
REMARK  6 active torsions:
REMARK  status: ('A' for Active; 'I' for Inactive)
REMARK    1  A    between atoms: C_1  and  C_2
REMARK    2  A    between atoms: C_4  and  N_5
REMARK    3  A    between atoms: C_6  and  C_8
REMARK    4  A    between atoms: C_12  and  S_13
REMARK    5  A    between atoms: S_13  and  N_16
REMARK    6  A    between atoms: N_16  and  C_17
REMARK                            x       y       z     vdW  Elec       q    Type
REMARK                         _______ _______ _______ _____ _____    ______ ____
ROOT
ATOM      1  C   UNL     1       3.244   6.938  17.891  0.00  0.00    +0.000 A 
ATOM      2  C   UNL     1       2.595   5.719  18.168  0.00  0.00    +0.000 A 
ATOM      3  C   UNL     1       3.288   4.513  18.140  0.00  0.00    +0.000 A 
ATOM      4  C   UNL     1       4.645   4.510  17.838  0.00  0.00    +0.000 A 
ATOM      5  C   UNL     1       5.295   5.719  17.558  0.00  0.00    +0.000 A 
ATOM      6  C   UNL     1       4.603   6.940  17.567  0.00  0.00    +0.000 A 
ENDROOT
BRANCH   1   8
ATOM      7  N   UNL     1       1.701   8.275  19.272  0.00  0.00    +0.000 N 
ATOM      8  C   UNL     1       2.441   8.173  18.103  0.00  0.00    +0.000 C 
ATOM      9  O   UNL     1       2.518   9.016  17.215  0.00  0.00    +0.000 OA
ATOM     10  H   UNL     1       1.780   7.536  19.958  0.00  0.00    +0.000 HD
BRANCH   7  14
ATOM     11  C   UNL     1      -1.673  11.780  18.119  0.00  0.00    +0.000 C 
ATOM     12  C   UNL     1      -0.766  11.118  19.112  0.00  0.00    +0.000 A 
ATOM     13  C   UNL     1       0.017  10.019  18.733  0.00  0.00    +0.000 A 
ATOM     14  C   UNL     1       0.887   9.384  19.630  0.00  0.00    +0.000 A 
ATOM     15  C   UNL     1       0.957   9.869  20.943  0.00  0.00    +0.000 A 
ATOM     16  C   UNL     1       0.173  10.962  21.337  0.00  0.00    +0.000 A 
ATOM     17  C   UNL     1      -0.678  11.575  20.422  0.00  0.00    +0.000 A 
ATOM     18  F   UNL     1      -1.418  12.621  20.817  0.00  0.00    +0.000 F 
ENDBRANCH   7  14
ENDBRANCH   1   8
BRANCH   5  19
ATOM     19  S   UNL     1       7.031   5.670  17.185  0.00  0.00    +0.000 S 
ATOM     20  O   UNL     1       7.617   6.861  17.762  0.00  0.00    +0.000 OA
ATOM     21  O   UNL     1       7.534   4.349  17.486  0.00  0.00    +0.000 OA
BRANCH  19  22
ATOM     22  N   UNL     1       7.066   5.895  15.512  0.00  0.00    +0.000 NA
ATOM     23  H   UNL     1       7.755   6.607  15.268  0.00  0.00    +0.000 HD
BRANCH  22  24
ATOM     24  C   UNL     1       6.997   4.728  14.624  0.00  0.00    +0.000 C 
ATOM     25  C   UNL     1       5.578   4.336  14.243  0.00  0.00    +0.000 C 
ATOM     26  C   UNL     1       5.773   3.476  13.003  0.00  0.00    +0.000 C 
ATOM     27  C   UNL     1       6.996   4.054  12.293  0.00  0.00    +0.000 C 
ATOM     28  C   UNL     1       7.612   5.061  13.264  0.00  0.00    +0.000 C 
ENDBRANCH  22  24
ENDBRANCH  19  22
ENDBRANCH   5  19
TORSDOF 5
ENDMDL
MODEL 4
REMARK VINA RESULT:      -8.3      1.693      1.798
REMARK  Name = 
REMARK  6 active torsions:
REMARK  status: ('A' for Active; 'I' for Inactive)
REMARK    1  A    between atoms: C_1  and  C_2
REMARK    2  A    between atoms: C_4  and  N_5
REMARK    3  A    between atoms: C_6  and  C_8
REMARK    4  A    between atoms: C_12  and  S_13
REMARK    5  A    between atoms: S_13  and  N_16
REMARK    6  A    between atoms: N_16  and  C_17
REMARK                            x       y       z     vdW  Elec       q    Type
REMARK                         _______ _______ _______ _____ _____    ______ ____
ROOT
ATOM      1  C   UNL     1       3.224   6.857  17.874  0.00  0.00    +0.000 A 
ATOM      2  C   UNL     1       2.681   5.610  18.241  0.00  0.00    +0.000 A 
ATOM      3  C   UNL     1       3.411   4.435  18.092  0.00  0.00    +0.000 A 
ATOM      4  C   UNL     1       4.700   4.491  17.576  0.00  0.00    +0.000 A 
ATOM      5  C   UNL     1       5.245   5.728  17.206  0.00  0.00    +0.000 A 
ATOM      6  C   UNL     1       4.512   6.918  17.337  0.00  0.00    +0.000 A 
ENDROOT
BRANCH   1   8
ATOM      7  N   UNL     1       1.726   8.048  19.428  0.00  0.00    +0.000 N 
ATOM      8  C   UNL     1       2.414   8.055  18.223  0.00  0.00    +0.000 C 
ATOM      9  O   UNL     1       2.439   8.970  17.406  0.00  0.00    +0.000 OA
ATOM     10  H   UNL     1       1.847   7.256  20.046  0.00  0.00    +0.000 HD
BRANCH   7  14
ATOM     11  C   UNL     1      -0.663  10.379  23.150  0.00  0.00    +0.000 C 
ATOM     12  C   UNL     1      -0.271  10.287  21.706  0.00  0.00    +0.000 A 
ATOM     13  C   UNL     1       0.540   9.235  21.258  0.00  0.00    +0.000 A 
ATOM     14  C   UNL     1       0.914   9.108  19.913  0.00  0.00    +0.000 A 
ATOM     15  C   UNL     1       0.463  10.074  19.004  0.00  0.00    +0.000 A 
ATOM     16  C   UNL     1      -0.342  11.136  19.441  0.00  0.00    +0.000 A 
ATOM     17  C   UNL     1      -0.702  11.232  20.781  0.00  0.00    +0.000 A 
ATOM     18  F   UNL     1      -1.475  12.253  21.180  0.00  0.00    +0.000 F 
ENDBRANCH   7  14
ENDBRANCH   1   8
BRANCH   5  19
ATOM     19  S   UNL     1       6.899   5.755  16.560  0.00  0.00    +0.000 S 
ATOM     20  O   UNL     1       7.478   7.025  16.943  0.00  0.00    +0.000 OA
ATOM     21  O   UNL     1       7.541   4.498  16.872  0.00  0.00    +0.000 OA
BRANCH  19  22
ATOM     22  N   UNL     1       6.653   5.838  14.892  0.00  0.00    +0.000 NA
ATOM     23  H   UNL     1       7.080   6.685  14.515  0.00  0.00    +0.000 HD
BRANCH  22  24
ATOM     24  C   UNL     1       6.794   4.624  14.078  0.00  0.00    +0.000 C 
ATOM     25  C   UNL     1       5.481   4.122  13.500  0.00  0.00    +0.000 C 
ATOM     26  C   UNL     1       5.924   3.212  12.363  0.00  0.00    +0.000 C 
ATOM     27  C   UNL     1       7.212   3.829  11.824  0.00  0.00    +0.000 C 
ATOM     28  C   UNL     1       7.604   4.924  12.816  0.00  0.00    +0.000 C 
ENDBRANCH  22  24
ENDBRANCH  19  22
ENDBRANCH   5  19
TORSDOF 5
ENDMDL
MODEL 5
REMARK VINA RESULT:      -8.3      5.606      7.384
REMARK  Name = 
REMARK  6 active torsions:
REMARK  status: ('A' for Active; 'I' for Inactive)
REMARK    1  A    between atoms: C_1  and  C_2
REMARK    2  A    between atoms: C_4  and  N_5
REMARK    3  A    between atoms: C_6  and  C_8
REMARK    4  A    between atoms: C_12  and  S_13
REMARK    5  A    between atoms: S_13  and  N_16
REMARK    6  A    between atoms: N_16  and  C_17
REMARK                            x       y       z     vdW  Elec       q    Type
REMARK                         _______ _______ _______ _____ _____    ______ ____
ROOT
ATOM      1  C   UNL     1       7.946   7.798  18.215  0.00  0.00    +0.000 A 
ATOM      2  C   UNL     1       8.394   6.917  19.219  0.00  0.00    +0.000 A 
ATOM      3  C   UNL     1       8.140   5.551  19.144  0.00  0.00    +0.000 A 
ATOM      4  C   UNL     1       7.436   5.045  18.057  0.00  0.00    +0.000 A 
ATOM      5  C   UNL     1       6.985   5.916  17.057  0.00  0.00    +0.000 A 
ATOM      6  C   UNL     1       7.221   7.298  17.130  0.00  0.00    +0.000 A 
ENDROOT
BRANCH   1   8
ATOM      7  N   UNL     1       9.293   9.526  19.344  0.00  0.00    +0.000 N 
ATOM      8  C   UNL     1       8.410   9.207  18.323  0.00  0.00    +0.000 C 
ATOM      9  O   UNL     1       7.974   9.977  17.472  0.00  0.00    +0.000 OA
ATOM     10  H   UNL     1       9.631   8.780  19.937  0.00  0.00    +0.000 HD
BRANCH   7  14
ATOM     11  C   UNL     1       9.493  13.763  21.990  0.00  0.00    +0.000 C 
ATOM     12  C   UNL     1       9.969  12.911  20.852  0.00  0.00    +0.000 A 
ATOM     13  C   UNL     1       9.424  11.636  20.646  0.00  0.00    +0.000 A 
ATOM     14  C   UNL     1       9.834  10.818  19.583  0.00  0.00    +0.000 A 
ATOM     15  C   UNL     1      10.824  11.301  18.718  0.00  0.00    +0.000 A 
ATOM     16  C   UNL     1      11.383  12.571  18.918  0.00  0.00    +0.000 A 
ATOM     17  C   UNL     1      10.952  13.362  19.978  0.00  0.00    +0.000 A 
ATOM     18  F   UNL     1      11.496  14.575  20.151  0.00  0.00    +0.000 F 
ENDBRANCH   7  14
ENDBRANCH   1   8
BRANCH   5  19
ATOM     19  S   UNL     1       6.097   5.225  15.682  0.00  0.00    +0.000 S 
ATOM     20  O   UNL     1       5.243   6.273  15.166  0.00  0.00    +0.000 OA
ATOM     21  O   UNL     1       7.029   4.514  14.837  0.00  0.00    +0.000 OA
BRANCH  19  22
ATOM     22  N   UNL     1       5.071   4.105  16.418  0.00  0.00    +0.000 NA
ATOM     23  H   UNL     1       5.590   3.543  17.094  0.00  0.00    +0.000 HD
BRANCH  22  24
ATOM     24  C   UNL     1       3.719   4.516  16.818  0.00  0.00    +0.000 C 
ATOM     25  C   UNL     1       2.793   3.350  17.123  0.00  0.00    +0.000 C 
ATOM     26  C   UNL     1       1.683   3.990  17.944  0.00  0.00    +0.000 C 
ATOM     27  C   UNL     1       2.353   5.113  18.732  0.00  0.00    +0.000 C 
ATOM     28  C   UNL     1       3.764   5.247  18.160  0.00  0.00    +0.000 C 
ENDBRANCH  22  24
ENDBRANCH  19  22
ENDBRANCH   5  19
TORSDOF 5
ENDMDL
MODEL 6
REMARK VINA RESULT:      -8.2      4.313      9.063
REMARK  Name = 
REMARK  6 active torsions:
REMARK  status: ('A' for Active; 'I' for Inactive)
REMARK    1  A    between atoms: C_1  and  C_2
REMARK    2  A    between atoms: C_4  and  N_5
REMARK    3  A    between atoms: C_6  and  C_8
REMARK    4  A    between atoms: C_12  and  S_13
REMARK    5  A    between atoms: S_13  and  N_16
REMARK    6  A    between atoms: N_16  and  C_17
REMARK                            x       y       z     vdW  Elec       q    Type
REMARK                         _______ _______ _______ _____ _____    ______ ____
ROOT
ATOM      1  C   UNL     1       1.434   8.906  19.429  0.00  0.00    +0.000 A 
ATOM      2  C   UNL     1       1.305   8.379  20.729  0.00  0.00    +0.000 A 
ATOM      3  C   UNL     1       0.465   8.973  21.666  0.00  0.00    +0.000 A 
ATOM      4  C   UNL     1      -0.263  10.103  21.313  0.00  0.00    +0.000 A 
ATOM      5  C   UNL     1      -0.136  10.635  20.023  0.00  0.00    +0.000 A 
ATOM      6  C   UNL     1       0.721  10.054  19.074  0.00  0.00    +0.000 A 
ENDROOT
BRANCH   1   8
ATOM      7  N   UNL     1       2.747   6.886  18.907  0.00  0.00    +0.000 N 
ATOM      8  C   UNL     1       2.237   8.100  18.471  0.00  0.00    +0.000 C 
ATOM      9  O   UNL     1       2.368   8.582  17.350  0.00  0.00    +0.000 OA
ATOM     10  H   UNL     1       2.506   6.570  19.838  0.00  0.00    +0.000 HD
BRANCH   7  14
ATOM     11  C   UNL     1       6.949   5.759  16.445  0.00  0.00    +0.000 C 
ATOM     12  C   UNL     1       5.568   5.398  16.903  0.00  0.00    +0.000 A 
ATOM     13  C   UNL     1       4.826   6.292  17.687  0.00  0.00    +0.000 A 
ATOM     14  C   UNL     1       3.526   5.996  18.121  0.00  0.00    +0.000 A 
ATOM     15  C   UNL     1       2.971   4.761  17.759  0.00  0.00    +0.000 A 
ATOM     16  C   UNL     1       3.707   3.854  16.982  0.00  0.00    +0.000 A 
ATOM     17  C   UNL     1       4.992   4.180  16.562  0.00  0.00    +0.000 A 
ATOM     18  F   UNL     1       5.678   3.301  15.817  0.00  0.00    +0.000 F 
ENDBRANCH   7  14
ENDBRANCH   1   8
BRANCH   5  19
ATOM     19  S   UNL     1      -1.090  12.075  19.612  0.00  0.00    +0.000 S 
ATOM     20  O   UNL     1      -1.546  12.646  20.862  0.00  0.00    +0.000 OA
ATOM     21  O   UNL     1      -0.361  12.854  18.638  0.00  0.00    +0.000 OA
BRANCH  19  22
ATOM     22  N   UNL     1      -2.459  11.424  18.869  0.00  0.00    +0.000 NA
ATOM     23  H   UNL     1      -3.305  11.783  19.315  0.00  0.00    +0.000 HD
BRANCH  22  24
ATOM     24  C   UNL     1      -2.498  11.299  17.407  0.00  0.00    +0.000 C 
ATOM     25  C   UNL     1      -2.118   9.916  16.903  0.00  0.00    +0.000 C 
ATOM     26  C   UNL     1      -2.682   9.891  15.490  0.00  0.00    +0.000 C 
ATOM     27  C   UNL     1      -3.945  10.748  15.539  0.00  0.00    +0.000 C 
ATOM     28  C   UNL     1      -3.935  11.439  16.903  0.00  0.00    +0.000 C 
ENDBRANCH  22  24
ENDBRANCH  19  22
ENDBRANCH   5  19
TORSDOF 5
ENDMDL
MODEL 7
REMARK VINA RESULT:      -8.2      2.853      3.822
REMARK  Name = 
REMARK  6 active torsions:
REMARK  status: ('A' for Active; 'I' for Inactive)
REMARK    1  A    between atoms: C_1  and  C_2
REMARK    2  A    between atoms: C_4  and  N_5
REMARK    3  A    between atoms: C_6  and  C_8
REMARK    4  A    between atoms: C_12  and  S_13
REMARK    5  A    between atoms: S_13  and  N_16
REMARK    6  A    between atoms: N_16  and  C_17
REMARK                            x       y       z     vdW  Elec       q    Type
REMARK                         _______ _______ _______ _____ _____    ______ ____
ROOT
ATOM      1  C   UNL     1       2.293   7.089  18.825  0.00  0.00    +0.000 A 
ATOM      2  C   UNL     1       1.915   6.762  20.142  0.00  0.00    +0.000 A 
ATOM      3  C   UNL     1       2.289   5.553  20.720  0.00  0.00    +0.000 A 
ATOM      4  C   UNL     1       3.053   4.653  19.987  0.00  0.00    +0.000 A 
ATOM      5  C   UNL     1       3.430   4.970  18.675  0.00  0.00    +0.000 A 
ATOM      6  C   UNL     1       3.045   6.180  18.076  0.00  0.00    +0.000 A 
ENDROOT
BRANCH   1   8
ATOM      7  N   UNL     1       1.227   9.276  19.221  0.00  0.00    +0.000 N 
ATOM      8  C   UNL     1       1.970   8.468  18.372  0.00  0.00    +0.000 C 
ATOM      9  O   UNL     1       2.411   8.783  17.271  0.00  0.00    +0.000 OA
ATOM     10  H   UNL     1       0.984   8.917  20.135  0.00  0.00    +0.000 HD
BRANCH   7  14
ATOM     11  C   UNL     1       2.349  14.079  18.410  0.00  0.00    +0.000 C 
ATOM     12  C   UNL     1       1.339  12.979  18.539  0.00  0.00    +0.000 A 
ATOM     13  C   UNL     1       1.753  11.666  18.802  0.00  0.00    +0.000 A 
ATOM     14  C   UNL     1       0.837  10.614  18.944  0.00  0.00    +0.000 A 
ATOM     15  C   UNL     1      -0.527  10.900  18.808  0.00  0.00    +0.000 A 
ATOM     16  C   UNL     1      -0.954  12.207  18.537  0.00  0.00    +0.000 A 
ATOM     17  C   UNL     1      -0.022  13.231  18.406  0.00  0.00    +0.000 A 
ATOM     18  F   UNL     1      -0.449  14.476  18.150  0.00  0.00    +0.000 F 
ENDBRANCH   7  14
ENDBRANCH   1   8
BRANCH   5  19
ATOM     19  S   UNL     1       4.414   3.794  17.778  0.00  0.00    +0.000 S 
ATOM     20  O   UNL     1       4.093   2.487  18.310  0.00  0.00    +0.000 OA
ATOM     21  O   UNL     1       4.319   4.089  16.367  0.00  0.00    +0.000 OA
BRANCH  19  22
ATOM     22  N   UNL     1       5.983   4.138  18.298  0.00  0.00    +0.000 NA
ATOM     23  H   UNL     1       6.650   3.516  17.838  0.00  0.00    +0.000 HD
BRANCH  22  24
ATOM     24  C   UNL     1       6.403   5.535  18.459  0.00  0.00    +0.000 C 
ATOM     25  C   UNL     1       7.765   5.691  19.117  0.00  0.00    +0.000 C 
ATOM     26  C   UNL     1       8.175   7.107  18.742  0.00  0.00    +0.000 C 
ATOM     27  C   UNL     1       7.572   7.355  17.360  0.00  0.00    +0.000 C 
ATOM     28  C   UNL     1       6.634   6.179  17.091  0.00  0.00    +0.000 C 
ENDBRANCH  22  24
ENDBRANCH  19  22
ENDBRANCH   5  19
TORSDOF 5
ENDMDL
MODEL 8
REMARK VINA RESULT:      -8.2      5.633      7.413
REMARK  Name = 
REMARK  6 active torsions:
REMARK  status: ('A' for Active; 'I' for Inactive)
REMARK    1  A    between atoms: C_1  and  C_2
REMARK    2  A    between atoms: C_4  and  N_5
REMARK    3  A    between atoms: C_6  and  C_8
REMARK    4  A    between atoms: C_12  and  S_13
REMARK    5  A    between atoms: S_13  and  N_16
REMARK    6  A    between atoms: N_16  and  C_17
REMARK                            x       y       z     vdW  Elec       q    Type
REMARK                         _______ _______ _______ _____ _____    ______ ____
ROOT
ATOM      1  C   UNL     1       7.836   7.792  18.209  0.00  0.00    +0.000 A 
ATOM      2  C   UNL     1       8.413   6.879  19.113  0.00  0.00    +0.000 A 
ATOM      3  C   UNL     1       8.134   5.518  19.037  0.00  0.00    +0.000 A 
ATOM      4  C   UNL     1       7.276   5.049  18.050  0.00  0.00    +0.000 A 
ATOM      5  C   UNL     1       6.696   5.953  17.149  0.00  0.00    +0.000 A 
ATOM      6  C   UNL     1       6.957   7.330  17.226  0.00  0.00    +0.000 A 
ENDROOT
BRANCH   1   8
ATOM      7  N   UNL     1       9.258   9.504  19.269  0.00  0.00    +0.000 N 
ATOM      8  C   UNL     1       8.327   9.194  18.288  0.00  0.00    +0.000 C 
ATOM      9  O   UNL     1       7.869   9.966  17.452  0.00  0.00    +0.000 OA
ATOM     10  H   UNL     1       9.608   8.756  19.853  0.00  0.00    +0.000 HD
BRANCH   7  14
ATOM     11  C   UNL     1       9.654  13.743  21.889  0.00  0.00    +0.000 C 
ATOM     12  C   UNL     1      10.060  12.882  20.732  0.00  0.00    +0.000 A 
ATOM     13  C   UNL     1       9.486  11.615  20.557  0.00  0.00    +0.000 A 
ATOM     14  C   UNL     1       9.830  10.788  19.478  0.00  0.00    +0.000 A 
ATOM     15  C   UNL     1      10.783  11.253  18.563  0.00  0.00    +0.000 A 
ATOM     16  C   UNL     1      11.371  12.515  18.731  0.00  0.00    +0.000 A 
ATOM     17  C   UNL     1      11.005  13.315  19.808  0.00  0.00    +0.000 A 
ATOM     18  F   UNL     1      11.575  14.520  19.951  0.00  0.00    +0.000 F 
ENDBRANCH   7  14
ENDBRANCH   1   8
BRANCH   5  19
ATOM     19  S   UNL     1       5.612   5.310  15.898  0.00  0.00    +0.000 S 
ATOM     20  O   UNL     1       5.285   6.413  15.020  0.00  0.00    +0.000 OA
ATOM     21  O   UNL     1       6.163   4.072  15.396  0.00  0.00    +0.000 OA
BRANCH  19  22
ATOM     22  N   UNL     1       4.201   4.964  16.759  0.00  0.00    +0.000 NA
ATOM     23  H   UNL     1       3.407   5.453  16.343  0.00  0.00    +0.000 HD
BRANCH  22  24
ATOM     24  C   UNL     1       3.952   3.593  17.219  0.00  0.00    +0.000 C 
ATOM     25  C   UNL     1       4.284   3.372  18.687  0.00  0.00    +0.000 C 
ATOM     26  C   UNL     1       3.520   2.101  19.031  0.00  0.00    +0.000 C 
ATOM     27  C   UNL     1       2.260   2.136  18.168  0.00  0.00    +0.000 C 
ATOM     28  C   UNL     1       2.454   3.286  17.181  0.00  0.00    +0.000 C 
ENDBRANCH  22  24
ENDBRANCH  19  22
ENDBRANCH   5  19
TORSDOF 5
ENDMDL
MODEL 9
REMARK VINA RESULT:      -8.1      0.678      1.655
REMARK  Name = 
REMARK  6 active torsions:
REMARK  status: ('A' for Active; 'I' for Inactive)
REMARK    1  A    between atoms: C_1  and  C_2
REMARK    2  A    between atoms: C_4  and  N_5
REMARK    3  A    between atoms: C_6  and  C_8
REMARK    4  A    between atoms: C_12  and  S_13
REMARK    5  A    between atoms: S_13  and  N_16
REMARK    6  A    between atoms: N_16  and  C_17
REMARK                            x       y       z     vdW  Elec       q    Type
REMARK                         _______ _______ _______ _____ _____    ______ ____
ROOT
ATOM      1  C   UNL     1       3.225   6.587  18.016  0.00  0.00    +0.000 A 
ATOM      2  C   UNL     1       2.600   5.331  17.891  0.00  0.00    +0.000 A 
ATOM      3  C   UNL     1       3.322   4.200  17.522  0.00  0.00    +0.000 A 
ATOM      4  C   UNL     1       4.686   4.310  17.278  0.00  0.00    +0.000 A 
ATOM      5  C   UNL     1       5.314   5.557  17.397  0.00  0.00    +0.000 A 
ATOM      6  C   UNL     1       4.592   6.708  17.752  0.00  0.00    +0.000 A 
ENDROOT
BRANCH   1   8
ATOM      7  N   UNL     1       1.950   8.671  17.691  0.00  0.00    +0.000 N 
ATOM      8  C   UNL     1       2.387   7.686  18.565  0.00  0.00    +0.000 C 
ATOM      9  O   UNL     1       2.138   7.617  19.765  0.00  0.00    +0.000 OA
ATOM     10  H   UNL     1       2.168   8.573  16.708  0.00  0.00    +0.000 HD
BRANCH   7  14
ATOM     11  C   UNL     1       1.447  13.352  19.373  0.00  0.00    +0.000 C 
ATOM     12  C   UNL     1       0.846  12.075  18.868  0.00  0.00    +0.000 A 
ATOM     13  C   UNL     1       1.669  10.998  18.512  0.00  0.00    +0.000 A 
ATOM     14  C   UNL     1       1.141   9.783  18.050  0.00  0.00    +0.000 A 
ATOM     15  C   UNL     1      -0.250   9.663  17.939  0.00  0.00    +0.000 A 
ATOM     16  C   UNL     1      -1.084  10.736  18.285  0.00  0.00    +0.000 A 
ATOM     17  C   UNL     1      -0.531  11.927  18.745  0.00  0.00    +0.000 A 
ATOM     18  F   UNL     1      -1.345  12.941  19.074  0.00  0.00    +0.000 F 
ENDBRANCH   7  14
ENDBRANCH   1   8
BRANCH   5  19
ATOM     19  S   UNL     1       7.060   5.649  17.084  0.00  0.00    +0.000 S 
ATOM     20  O   UNL     1       7.310   6.944  16.485  0.00  0.00    +0.000 OA
ATOM     21  O   UNL     1       7.768   5.204  18.262  0.00  0.00    +0.000 OA
BRANCH  19  22
ATOM     22  N   UNL     1       7.285   4.515  15.855  0.00  0.00    +0.000 NA
ATOM     23  H   UNL     1       7.081   3.576  16.201  0.00  0.00    +0.000 HD
BRANCH  22  24
ATOM     24  C   UNL     1       6.824   4.820  14.495  0.00  0.00    +0.000 C 
ATOM     25  C   UNL     1       7.955   5.051  13.505  0.00  0.00    +0.000 C 
ATOM     26  C   UNL     1       7.280   4.863  12.154  0.00  0.00    +0.000 C 
ATOM     27  C   UNL     1       6.198   3.810  12.380  0.00  0.00    +0.000 C 
ATOM     28  C   UNL     1       6.115   3.606  13.892  0.00  0.00    +0.000 C 
ENDBRANCH  22  24
ENDBRANCH  19  22
ENDBRANCH   5  19
TORSDOF 5
ENDMDL
