MODEL 1
REMARK VINA RESULT:      -9.2      0.000      0.000
REMARK  Name = 
REMARK  4 active torsions:
REMARK  status: ('A' for Active; 'I' for Inactive)
REMARK    1  A    between atoms: C_1  and  N_2
REMARK    2  A    between atoms: N_2  and  C_23
REMARK    3  A    between atoms: C_3  and  C_5
REMARK    4  A    between atoms: C_8  and  N_9
REMARK                            x       y       z     vdW  Elec       q    Type
REMARK                         _______ _______ _______ _____ _____    ______ ____
ROOT
ATOM      1  C   UNL     1       1.278   9.388  19.791  0.00  0.00    +0.000 A 
ATOM      2  C   UNL     1       1.852   9.197  18.541  0.00  0.00    +0.000 A 
ATOM      3  C   UNL     1       2.294   7.925  18.152  0.00  0.00    +0.000 A 
ATOM      4  C   UNL     1       2.268   6.825  19.026  0.00  0.00    +0.000 A 
ATOM      5  C   UNL     1       1.752   7.053  20.311  0.00  0.00    +0.000 A 
ATOM      6  C   UNL     1       1.258   8.314  20.687  0.00  0.00    +0.000 A 
ENDROOT
BRANCH   4   7
ATOM      7  N   UNL     1       2.752   5.538  18.616  0.00  0.00    +0.000 N 
ATOM      8  C   UNL     1       3.985   5.016  18.994  0.00  0.00    +0.000 C 
ATOM      9  O   UNL     1       4.828   5.487  19.743  0.00  0.00    +0.000 OA
ATOM     10  C   UNL     1       4.178   3.678  18.360  0.00  0.00    +0.000 C 
ATOM     11  C   UNL     1       4.234   2.487  19.340  0.00  0.00    +0.000 C 
ATOM     12  C   UNL     1       3.077   2.550  20.315  0.00  0.00    +0.000 C 
ATOM     13  C   UNL     1       1.956   2.320  19.618  0.00  0.00    +0.000 C 
ATOM     14  C   UNL     1       2.360   2.109  18.176  0.00  0.00    +0.000 C 
ATOM     15  C   UNL     1       3.686   1.374  18.427  0.00  0.00    +0.000 C 
ATOM     16  C   UNL     1       2.886   3.428  17.573  0.00  0.00    +0.000 C 
ATOM     17  C   UNL     1       2.047   4.650  17.821  0.00  0.00    +0.000 C 
ATOM     18  O   UNL     1       0.936   4.764  17.319  0.00  0.00    +0.000 OA
ENDBRANCH   4   7
BRANCH   1  21
ATOM     19  C   UNL     1      -1.071  10.697  18.498  0.00  0.00    +0.000 C 
ATOM     20  N   UNL     1      -0.381  11.292  19.652  0.00  0.00    +0.000 N 
ATOM     21  C   UNL     1       0.759  10.709  20.253  0.00  0.00    +0.000 C 
ATOM     22  O   UNL     1       1.397  11.195  21.186  0.00  0.00    +0.000 OA
BRANCH  20  23
ATOM     23  C   UNL     1      -1.041  12.471  20.230  0.00  0.00    +0.000 A 
ATOM     24  C   UNL     1      -2.211  12.300  20.998  0.00  0.00    +0.000 A 
ATOM     25  C   UNL     1      -2.983  13.383  21.409  0.00  0.00    +0.000 A 
ATOM     26  C   UNL     1      -2.638  14.659  21.003  0.00  0.00    +0.000 A 
ATOM     27  C   UNL     1      -1.488  14.866  20.234  0.00  0.00    +0.000 A 
ATOM     28  C   UNL     1      -1.205  16.147  19.739  0.00  0.00    +0.000 A 
ATOM     29  C   UNL     1      -0.046  16.378  19.016  0.00  0.00    +0.000 A 
ATOM     30  C   UNL     1       0.823  15.326  18.862  0.00  0.00    +0.000 A 
ATOM     31  N   UNL     1       0.555  14.071  19.281  0.00  0.00    +0.000 NA
ATOM     32  C   UNL     1      -0.620  13.796  19.911  0.00  0.00    +0.000 A 
ENDBRANCH  20  23
ENDBRANCH   1  21
TORSDOF 3
ENDMDL
MODEL 2
REMARK VINA RESULT:      -9.1      0.989      2.059
REMARK  Name = 
REMARK  4 active torsions:
REMARK  status: ('A' for Active; 'I' for Inactive)
REMARK    1  A    between atoms: C_1  and  N_2
REMARK    2  A    between atoms: N_2  and  C_23
REMARK    3  A    between atoms: C_3  and  C_5
REMARK    4  A    between atoms: C_8  and  N_9
REMARK                            x       y       z     vdW  Elec       q    Type
REMARK                         _______ _______ _______ _____ _____    ______ ____
ROOT
ATOM      1  C   UNL     1       1.569   9.549  19.066  0.00  0.00    +0.000 A 
ATOM      2  C   UNL     1       2.120   9.166  17.849  0.00  0.00    +0.000 A 
ATOM      3  C   UNL     1       2.494   7.833  17.630  0.00  0.00    +0.000 A 
ATOM      4  C   UNL     1       2.424   6.860  18.641  0.00  0.00    +0.000 A 
ATOM      5  C   UNL     1       1.933   7.281  19.887  0.00  0.00    +0.000 A 
ATOM      6  C   UNL     1       1.506   8.604  20.095  0.00  0.00    +0.000 A 
ENDROOT
BRANCH   4   7
ATOM      7  N   UNL     1       2.840   5.508  18.403  0.00  0.00    +0.000 N 
ATOM      8  C   UNL     1       4.059   4.985  18.824  0.00  0.00    +0.000 C 
ATOM      9  O   UNL     1       4.941   5.514  19.484  0.00  0.00    +0.000 OA
ATOM     10  C   UNL     1       4.175   3.565  18.377  0.00  0.00    +0.000 C 
ATOM     11  C   UNL     1       4.205   2.519  19.510  0.00  0.00    +0.000 C 
ATOM     12  C   UNL     1       3.078   2.769  20.490  0.00  0.00    +0.000 C 
ATOM     13  C   UNL     1       1.930   2.499  19.855  0.00  0.00    +0.000 C 
ATOM     14  C   UNL     1       2.286   2.074  18.448  0.00  0.00    +0.000 C 
ATOM     15  C   UNL     1       3.585   1.318  18.770  0.00  0.00    +0.000 C 
ATOM     16  C   UNL     1       2.853   3.271  17.658  0.00  0.00    +0.000 C 
ATOM     17  C   UNL     1       2.076   4.554  17.752  0.00  0.00    +0.000 C 
ATOM     18  O   UNL     1       0.958   4.651  17.263  0.00  0.00    +0.000 OA
ENDBRANCH   4   7
BRANCH   1  21
ATOM     19  C   UNL     1      -1.195  10.475  18.431  0.00  0.00    +0.000 C 
ATOM     20  N   UNL     1      -0.207  11.350  19.079  0.00  0.00    +0.000 N 
ATOM     21  C   UNL     1       1.120  10.943  19.351  0.00  0.00    +0.000 C 
ATOM     22  O   UNL     1       1.994  11.655  19.846  0.00  0.00    +0.000 OA
BRANCH  20  23
ATOM     23  C   UNL     1      -0.733  12.636  19.554  0.00  0.00    +0.000 A 
ATOM     24  C   UNL     1      -0.544  13.792  18.770  0.00  0.00    +0.000 A 
ATOM     25  C   UNL     1      -0.849  15.062  19.250  0.00  0.00    +0.000 A 
ATOM     26  C   UNL     1      -1.289  15.211  20.554  0.00  0.00    +0.000 A 
ATOM     27  C   UNL     1      -1.483  14.087  21.363  0.00  0.00    +0.000 A 
ATOM     28  C   UNL     1      -1.827  14.254  22.712  0.00  0.00    +0.000 A 
ATOM     29  C   UNL     1      -2.067  13.150  23.515  0.00  0.00    +0.000 A 
ATOM     30  C   UNL     1      -2.012  11.913  22.921  0.00  0.00    +0.000 A 
ATOM     31  N   UNL     1      -1.634  11.717  21.640  0.00  0.00    +0.000 NA
ATOM     32  C   UNL     1      -1.299  12.778  20.856  0.00  0.00    +0.000 A 
ENDBRANCH  20  23
ENDBRANCH   1  21
TORSDOF 3
ENDMDL
MODEL 3
REMARK VINA RESULT:      -8.7      1.286      2.762
REMARK  Name = 
REMARK  4 active torsions:
REMARK  status: ('A' for Active; 'I' for Inactive)
REMARK    1  A    between atoms: C_1  and  N_2
REMARK    2  A    between atoms: N_2  and  C_23
REMARK    3  A    between atoms: C_3  and  C_5
REMARK    4  A    between atoms: C_8  and  N_9
REMARK                            x       y       z     vdW  Elec       q    Type
REMARK                         _______ _______ _______ _____ _____    ______ ____
ROOT
ATOM      1  C   UNL     1       1.211   9.606  20.212  0.00  0.00    +0.000 A 
ATOM      2  C   UNL     1       1.774   9.127  19.035  0.00  0.00    +0.000 A 
ATOM      3  C   UNL     1       2.162   7.784  18.931  0.00  0.00    +0.000 A 
ATOM      4  C   UNL     1       2.092   6.899  20.020  0.00  0.00    +0.000 A 
ATOM      5  C   UNL     1       1.589   7.419  21.223  0.00  0.00    +0.000 A 
ATOM      6  C   UNL     1       1.149   8.750  21.316  0.00  0.00    +0.000 A 
ENDROOT
BRANCH   4   7
ATOM      7  N   UNL     1       2.521   5.535  19.899  0.00  0.00    +0.000 N 
ATOM      8  C   UNL     1       1.684   4.439  20.079  0.00  0.00    +0.000 C 
ATOM      9  O   UNL     1       0.484   4.412  20.308  0.00  0.00    +0.000 OA
ATOM     10  C   UNL     1       2.467   3.179  19.911  0.00  0.00    +0.000 C 
ATOM     11  C   UNL     1       2.070   2.314  18.696  0.00  0.00    +0.000 C 
ATOM     12  C   UNL     1       1.991   3.164  17.446  0.00  0.00    +0.000 C 
ATOM     13  C   UNL     1       3.238   3.555  17.150  0.00  0.00    +0.000 C 
ATOM     14  C   UNL     1       4.152   2.972  18.204  0.00  0.00    +0.000 C 
ATOM     15  C   UNL     1       3.423   1.635  18.410  0.00  0.00    +0.000 C 
ATOM     16  C   UNL     1       3.887   3.642  19.568  0.00  0.00    +0.000 C 
ATOM     17  C   UNL     1       3.806   5.143  19.563  0.00  0.00    +0.000 C 
ATOM     18  O   UNL     1       4.793   5.827  19.322  0.00  0.00    +0.000 OA
ENDBRANCH   4   7
BRANCH   1  21
ATOM     19  C   UNL     1      -1.319  10.588  18.974  0.00  0.00    +0.000 C 
ATOM     20  N   UNL     1      -0.474  11.449  19.814  0.00  0.00    +0.000 N 
ATOM     21  C   UNL     1       0.749  11.015  20.376  0.00  0.00    +0.000 C 
ATOM     22  O   UNL     1       1.512  11.714  21.043  0.00  0.00    +0.000 OA
BRANCH  20  23
ATOM     23  C   UNL     1      -1.057  12.755  20.147  0.00  0.00    +0.000 A 
ATOM     24  C   UNL     1      -0.726  13.880  19.364  0.00  0.00    +0.000 A 
ATOM     25  C   UNL     1      -1.092  15.169  19.740  0.00  0.00    +0.000 A 
ATOM     26  C   UNL     1      -1.741  15.370  20.946  0.00  0.00    +0.000 A 
ATOM     27  C   UNL     1      -2.081  14.278  21.752  0.00  0.00    +0.000 A 
ATOM     28  C   UNL     1      -2.642  14.498  23.018  0.00  0.00    +0.000 A 
ATOM     29  C   UNL     1      -3.026  13.427  23.809  0.00  0.00    +0.000 A 
ATOM     30  C   UNL     1      -2.888  12.167  23.278  0.00  0.00    +0.000 A 
ATOM     31  N   UNL     1      -2.304  11.921  22.086  0.00  0.00    +0.000 NA
ATOM     32  C   UNL     1      -1.831  12.950  21.331  0.00  0.00    +0.000 A 
ENDBRANCH  20  23
ENDBRANCH   1  21
TORSDOF 3
ENDMDL
MODEL 4
REMARK VINA RESULT:      -8.6      1.492      1.997
REMARK  Name = 
REMARK  4 active torsions:
REMARK  status: ('A' for Active; 'I' for Inactive)
REMARK    1  A    between atoms: C_1  and  N_2
REMARK    2  A    between atoms: N_2  and  C_23
REMARK    3  A    between atoms: C_3  and  C_5
REMARK    4  A    between atoms: C_8  and  N_9
REMARK                            x       y       z     vdW  Elec       q    Type
REMARK                         _______ _______ _______ _____ _____    ______ ____
ROOT
ATOM      1  C   UNL     1       1.457   9.449  19.417  0.00  0.00    +0.000 A 
ATOM      2  C   UNL     1       1.877   9.139  18.130  0.00  0.00    +0.000 A 
ATOM      3  C   UNL     1       2.274   7.834  17.810  0.00  0.00    +0.000 A 
ATOM      4  C   UNL     1       2.358   6.819  18.778  0.00  0.00    +0.000 A 
ATOM      5  C   UNL     1       2.000   7.168  20.089  0.00  0.00    +0.000 A 
ATOM      6  C   UNL     1       1.550   8.462  20.404  0.00  0.00    +0.000 A 
ENDROOT
BRANCH   4   7
ATOM      7  N   UNL     1       2.795   5.496  18.433  0.00  0.00    +0.000 N 
ATOM      8  C   UNL     1       4.033   4.971  18.788  0.00  0.00    +0.000 C 
ATOM      9  O   UNL     1       4.920   5.469  19.465  0.00  0.00    +0.000 OA
ATOM     10  C   UNL     1       4.166   3.589  18.238  0.00  0.00    +0.000 C 
ATOM     11  C   UNL     1       4.243   2.465  19.292  0.00  0.00    +0.000 C 
ATOM     12  C   UNL     1       3.136   2.620  20.312  0.00  0.00    +0.000 C 
ATOM     13  C   UNL     1       1.979   2.373  19.685  0.00  0.00    +0.000 C 
ATOM     14  C   UNL     1       2.309   2.057  18.243  0.00  0.00    +0.000 C 
ATOM     15  C   UNL     1       3.629   1.308  18.481  0.00  0.00    +0.000 C 
ATOM     16  C   UNL     1       2.834   3.320  17.529  0.00  0.00    +0.000 C 
ATOM     17  C   UNL     1       2.034   4.576  17.733  0.00  0.00    +0.000 C 
ATOM     18  O   UNL     1       0.903   4.684  17.276  0.00  0.00    +0.000 OA
ENDBRANCH   4   7
BRANCH   1  21
ATOM     19  C   UNL     1       2.592  11.921  18.191  0.00  0.00    +0.000 C 
ATOM     20  N   UNL     1       1.515  11.967  19.191  0.00  0.00    +0.000 N 
ATOM     21  C   UNL     1       0.992  10.810  19.814  0.00  0.00    +0.000 C 
ATOM     22  O   UNL     1       0.127  10.805  20.690  0.00  0.00    +0.000 OA
BRANCH  20  23
ATOM     23  C   UNL     1       0.919  13.294  19.400  0.00  0.00    +0.000 A 
ATOM     24  C   UNL     1      -0.143  13.712  18.572  0.00  0.00    +0.000 A 
ATOM     25  C   UNL     1      -0.619  15.020  18.595  0.00  0.00    +0.000 A 
ATOM     26  C   UNL     1       0.002  15.958  19.399  0.00  0.00    +0.000 A 
ATOM     27  C   UNL     1       1.063  15.581  20.229  0.00  0.00    +0.000 A 
ATOM     28  C   UNL     1       1.754  16.558  20.961  0.00  0.00    +0.000 A 
ATOM     29  C   UNL     1       2.776  16.194  21.822  0.00  0.00    +0.000 A 
ATOM     30  C   UNL     1       3.034  14.853  21.967  0.00  0.00    +0.000 A 
ATOM     31  N   UNL     1       2.424  13.894  21.239  0.00  0.00    +0.000 NA
ATOM     32  C   UNL     1       1.482  14.231  20.316  0.00  0.00    +0.000 A 
ENDBRANCH  20  23
ENDBRANCH   1  21
TORSDOF 3
ENDMDL
MODEL 5
REMARK VINA RESULT:      -8.5      1.642      2.682
REMARK  Name = 
REMARK  4 active torsions:
REMARK  status: ('A' for Active; 'I' for Inactive)
REMARK    1  A    between atoms: C_1  and  N_2
REMARK    2  A    between atoms: N_2  and  C_23
REMARK    3  A    between atoms: C_3  and  C_5
REMARK    4  A    between atoms: C_8  and  N_9
REMARK                            x       y       z     vdW  Elec       q    Type
REMARK                         _______ _______ _______ _____ _____    ______ ____
ROOT
ATOM      1  C   UNL     1       1.307   9.306  19.488  0.00  0.00    +0.000 A 
ATOM      2  C   UNL     1       1.305   8.272  20.416  0.00  0.00    +0.000 A 
ATOM      3  C   UNL     1       1.838   7.019  20.081  0.00  0.00    +0.000 A 
ATOM      4  C   UNL     1       2.300   6.725  18.788  0.00  0.00    +0.000 A 
ATOM      5  C   UNL     1       2.227   7.759  17.842  0.00  0.00    +0.000 A 
ATOM      6  C   UNL     1       1.744   9.032  18.188  0.00  0.00    +0.000 A 
ENDROOT
BRANCH   4   7
ATOM      7  N   UNL     1       2.815   5.426  18.460  0.00  0.00    +0.000 N 
ATOM      8  C   UNL     1       4.067   4.966  18.854  0.00  0.00    +0.000 C 
ATOM      9  O   UNL     1       4.906   5.510  19.556  0.00  0.00    +0.000 OA
ATOM     10  C   UNL     1       4.288   3.592  18.312  0.00  0.00    +0.000 C 
ATOM     11  C   UNL     1       4.391   2.475  19.372  0.00  0.00    +0.000 C 
ATOM     12  C   UNL     1       3.246   2.574  20.357  0.00  0.00    +0.000 C 
ATOM     13  C   UNL     1       2.123   2.266  19.696  0.00  0.00    +0.000 C 
ATOM     14  C   UNL     1       2.514   1.966  18.266  0.00  0.00    +0.000 C 
ATOM     15  C   UNL     1       3.863   1.286  18.546  0.00  0.00    +0.000 C 
ATOM     16  C   UNL     1       2.994   3.253  17.565  0.00  0.00    +0.000 C 
ATOM     17  C   UNL     1       2.124   4.466  17.740  0.00  0.00    +0.000 C 
ATOM     18  O   UNL     1       1.004   4.515  17.249  0.00  0.00    +0.000 OA
ENDBRANCH   4   7
BRANCH   1  21
ATOM     19  C   UNL     1       0.677  10.168  22.274  0.00  0.00    +0.000 C 
ATOM     20  N   UNL     1       0.531  11.072  21.123  0.00  0.00    +0.000 N 
ATOM     21  C   UNL     1       0.785  10.670  19.791  0.00  0.00    +0.000 C 
ATOM     22  O   UNL     1       0.630  11.376  18.795  0.00  0.00    +0.000 OA
BRANCH  20  23
ATOM     23  C   UNL     1       0.236  12.469  21.466  0.00  0.00    +0.000 A 
ATOM     24  C   UNL     1       1.211  13.460  21.231  0.00  0.00    +0.000 A 
ATOM     25  C   UNL     1       1.065  14.760  21.705  0.00  0.00    +0.000 A 
ATOM     26  C   UNL     1      -0.031  15.083  22.486  0.00  0.00    +0.000 A 
ATOM     27  C   UNL     1      -1.016  14.123  22.746  0.00  0.00    +0.000 A 
ATOM     28  C   UNL     1      -2.067  14.428  23.623  0.00  0.00    +0.000 A 
ATOM     29  C   UNL     1      -3.074  13.505  23.854  0.00  0.00    +0.000 A 
ATOM     30  C   UNL     1      -3.026  12.326  23.151  0.00  0.00    +0.000 A 
ATOM     31  N   UNL     1      -2.002  11.984  22.341  0.00  0.00    +0.000 NA
ATOM     32  C   UNL     1      -0.952  12.832  22.170  0.00  0.00    +0.000 A 
ENDBRANCH  20  23
ENDBRANCH   1  21
TORSDOF 3
ENDMDL
MODEL 6
REMARK VINA RESULT:      -8.4      1.398      2.202
REMARK  Name = 
REMARK  4 active torsions:
REMARK  status: ('A' for Active; 'I' for Inactive)
REMARK    1  A    between atoms: C_1  and  N_2
REMARK    2  A    between atoms: N_2  and  C_23
REMARK    3  A    between atoms: C_3  and  C_5
REMARK    4  A    between atoms: C_8  and  N_9
REMARK                            x       y       z     vdW  Elec       q    Type
REMARK                         _______ _______ _______ _____ _____    ______ ____
ROOT
ATOM      1  C   UNL     1       1.439   9.371  19.220  0.00  0.00    +0.000 A 
ATOM      2  C   UNL     1       1.460   8.428  20.240  0.00  0.00    +0.000 A 
ATOM      3  C   UNL     1       1.971   7.144  20.006  0.00  0.00    +0.000 A 
ATOM      4  C   UNL     1       2.388   6.725  18.730  0.00  0.00    +0.000 A 
ATOM      5  C   UNL     1       2.291   7.668  17.696  0.00  0.00    +0.000 A 
ATOM      6  C   UNL     1       1.830   8.973  17.937  0.00  0.00    +0.000 A 
ENDROOT
BRANCH   4   7
ATOM      7  N   UNL     1       2.881   5.396  18.508  0.00  0.00    +0.000 N 
ATOM      8  C   UNL     1       4.107   4.936  18.977  0.00  0.00    +0.000 C 
ATOM      9  O   UNL     1       4.935   5.507  19.672  0.00  0.00    +0.000 OA
ATOM     10  C   UNL     1       4.313   3.524  18.535  0.00  0.00    +0.000 C 
ATOM     11  C   UNL     1       4.351   2.478  19.669  0.00  0.00    +0.000 C 
ATOM     12  C   UNL     1       3.176   2.668  20.604  0.00  0.00    +0.000 C 
ATOM     13  C   UNL     1       2.069   2.342  19.924  0.00  0.00    +0.000 C 
ATOM     14  C   UNL     1       2.501   1.939  18.532  0.00  0.00    +0.000 C 
ATOM     15  C   UNL     1       3.823   1.249  18.905  0.00  0.00    +0.000 C 
ATOM     16  C   UNL     1       3.037   3.165  17.765  0.00  0.00    +0.000 C 
ATOM     17  C   UNL     1       2.192   4.406  17.828  0.00  0.00    +0.000 C 
ATOM     18  O   UNL     1       1.091   4.447  17.295  0.00  0.00    +0.000 OA
ENDBRANCH   4   7
BRANCH   1  21
ATOM     19  C   UNL     1      -0.417  10.084  21.444  0.00  0.00    +0.000 C 
ATOM     20  N   UNL     1       0.091  11.088  20.497  0.00  0.00    +0.000 N 
ATOM     21  C   UNL     1       0.938  10.763  19.412  0.00  0.00    +0.000 C 
ATOM     22  O   UNL     1       1.347  11.560  18.568  0.00  0.00    +0.000 OA
BRANCH  20  23
ATOM     23  C   UNL     1      -0.231  12.480  20.837  0.00  0.00    +0.000 A 
ATOM     24  C   UNL     1       0.757  13.293  21.430  0.00  0.00    +0.000 A 
ATOM     25  C   UNL     1       0.459  14.551  21.945  0.00  0.00    +0.000 A 
ATOM     26  C   UNL     1      -0.850  14.999  21.939  0.00  0.00    +0.000 A 
ATOM     27  C   UNL     1      -1.858  14.216  21.364  0.00  0.00    +0.000 A 
ATOM     28  C   UNL     1      -3.194  14.630  21.457  0.00  0.00    +0.000 A 
ATOM     29  C   UNL     1      -4.199  13.890  20.853  0.00  0.00    +0.000 A 
ATOM     30  C   UNL     1      -3.822  12.788  20.124  0.00  0.00    +0.000 A 
ATOM     31  N   UNL     1      -2.551  12.337  20.060  0.00  0.00    +0.000 NA
ATOM     32  C   UNL     1      -1.558  12.991  20.723  0.00  0.00    +0.000 A 
ENDBRANCH  20  23
ENDBRANCH   1  21
TORSDOF 3
ENDMDL
MODEL 7
REMARK VINA RESULT:      -8.4      0.879      1.790
REMARK  Name = 
REMARK  4 active torsions:
REMARK  status: ('A' for Active; 'I' for Inactive)
REMARK    1  A    between atoms: C_1  and  N_2
REMARK    2  A    between atoms: N_2  and  C_23
REMARK    3  A    between atoms: C_3  and  C_5
REMARK    4  A    between atoms: C_8  and  N_9
REMARK                            x       y       z     vdW  Elec       q    Type
REMARK                         _______ _______ _______ _____ _____    ______ ____
ROOT
ATOM      1  C   UNL     1       1.122   9.444  20.447  0.00  0.00    +0.000 A 
ATOM      2  C   UNL     1       1.734   9.061  19.260  0.00  0.00    +0.000 A 
ATOM      3  C   UNL     1       2.151   7.737  19.074  0.00  0.00    +0.000 A 
ATOM      4  C   UNL     1       2.061   6.774  20.093  0.00  0.00    +0.000 A 
ATOM      5  C   UNL     1       1.507   7.196  21.311  0.00  0.00    +0.000 A 
ATOM      6  C   UNL     1       1.038   8.509  21.484  0.00  0.00    +0.000 A 
ENDROOT
BRANCH   4   7
ATOM      7  N   UNL     1       2.521   5.430  19.889  0.00  0.00    +0.000 N 
ATOM      8  C   UNL     1       1.701   4.309  19.969  0.00  0.00    +0.000 C 
ATOM      9  O   UNL     1       0.496   4.244  20.162  0.00  0.00    +0.000 OA
ATOM     10  C   UNL     1       2.513   3.077  19.736  0.00  0.00    +0.000 C 
ATOM     11  C   UNL     1       2.166   2.293  18.454  0.00  0.00    +0.000 C 
ATOM     12  C   UNL     1       2.104   3.227  17.263  0.00  0.00    +0.000 C 
ATOM     13  C   UNL     1       3.350   3.659  17.031  0.00  0.00    +0.000 C 
ATOM     14  C   UNL     1       4.247   3.021  18.067  0.00  0.00    +0.000 C 
ATOM     15  C   UNL     1       3.539   1.660  18.159  0.00  0.00    +0.000 C 
ATOM     16  C   UNL     1       3.932   3.590  19.466  0.00  0.00    +0.000 C 
ATOM     17  C   UNL     1       3.822   5.085  19.563  0.00  0.00    +0.000 C 
ATOM     18  O   UNL     1       4.801   5.802  19.398  0.00  0.00    +0.000 OA
ENDBRANCH   4   7
BRANCH   1  21
ATOM     19  C   UNL     1      -1.273  10.536  19.044  0.00  0.00    +0.000 C 
ATOM     20  N   UNL     1      -0.534  11.313  20.049  0.00  0.00    +0.000 N 
ATOM     21  C   UNL     1       0.627  10.829  20.695  0.00  0.00    +0.000 C 
ATOM     22  O   UNL     1       1.305  11.462  21.505  0.00  0.00    +0.000 OA
BRANCH  20  23
ATOM     23  C   UNL     1      -1.166  12.580  20.442  0.00  0.00    +0.000 A 
ATOM     24  C   UNL     1      -2.387  12.554  21.147  0.00  0.00    +0.000 A 
ATOM     25  C   UNL     1      -3.125  13.711  21.379  0.00  0.00    +0.000 A 
ATOM     26  C   UNL     1      -2.692  14.914  20.851  0.00  0.00    +0.000 A 
ATOM     27  C   UNL     1      -1.488  14.977  20.140  0.00  0.00    +0.000 A 
ATOM     28  C   UNL     1      -1.110  16.176  19.520  0.00  0.00    +0.000 A 
ATOM     29  C   UNL     1       0.101  16.268  18.852  0.00  0.00    +0.000 A 
ATOM     30  C   UNL     1       0.922  15.167  18.879  0.00  0.00    +0.000 A 
ATOM     31  N   UNL     1       0.565  13.984  19.422  0.00  0.00    +0.000 NA
ATOM     32  C   UNL     1      -0.659  13.838  20.001  0.00  0.00    +0.000 A 
ENDBRANCH  20  23
ENDBRANCH   1  21
TORSDOF 3
ENDMDL
MODEL 8
REMARK VINA RESULT:      -8.4      1.474      1.922
REMARK  Name = 
REMARK  4 active torsions:
REMARK  status: ('A' for Active; 'I' for Inactive)
REMARK    1  A    between atoms: C_1  and  N_2
REMARK    2  A    between atoms: N_2  and  C_23
REMARK    3  A    between atoms: C_3  and  C_5
REMARK    4  A    between atoms: C_8  and  N_9
REMARK                            x       y       z     vdW  Elec       q    Type
REMARK                         _______ _______ _______ _____ _____    ______ ____
ROOT
ATOM      1  C   UNL     1       1.365   9.383  19.374  0.00  0.00    +0.000 A 
ATOM      2  C   UNL     1       1.339   8.387  20.342  0.00  0.00    +0.000 A 
ATOM      3  C   UNL     1       1.868   7.119  20.067  0.00  0.00    +0.000 A 
ATOM      4  C   UNL     1       2.350   6.769  18.794  0.00  0.00    +0.000 A 
ATOM      5  C   UNL     1       2.302   7.765  17.807  0.00  0.00    +0.000 A 
ATOM      6  C   UNL     1       1.822   9.055  18.093  0.00  0.00    +0.000 A 
ENDROOT
BRANCH   4   7
ATOM      7  N   UNL     1       2.861   5.455  18.528  0.00  0.00    +0.000 N 
ATOM      8  C   UNL     1       4.087   4.990  18.993  0.00  0.00    +0.000 C 
ATOM      9  O   UNL     1       4.900   5.543  19.719  0.00  0.00    +0.000 OA
ATOM     10  C   UNL     1       4.313   3.598  18.501  0.00  0.00    +0.000 C 
ATOM     11  C   UNL     1       4.350   2.511  19.595  0.00  0.00    +0.000 C 
ATOM     12  C   UNL     1       3.162   2.653  20.522  0.00  0.00    +0.000 C 
ATOM     13  C   UNL     1       2.067   2.341  19.817  0.00  0.00    +0.000 C 
ATOM     14  C   UNL     1       2.519   1.995  18.416  0.00  0.00    +0.000 C 
ATOM     15  C   UNL     1       3.844   1.306  18.779  0.00  0.00    +0.000 C 
ATOM     16  C   UNL     1       3.050   3.255  17.703  0.00  0.00    +0.000 C 
ATOM     17  C   UNL     1       2.191   4.484  17.802  0.00  0.00    +0.000 C 
ATOM     18  O   UNL     1       1.096   4.533  17.258  0.00  0.00    +0.000 OA
ENDBRANCH   4   7
BRANCH   1  21
ATOM     19  C   UNL     1       0.392  10.256  22.055  0.00  0.00    +0.000 C 
ATOM     20  N   UNL     1       0.429  11.168  20.902  0.00  0.00    +0.000 N 
ATOM     21  C   UNL     1       0.848  10.762  19.613  0.00  0.00    +0.000 C 
ATOM     22  O   UNL     1       0.849  11.475  18.609  0.00  0.00    +0.000 OA
BRANCH  20  23
ATOM     23  C   UNL     1       0.132  12.573  21.211  0.00  0.00    +0.000 A 
ATOM     24  C   UNL     1      -1.211  12.987  21.321  0.00  0.00    +0.000 A 
ATOM     25  C   UNL     1      -1.559  14.330  21.423  0.00  0.00    +0.000 A 
ATOM     26  C   UNL     1      -0.572  15.298  21.349  0.00  0.00    +0.000 A 
ATOM     27  C   UNL     1       0.771  14.924  21.233  0.00  0.00    +0.000 A 
ATOM     28  C   UNL     1       1.752  15.909  21.053  0.00  0.00    +0.000 A 
ATOM     29  C   UNL     1       3.091  15.559  20.983  0.00  0.00    +0.000 A 
ATOM     30  C   UNL     1       3.408  14.234  21.155  0.00  0.00    +0.000 A 
ATOM     31  N   UNL     1       2.484  13.257  21.278  0.00  0.00    +0.000 NA
ATOM     32  C   UNL     1       1.158  13.563  21.255  0.00  0.00    +0.000 A 
ENDBRANCH  20  23
ENDBRANCH   1  21
TORSDOF 3
ENDMDL
MODEL 9
REMARK VINA RESULT:      -8.2      1.618      2.644
REMARK  Name = 
REMARK  4 active torsions:
REMARK  status: ('A' for Active; 'I' for Inactive)
REMARK    1  A    between atoms: C_1  and  N_2
REMARK    2  A    between atoms: N_2  and  C_23
REMARK    3  A    between atoms: C_3  and  C_5
REMARK    4  A    between atoms: C_8  and  N_9
REMARK                            x       y       z     vdW  Elec       q    Type
REMARK                         _______ _______ _______ _____ _____    ______ ____
ROOT
ATOM      1  C   UNL     1       0.575  10.093  19.386  0.00  0.00    +0.000 A 
ATOM      2  C   UNL     1       1.186   9.660  18.216  0.00  0.00    +0.000 A 
ATOM      3  C   UNL     1       1.859   8.432  18.183  0.00  0.00    +0.000 A 
ATOM      4  C   UNL     1       2.030   7.640  19.331  0.00  0.00    +0.000 A 
ATOM      5  C   UNL     1       1.469   8.128  20.521  0.00  0.00    +0.000 A 
ATOM      6  C   UNL     1       0.747   9.333  20.548  0.00  0.00    +0.000 A 
ENDROOT
BRANCH   4   7
ATOM      7  N   UNL     1       2.748   6.399  19.279  0.00  0.00    +0.000 N 
ATOM      8  C   UNL     1       2.496   5.321  20.121  0.00  0.00    +0.000 C 
ATOM      9  O   UNL     1       1.637   5.195  20.981  0.00  0.00    +0.000 OA
ATOM     10  C   UNL     1       3.448   4.212  19.813  0.00  0.00    +0.000 C 
ATOM     11  C   UNL     1       2.805   2.932  19.240  0.00  0.00    +0.000 C 
ATOM     12  C   UNL     1       1.866   3.275  18.103  0.00  0.00    +0.000 C 
ATOM     13  C   UNL     1       2.617   3.722  17.087  0.00  0.00    +0.000 C 
ATOM     14  C   UNL     1       4.058   3.683  17.544  0.00  0.00    +0.000 C 
ATOM     15  C   UNL     1       3.982   2.406  18.396  0.00  0.00    +0.000 C 
ATOM     16  C   UNL     1       4.294   4.736  18.646  0.00  0.00    +0.000 C 
ATOM     17  C   UNL     1       3.756   6.112  18.373  0.00  0.00    +0.000 C 
ATOM     18  O   UNL     1       4.230   6.810  17.486  0.00  0.00    +0.000 OA
ENDBRANCH   4   7
BRANCH   1  21
ATOM     19  C   UNL     1       1.842  12.606  20.377  0.00  0.00    +0.000 C 
ATOM     20  N   UNL     1       0.447  12.563  19.914  0.00  0.00    +0.000 N 
ATOM     21  C   UNL     1      -0.184  11.374  19.480  0.00  0.00    +0.000 C 
ATOM     22  O   UNL     1      -1.361  11.282  19.131  0.00  0.00    +0.000 OA
BRANCH  20  23
ATOM     23  C   UNL     1      -0.210  13.873  19.801  0.00  0.00    +0.000 A 
ATOM     24  C   UNL     1       0.114  14.718  18.720  0.00  0.00    +0.000 A 
ATOM     25  C   UNL     1      -0.328  16.036  18.662  0.00  0.00    +0.000 A 
ATOM     26  C   UNL     1      -1.049  16.561  19.719  0.00  0.00    +0.000 A 
ATOM     27  C   UNL     1      -1.384  15.754  20.811  0.00  0.00    +0.000 A 
ATOM     28  C   UNL     1      -2.023  16.321  21.923  0.00  0.00    +0.000 A 
ATOM     29  C   UNL     1      -2.403  15.527  22.993  0.00  0.00    +0.000 A 
ATOM     30  C   UNL     1      -2.181  14.175  22.887  0.00  0.00    +0.000 A 
ATOM     31  N   UNL     1      -1.523  13.607  21.854  0.00  0.00    +0.000 NA
ATOM     32  C   UNL     1      -1.055  14.378  20.834  0.00  0.00    +0.000 A 
ENDBRANCH  20  23
ENDBRANCH   1  21
TORSDOF 3
ENDMDL
