MODEL 1
REMARK VINA RESULT:      -7.0      0.000      0.000
REMARK  Name = 
REMARK  5 active torsions:
REMARK  status: ('A' for Active; 'I' for Inactive)
REMARK    1  A    between atoms: C_1  and  C_2
REMARK    2  A    between atoms: C_2  and  S_3
REMARK    3  A    between atoms: S_3  and  C_4
REMARK    4  A    between atoms: N_13  and  C_14
REMARK    5  A    between atoms: C_14  and  C_15
REMARK                            x       y       z     vdW  Elec       q    Type
REMARK                         _______ _______ _______ _____ _____    ______ ____
ROOT
ATOM      1  C   UNL     1       5.670   4.374  16.463  0.00  0.00    +0.000 A 
ATOM      2  N   UNL     1       4.547   3.739  16.315  0.00  0.00    +0.000 NA
ATOM      3  C   UNL     1       3.782   3.657  17.428  0.00  0.00    +0.000 A 
ATOM      4  S   UNL     1       2.332   2.719  17.480  0.00  0.00    +0.000 S 
ATOM      5  C   UNL     1       2.090   3.134  19.084  0.00  0.00    +0.000 A 
ATOM      6  C   UNL     1       3.045   3.970  19.591  0.00  0.00    +0.000 A 
ATOM      7  C   UNL     1       4.048   4.257  18.644  0.00  0.00    +0.000 A 
ATOM      8  C   UNL     1       5.265   5.021  18.777  0.00  0.00    +0.000 A 
ATOM      9  O   UNL     1       5.535   5.620  19.814  0.00  0.00    +0.000 OA
ATOM     10  N   UNL     1       6.102   4.980  17.654  0.00  0.00    +0.000 N 
ATOM     11  C   UNL     1       2.772   4.314  21.007  0.00  0.00    +0.000 C 
ATOM     12  C   UNL     1       1.667   3.281  21.393  0.00  0.00    +0.000 C 
ATOM     13  C   UNL     1       1.039   2.761  20.060  0.00  0.00    +0.000 C 
ENDROOT
BRANCH  10  14
ATOM     14  C   UNL     1       7.437   5.557  17.855  0.00  0.00    +0.000 C 
ATOM     15  C   UNL     1       7.502   7.055  17.595  0.00  0.00    +0.000 C 
ENDBRANCH  10  14
BRANCH   1  16
ATOM     16  S   UNL     1       6.754   4.459  15.077  0.00  0.00    +0.000 S 
BRANCH  16  18
ATOM     17  C   UNL     1       6.485   3.599  12.496  0.00  0.00    +0.000 C 
ATOM     18  C   UNL     1       5.653   4.020  13.700  0.00  0.00    +0.000 C 
ENDBRANCH  16  18
ENDBRANCH   1  16
TORSDOF 3
ENDMDL
MODEL 2
REMARK VINA RESULT:      -6.9      1.083      1.144
REMARK  Name = 
REMARK  5 active torsions:
REMARK  status: ('A' for Active; 'I' for Inactive)
REMARK    1  A    between atoms: C_1  and  C_2
REMARK    2  A    between atoms: C_2  and  S_3
REMARK    3  A    between atoms: S_3  and  C_4
REMARK    4  A    between atoms: N_13  and  C_14
REMARK    5  A    between atoms: C_14  and  C_15
REMARK                            x       y       z     vdW  Elec       q    Type
REMARK                         _______ _______ _______ _____ _____    ______ ____
ROOT
ATOM      1  C   UNL     1       5.522   4.620  16.131  0.00  0.00    +0.000 A 
ATOM      2  N   UNL     1       4.886   3.503  16.316  0.00  0.00    +0.000 NA
ATOM      3  C   UNL     1       3.956   3.525  17.298  0.00  0.00    +0.000 A 
ATOM      4  S   UNL     1       3.120   2.102  17.804  0.00  0.00    +0.000 S 
ATOM      5  C   UNL     1       2.277   2.975  18.958  0.00  0.00    +0.000 A 
ATOM      6  C   UNL     1       2.579   4.308  18.974  0.00  0.00    +0.000 A 
ATOM      7  C   UNL     1       3.575   4.633  18.031  0.00  0.00    +0.000 A 
ATOM      8  C   UNL     1       4.237   5.887  17.769  0.00  0.00    +0.000 A 
ATOM      9  O   UNL     1       3.910   6.917  18.350  0.00  0.00    +0.000 OA
ATOM     10  N   UNL     1       5.286   5.808  16.843  0.00  0.00    +0.000 N 
ATOM     11  C   UNL     1       1.794   5.032  20.003  0.00  0.00    +0.000 C 
ATOM     12  C   UNL     1       1.199   3.863  20.850  0.00  0.00    +0.000 C 
ATOM     13  C   UNL     1       1.270   2.575  19.969  0.00  0.00    +0.000 C 
ENDROOT
BRANCH  10  14
ATOM     14  C   UNL     1       6.112   7.016  16.738  0.00  0.00    +0.000 C 
ATOM     15  C   UNL     1       7.346   6.994  17.629  0.00  0.00    +0.000 C 
ENDBRANCH  10  14
BRANCH   1  16
ATOM     16  S   UNL     1       6.799   4.648  14.919  0.00  0.00    +0.000 S 
BRANCH  16  18
ATOM     17  C   UNL     1       6.888   3.934  12.282  0.00  0.00    +0.000 C 
ATOM     18  C   UNL     1       6.031   3.766  13.530  0.00  0.00    +0.000 C 
ENDBRANCH  16  18
ENDBRANCH   1  16
TORSDOF 3
ENDMDL
MODEL 3
REMARK VINA RESULT:      -6.4      3.466      4.411
REMARK  Name = 
REMARK  5 active torsions:
REMARK  status: ('A' for Active; 'I' for Inactive)
REMARK    1  A    between atoms: C_1  and  C_2
REMARK    2  A    between atoms: C_2  and  S_3
REMARK    3  A    between atoms: S_3  and  C_4
REMARK    4  A    between atoms: N_13  and  C_14
REMARK    5  A    between atoms: C_14  and  C_15
REMARK                            x       y       z     vdW  Elec       q    Type
REMARK                         _______ _______ _______ _____ _____    ______ ____
ROOT
ATOM      1  C   UNL     1       3.826   4.973  17.915  0.00  0.00    +0.000 A 
ATOM      2  N   UNL     1       3.649   6.186  17.487  0.00  0.00    +0.000 NA
ATOM      3  C   UNL     1       2.914   6.981  18.298  0.00  0.00    +0.000 A 
ATOM      4  S   UNL     1       2.433   8.574  17.836  0.00  0.00    +0.000 S 
ATOM      5  C   UNL     1       1.622   8.779  19.286  0.00  0.00    +0.000 A 
ATOM      6  C   UNL     1       1.708   7.704  20.126  0.00  0.00    +0.000 A 
ATOM      7  C   UNL     1       2.434   6.643  19.550  0.00  0.00    +0.000 A 
ATOM      8  C   UNL     1       2.698   5.315  20.047  0.00  0.00    +0.000 A 
ATOM      9  O   UNL     1       2.343   4.970  21.170  0.00  0.00    +0.000 OA
ATOM     10  N   UNL     1       3.344   4.470  19.134  0.00  0.00    +0.000 N 
ATOM     11  C   UNL     1       0.986   7.948  21.398  0.00  0.00    +0.000 C 
ATOM     12  C   UNL     1       0.153   9.227  21.067  0.00  0.00    +0.000 C 
ATOM     13  C   UNL     1       0.823   9.903  19.828  0.00  0.00    +0.000 C 
ENDROOT
BRANCH  10  14
ATOM     14  C   UNL     1       3.412   3.061  19.537  0.00  0.00    +0.000 C 
ATOM     15  C   UNL     1       2.196   2.245  19.121  0.00  0.00    +0.000 C 
ENDBRANCH  10  14
BRANCH   1  16
ATOM     16  S   UNL     1       4.710   3.857  16.877  0.00  0.00    +0.000 S 
BRANCH  16  18
ATOM     17  C   UNL     1       5.998   4.145  14.484  0.00  0.00    +0.000 C 
ATOM     18  C   UNL     1       5.402   4.969  15.619  0.00  0.00    +0.000 C 
ENDBRANCH  16  18
ENDBRANCH   1  16
TORSDOF 3
ENDMDL
MODEL 4
REMARK VINA RESULT:      -6.2      2.135      3.453
REMARK  Name = 
REMARK  5 active torsions:
REMARK  status: ('A' for Active; 'I' for Inactive)
REMARK    1  A    between atoms: C_1  and  C_2
REMARK    2  A    between atoms: C_2  and  S_3
REMARK    3  A    between atoms: S_3  and  C_4
REMARK    4  A    between atoms: N_13  and  C_14
REMARK    5  A    between atoms: C_14  and  C_15
REMARK                            x       y       z     vdW  Elec       q    Type
REMARK                         _______ _______ _______ _____ _____    ______ ____
ROOT
ATOM      1  C   UNL     1       6.299   5.426  18.507  0.00  0.00    +0.000 A 
ATOM      2  N   UNL     1       5.459   5.618  19.480  0.00  0.00    +0.000 NA
ATOM      3  C   UNL     1       4.323   4.887  19.412  0.00  0.00    +0.000 A 
ATOM      4  S   UNL     1       3.016   5.114  20.518  0.00  0.00    +0.000 S 
ATOM      5  C   UNL     1       2.121   3.929  19.745  0.00  0.00    +0.000 A 
ATOM      6  C   UNL     1       2.767   3.345  18.692  0.00  0.00    +0.000 A 
ATOM      7  C   UNL     1       4.037   3.914  18.473  0.00  0.00    +0.000 A 
ATOM      8  C   UNL     1       5.009   3.658  17.437  0.00  0.00    +0.000 A 
ATOM      9  O   UNL     1       4.837   2.773  16.604  0.00  0.00    +0.000 OA
ATOM     10  N   UNL     1       6.114   4.518  17.451  0.00  0.00    +0.000 N 
ATOM     11  C   UNL     1       1.934   2.295  18.057  0.00  0.00    +0.000 C 
ATOM     12  C   UNL     1       0.530   2.560  18.685  0.00  0.00    +0.000 C 
ATOM     13  C   UNL     1       0.758   3.398  19.984  0.00  0.00    +0.000 C 
ENDROOT
BRANCH  10  14
ATOM     14  C   UNL     1       6.989   4.421  16.277  0.00  0.00    +0.000 C 
ATOM     15  C   UNL     1       6.460   5.160  15.056  0.00  0.00    +0.000 C 
ENDBRANCH  10  14
BRANCH   1  16
ATOM     16  S   UNL     1       7.768   6.397  18.487  0.00  0.00    +0.000 S 
BRANCH  16  18
ATOM     17  C   UNL     1       8.132   9.041  17.896  0.00  0.00    +0.000 C 
ATOM     18  C   UNL     1       7.254   7.851  17.528  0.00  0.00    +0.000 C 
ENDBRANCH  16  18
ENDBRANCH   1  16
TORSDOF 3
ENDMDL
MODEL 5
REMARK VINA RESULT:      -6.1      3.415      4.429
REMARK  Name = 
REMARK  5 active torsions:
REMARK  status: ('A' for Active; 'I' for Inactive)
REMARK    1  A    between atoms: C_1  and  C_2
REMARK    2  A    between atoms: C_2  and  S_3
REMARK    3  A    between atoms: S_3  and  C_4
REMARK    4  A    between atoms: N_13  and  C_14
REMARK    5  A    between atoms: C_14  and  C_15
REMARK                            x       y       z     vdW  Elec       q    Type
REMARK                         _______ _______ _______ _____ _____    ______ ____
ROOT
ATOM      1  C   UNL     1       4.189   5.429  17.552  0.00  0.00    +0.000 A 
ATOM      2  N   UNL     1       3.874   6.651  17.246  0.00  0.00    +0.000 NA
ATOM      3  C   UNL     1       3.062   7.275  18.129  0.00  0.00    +0.000 A 
ATOM      4  S   UNL     1       2.403   8.842  17.824  0.00  0.00    +0.000 S 
ATOM      5  C   UNL     1       1.585   8.812  19.284  0.00  0.00    +0.000 A 
ATOM      6  C   UNL     1       1.795   7.676  20.014  0.00  0.00    +0.000 A 
ATOM      7  C   UNL     1       2.631   6.764  19.339  0.00  0.00    +0.000 A 
ATOM      8  C   UNL     1       3.044   5.431  19.703  0.00  0.00    +0.000 A 
ATOM      9  O   UNL     1       2.737   4.939  20.785  0.00  0.00    +0.000 OA
ATOM     10  N   UNL     1       3.773   4.758  18.714  0.00  0.00    +0.000 N 
ATOM     11  C   UNL     1       1.059   7.711  21.301  0.00  0.00    +0.000 C 
ATOM     12  C   UNL     1       0.088   8.916  21.095  0.00  0.00    +0.000 C 
ATOM     13  C   UNL     1       0.670   9.781  19.932  0.00  0.00    +0.000 C 
ENDROOT
BRANCH  10  14
ATOM     14  C   UNL     1       4.001   3.332  18.976  0.00  0.00    +0.000 C 
ATOM     15  C   UNL     1       2.905   2.427  18.430  0.00  0.00    +0.000 C 
ENDBRANCH  10  14
BRANCH   1  16
ATOM     16  S   UNL     1       5.184   4.526  16.414  0.00  0.00    +0.000 S 
BRANCH  16  18
ATOM     17  C   UNL     1       7.349   4.989  18.017  0.00  0.00    +0.000 C 
ATOM     18  C   UNL     1       6.812   5.303  16.626  0.00  0.00    +0.000 C 
ENDBRANCH  16  18
ENDBRANCH   1  16
TORSDOF 3
ENDMDL
MODEL 6
REMARK VINA RESULT:      -6.1      1.931      3.461
REMARK  Name = 
REMARK  5 active torsions:
REMARK  status: ('A' for Active; 'I' for Inactive)
REMARK    1  A    between atoms: C_1  and  C_2
REMARK    2  A    between atoms: C_2  and  S_3
REMARK    3  A    between atoms: S_3  and  C_4
REMARK    4  A    between atoms: N_13  and  C_14
REMARK    5  A    between atoms: C_14  and  C_15
REMARK                            x       y       z     vdW  Elec       q    Type
REMARK                         _______ _______ _______ _____ _____    ______ ____
ROOT
ATOM      1  C   UNL     1       5.753   5.828  17.249  0.00  0.00    +0.000 A 
ATOM      2  N   UNL     1       4.982   6.324  18.169  0.00  0.00    +0.000 NA
ATOM      3  C   UNL     1       3.982   5.511  18.581  0.00  0.00    +0.000 A 
ATOM      4  S   UNL     1       2.758   6.043  19.677  0.00  0.00    +0.000 S 
ATOM      5  C   UNL     1       2.009   4.548  19.608  0.00  0.00    +0.000 A 
ATOM      6  C   UNL     1       2.647   3.644  18.806  0.00  0.00    +0.000 A 
ATOM      7  C   UNL     1       3.781   4.203  18.183  0.00  0.00    +0.000 A 
ATOM      8  C   UNL     1       4.687   3.637  17.213  0.00  0.00    +0.000 A 
ATOM      9  O   UNL     1       4.592   2.467  16.856  0.00  0.00    +0.000 OA
ATOM     10  N   UNL     1       5.630   4.539  16.703  0.00  0.00    +0.000 N 
ATOM     11  C   UNL     1       1.949   2.337  18.794  0.00  0.00    +0.000 C 
ATOM     12  C   UNL     1       0.580   2.685  19.461  0.00  0.00    +0.000 C 
ATOM     13  C   UNL     1       0.779   4.021  20.247  0.00  0.00    +0.000 C 
ENDROOT
BRANCH  10  14
ATOM     14  C   UNL     1       6.403   4.046  15.557  0.00  0.00    +0.000 C 
ATOM     15  C   UNL     1       5.723   4.278  14.215  0.00  0.00    +0.000 C 
ENDBRANCH  10  14
BRANCH   1  16
ATOM     16  S   UNL     1       7.033   6.854  16.608  0.00  0.00    +0.000 S 
BRANCH  16  18
ATOM     17  C   UNL     1       8.240   8.872  18.003  0.00  0.00    +0.000 C 
ATOM     18  C   UNL     1       7.885   7.395  18.119  0.00  0.00    +0.000 C 
ENDBRANCH  16  18
ENDBRANCH   1  16
TORSDOF 3
ENDMDL
MODEL 7
REMARK VINA RESULT:      -5.9      2.812      6.378
REMARK  Name = 
REMARK  5 active torsions:
REMARK  status: ('A' for Active; 'I' for Inactive)
REMARK    1  A    between atoms: C_1  and  C_2
REMARK    2  A    between atoms: C_2  and  S_3
REMARK    3  A    between atoms: S_3  and  C_4
REMARK    4  A    between atoms: N_13  and  C_14
REMARK    5  A    between atoms: C_14  and  C_15
REMARK                            x       y       z     vdW  Elec       q    Type
REMARK                         _______ _______ _______ _____ _____    ______ ____
ROOT
ATOM      1  C   UNL     1       2.560   5.731  19.348  0.00  0.00    +0.000 A 
ATOM      2  N   UNL     1       3.555   6.472  18.963  0.00  0.00    +0.000 NA
ATOM      3  C   UNL     1       4.255   5.992  17.909  0.00  0.00    +0.000 A 
ATOM      4  S   UNL     1       5.704   6.745  17.348  0.00  0.00    +0.000 S 
ATOM      5  C   UNL     1       5.880   5.581  16.158  0.00  0.00    +0.000 A 
ATOM      6  C   UNL     1       4.882   4.648  16.143  0.00  0.00    +0.000 A 
ATOM      7  C   UNL     1       3.946   4.863  17.174  0.00  0.00    +0.000 A 
ATOM      8  C   UNL     1       2.796   4.085  17.567  0.00  0.00    +0.000 A 
ATOM      9  O   UNL     1       2.441   3.100  16.927  0.00  0.00    +0.000 OA
ATOM     10  N   UNL     1       2.169   4.527  18.739  0.00  0.00    +0.000 N 
ATOM     11  C   UNL     1       5.082   3.654  15.061  0.00  0.00    +0.000 C 
ATOM     12  C   UNL     1       6.554   3.933  14.621  0.00  0.00    +0.000 C 
ATOM     13  C   UNL     1       6.918   5.368  15.121  0.00  0.00    +0.000 C 
ENDROOT
BRANCH  10  14
ATOM     14  C   UNL     1       1.147   3.620  19.275  0.00  0.00    +0.000 C 
ATOM     15  C   UNL     1       1.698   2.577  20.238  0.00  0.00    +0.000 C 
ENDBRANCH  10  14
BRANCH   1  16
ATOM     16  S   UNL     1       1.647   6.253  20.761  0.00  0.00    +0.000 S 
BRANCH  16  18
ATOM     17  C   UNL     1       0.824   8.687  21.693  0.00  0.00    +0.000 C 
ATOM     18  C   UNL     1       1.570   8.052  20.526  0.00  0.00    +0.000 C 
ENDBRANCH  16  18
ENDBRANCH   1  16
TORSDOF 3
ENDMDL
MODEL 8
REMARK VINA RESULT:      -5.9      4.310      6.366
REMARK  Name = 
REMARK  5 active torsions:
REMARK  status: ('A' for Active; 'I' for Inactive)
REMARK    1  A    between atoms: C_1  and  C_2
REMARK    2  A    between atoms: C_2  and  S_3
REMARK    3  A    between atoms: S_3  and  C_4
REMARK    4  A    between atoms: N_13  and  C_14
REMARK    5  A    between atoms: C_14  and  C_15
REMARK                            x       y       z     vdW  Elec       q    Type
REMARK                         _______ _______ _______ _____ _____    ______ ____
ROOT
ATOM      1  C   UNL     1       1.666   7.878  20.425  0.00  0.00    +0.000 A 
ATOM      2  N   UNL     1       1.540   6.747  21.052  0.00  0.00    +0.000 NA
ATOM      3  C   UNL     1       1.872   5.651  20.334  0.00  0.00    +0.000 A 
ATOM      4  S   UNL     1       1.623   4.050  20.932  0.00  0.00    +0.000 S 
ATOM      5  C   UNL     1       2.231   3.397  19.515  0.00  0.00    +0.000 A 
ATOM      6  C   UNL     1       2.638   4.331  18.604  0.00  0.00    +0.000 A 
ATOM      7  C   UNL     1       2.408   5.645  19.060  0.00  0.00    +0.000 A 
ATOM      8  C   UNL     1       2.611   6.911  18.398  0.00  0.00    +0.000 A 
ATOM      9  O   UNL     1       3.128   6.976  17.287  0.00  0.00    +0.000 OA
ATOM     10  N   UNL     1       2.136   8.020  19.109  0.00  0.00    +0.000 N 
ATOM     11  C   UNL     1       3.180   3.697  17.378  0.00  0.00    +0.000 C 
ATOM     12  C   UNL     1       2.729   2.211  17.546  0.00  0.00    +0.000 C 
ATOM     13  C   UNL     1       2.406   1.998  19.060  0.00  0.00    +0.000 C 
ENDROOT
BRANCH  10  14
ATOM     14  C   UNL     1       2.126   9.280  18.356  0.00  0.00    +0.000 C 
ATOM     15  C   UNL     1       0.758   9.650  17.800  0.00  0.00    +0.000 C 
ENDBRANCH  10  14
BRANCH   1  16
ATOM     16  S   UNL     1       1.182   9.345  21.271  0.00  0.00    +0.000 S 
BRANCH  16  18
ATOM     17  C   UNL     1      -0.715   9.838  23.176  0.00  0.00    +0.000 C 
ATOM     18  C   UNL     1      -0.347   8.824  22.101  0.00  0.00    +0.000 C 
ENDBRANCH  16  18
ENDBRANCH   1  16
TORSDOF 3
ENDMDL
MODEL 9
REMARK VINA RESULT:      -5.8      3.904      5.077
REMARK  Name = 
REMARK  5 active torsions:
REMARK  status: ('A' for Active; 'I' for Inactive)
REMARK    1  A    between atoms: C_1  and  C_2
REMARK    2  A    between atoms: C_2  and  S_3
REMARK    3  A    between atoms: S_3  and  C_4
REMARK    4  A    between atoms: N_13  and  C_14
REMARK    5  A    between atoms: C_14  and  C_15
REMARK                            x       y       z     vdW  Elec       q    Type
REMARK                         _______ _______ _______ _____ _____    ______ ____
ROOT
ATOM      1  C   UNL     1       3.754   4.827  19.208  0.00  0.00    +0.000 A 
ATOM      2  N   UNL     1       2.850   5.278  20.024  0.00  0.00    +0.000 NA
ATOM      3  C   UNL     1       2.394   6.521  19.747  0.00  0.00    +0.000 A 
ATOM      4  S   UNL     1       1.311   7.359  20.799  0.00  0.00    +0.000 S 
ATOM      5  C   UNL     1       1.309   8.689  19.782  0.00  0.00    +0.000 A 
ATOM      6  C   UNL     1       2.076   8.532  18.662  0.00  0.00    +0.000 A 
ATOM      7  C   UNL     1       2.733   7.285  18.646  0.00  0.00    +0.000 A 
ATOM      8  C   UNL     1       3.686   6.744  17.707  0.00  0.00    +0.000 A 
ATOM      9  O   UNL     1       3.991   7.351  16.684  0.00  0.00    +0.000 OA
ATOM     10  N   UNL     1       4.242   5.516  18.086  0.00  0.00    +0.000 N 
ATOM     11  C   UNL     1       2.025   9.732  17.793  0.00  0.00    +0.000 C 
ATOM     12  C   UNL     1       1.363  10.792  18.730  0.00  0.00    +0.000 C 
ATOM     13  C   UNL     1       0.637  10.007  19.870  0.00  0.00    +0.000 C 
ENDROOT
BRANCH  10  14
ATOM     14  C   UNL     1       5.372   5.068  17.263  0.00  0.00    +0.000 C 
ATOM     15  C   UNL     1       4.955   4.316  16.007  0.00  0.00    +0.000 C 
ENDBRANCH  10  14
BRANCH   1  16
ATOM     16  S   UNL     1       4.450   3.245  19.547  0.00  0.00    +0.000 S 
BRANCH  16  18
ATOM     17  C   UNL     1       2.486   2.304  17.894  0.00  0.00    +0.000 C 
ATOM     18  C   UNL     1       3.028   2.140  19.309  0.00  0.00    +0.000 C 
ENDBRANCH  16  18
ENDBRANCH   1  16
TORSDOF 3
ENDMDL
