MODEL 1
REMARK VINA RESULT:      -6.9      0.000      0.000
REMARK  Name = 
REMARK  9 active torsions:
REMARK  status: ('A' for Active; 'I' for Inactive)
REMARK    1  A    between atoms: C_1  and  N_2
REMARK    2  A    between atoms: C_3  and  C_5
REMARK    3  A    between atoms: C_6  and  C_7
REMARK    4  A    between atoms: C_20  and  C_21
REMARK    5  A    between atoms: C_22  and  C_23
REMARK    6  A    between atoms: C_23  and  C_24
REMARK    7  A    between atoms: C_23  and  O_25
REMARK    8  A    between atoms: C_23  and  C_26
REMARK    9  A    between atoms: C_26  and  O_27
REMARK                            x       y       z     vdW  Elec       q    Type
REMARK                         _______ _______ _______ _____ _____    ______ ____
ROOT
ATOM      1  C   UNL     1       0.131  11.989  20.606  0.00  0.00    +0.000 A 
ATOM      2  C   UNL     1       0.162  11.931  19.221  0.00  0.00    +0.000 A 
ATOM      3  N   UNL     1       0.551  10.665  18.796  0.00  0.00    +0.000 NA
ATOM      4  C   UNL     1       0.770   9.955  19.887  0.00  0.00    +0.000 A 
ATOM      5  N   UNL     1       0.537  10.729  21.002  0.00  0.00    +0.000 N 
ATOM      6  C   UNL     1       0.605  10.186  22.344  0.00  0.00    +0.000 C 
ATOM      7  C   UNL     1      -0.382   9.046  22.490  0.00  0.00    +0.000 C 
ATOM      8  O   UNL     1       0.025   7.784  21.978  0.00  0.00    +0.000 OA
ATOM      9  C   UNL     1       0.868   7.634  20.918  0.00  0.00    +0.000 A 
ATOM     10  C   UNL     1       1.385   6.330  20.870  0.00  0.00    +0.000 A 
ATOM     11  C   UNL     1       2.301   5.959  19.898  0.00  0.00    +0.000 A 
ATOM     12  F   UNL     1       2.788   4.709  19.917  0.00  0.00    +0.000 F 
ATOM     13  C   UNL     1       2.711   6.866  18.932  0.00  0.00    +0.000 A 
ATOM     14  C   UNL     1       2.168   8.158  18.942  0.00  0.00    +0.000 A 
ATOM     15  C   UNL     1       1.247   8.567  19.936  0.00  0.00    +0.000 A 
ENDROOT
BRANCH   1  18
ATOM     16  C   UNL     1       0.178  15.232  22.445  0.00  0.00    +0.000 C 
ATOM     17  N   UNL     1       0.522  14.112  21.607  0.00  0.00    +0.000 N 
ATOM     18  C   UNL     1      -0.361  13.066  21.433  0.00  0.00    +0.000 C 
ATOM     19  O   UNL     1      -1.456  13.042  21.980  0.00  0.00    +0.000 OA
ATOM     20  H   UNL     1       1.278  14.216  20.946  0.00  0.00    +0.000 HD
ENDBRANCH   1  18
BRANCH   2  21
ATOM     21  C   UNL     1      -0.154  13.011  18.289  0.00  0.00    +0.000 C 
ATOM     22  N   UNL     1      -1.118  12.691  17.376  0.00  0.00    +0.000 N 
ATOM     23  O   UNL     1       0.393  14.110  18.284  0.00  0.00    +0.000 OA
ATOM     24  H   UNL     1      -1.553  11.777  17.403  0.00  0.00    +0.000 HD
ATOM     25  H   UNL     1      -1.416  13.392  16.716  0.00  0.00    +0.000 HD
ENDBRANCH   2  21
BRANCH  13  26
ATOM     26  C   UNL     1       3.682   6.479  17.954  0.00  0.00    +0.000 C 
ATOM     27  C   UNL     1       4.573   6.139  17.064  0.00  0.00    +0.000 C 
BRANCH  27  28
ATOM     28  C   UNL     1       5.610   5.741  16.027  0.00  0.00    +0.000 C 
ATOM     29  C   UNL     1       5.388   4.289  15.611  0.00  0.00    +0.000 C 
BRANCH  28  30
ATOM     30  O   UNL     1       5.462   6.591  14.886  0.00  0.00    +0.000 OA
ATOM     31  H   UNL     1       5.960   7.403  15.079  0.00  0.00    +0.000 HD
ENDBRANCH  28  30
BRANCH  28  32
ATOM     32  C   UNL     1       7.035   5.928  16.590  0.00  0.00    +0.000 C 
BRANCH  32  33
ATOM     33  O   UNL     1       7.672   4.670  16.842  0.00  0.00    +0.000 OA
ATOM     34  H   UNL     1       7.070   3.999  16.467  0.00  0.00    +0.000 HD
ENDBRANCH  32  33
ENDBRANCH  28  32
ENDBRANCH  27  28
ENDBRANCH  13  26
TORSDOF 7
ENDMDL
MODEL 2
REMARK VINA RESULT:      -6.9      1.045      1.088
REMARK  Name = 
REMARK  9 active torsions:
REMARK  status: ('A' for Active; 'I' for Inactive)
REMARK    1  A    between atoms: C_1  and  N_2
REMARK    2  A    between atoms: C_3  and  C_5
REMARK    3  A    between atoms: C_6  and  C_7
REMARK    4  A    between atoms: C_20  and  C_21
REMARK    5  A    between atoms: C_22  and  C_23
REMARK    6  A    between atoms: C_23  and  C_24
REMARK    7  A    between atoms: C_23  and  O_25
REMARK    8  A    between atoms: C_23  and  C_26
REMARK    9  A    between atoms: C_26  and  O_27
REMARK                            x       y       z     vdW  Elec       q    Type
REMARK                         _______ _______ _______ _____ _____    ______ ____
ROOT
ATOM      1  C   UNL     1       0.384  11.827  20.667  0.00  0.00    +0.000 A 
ATOM      2  C   UNL     1       0.593  11.853  19.296  0.00  0.00    +0.000 A 
ATOM      3  N   UNL     1       0.986  10.599  18.841  0.00  0.00    +0.000 NA
ATOM      4  C   UNL     1       1.034   9.814  19.901  0.00  0.00    +0.000 A 
ATOM      5  N   UNL     1       0.687  10.529  21.026  0.00  0.00    +0.000 N 
ATOM      6  C   UNL     1       0.558   9.901  22.327  0.00  0.00    +0.000 C 
ATOM      7  C   UNL     1      -0.482   8.801  22.269  0.00  0.00    +0.000 C 
ATOM      8  O   UNL     1      -0.060   7.556  21.729  0.00  0.00    +0.000 OA
ATOM      9  C   UNL     1       0.908   7.432  20.778  0.00  0.00    +0.000 A 
ATOM     10  C   UNL     1       1.377   6.111  20.710  0.00  0.00    +0.000 A 
ATOM     11  C   UNL     1       2.397   5.758  19.840  0.00  0.00    +0.000 A 
ATOM     12  F   UNL     1       2.830   4.489  19.838  0.00  0.00    +0.000 F 
ATOM     13  C   UNL     1       2.964   6.703  18.998  0.00  0.00    +0.000 A 
ATOM     14  C   UNL     1       2.474   8.015  19.024  0.00  0.00    +0.000 A 
ATOM     15  C   UNL     1       1.447   8.406  19.918  0.00  0.00    +0.000 A 
ENDROOT
BRANCH   1  18
ATOM     16  C   UNL     1      -2.235  13.886  22.341  0.00  0.00    +0.000 C 
ATOM     17  N   UNL     1      -1.547  12.871  21.586  0.00  0.00    +0.000 N 
ATOM     18  C   UNL     1      -0.171  12.874  21.494  0.00  0.00    +0.000 C 
ATOM     19  O   UNL     1       0.516  13.730  22.038  0.00  0.00    +0.000 OA
ATOM     20  H   UNL     1      -2.042  12.022  21.354  0.00  0.00    +0.000 HD
ENDBRANCH   1  18
BRANCH   2  21
ATOM     21  C   UNL     1       0.443  13.002  18.406  0.00  0.00    +0.000 C 
ATOM     22  N   UNL     1      -0.756  13.042  17.751  0.00  0.00    +0.000 N 
ATOM     23  O   UNL     1       1.302  13.859  18.222  0.00  0.00    +0.000 OA
ATOM     24  H   UNL     1      -1.447  12.322  17.922  0.00  0.00    +0.000 HD
ATOM     25  H   UNL     1      -0.951  13.819  17.141  0.00  0.00    +0.000 HD
ENDBRANCH   2  21
BRANCH  13  26
ATOM     26  C   UNL     1       4.039   6.333  18.128  0.00  0.00    +0.000 C 
ATOM     27  C   UNL     1       5.010   5.996  17.326  0.00  0.00    +0.000 C 
BRANCH  27  28
ATOM     28  C   UNL     1       6.142   5.603  16.391  0.00  0.00    +0.000 C 
ATOM     29  C   UNL     1       5.579   5.289  15.007  0.00  0.00    +0.000 C 
BRANCH  28  30
ATOM     30  O   UNL     1       7.056   6.699  16.296  0.00  0.00    +0.000 OA
ATOM     31  H   UNL     1       6.614   7.382  15.762  0.00  0.00    +0.000 HD
ENDBRANCH  28  30
BRANCH  28  32
ATOM     32  C   UNL     1       6.906   4.383  16.952  0.00  0.00    +0.000 C 
BRANCH  32  33
ATOM     33  O   UNL     1       6.459   4.042  18.270  0.00  0.00    +0.000 OA
ATOM     34  H   UNL     1       6.390   3.068  18.273  0.00  0.00    +0.000 HD
ENDBRANCH  32  33
ENDBRANCH  28  32
ENDBRANCH  27  28
ENDBRANCH  13  26
TORSDOF 7
ENDMDL
MODEL 3
REMARK VINA RESULT:      -6.7      1.327      1.501
REMARK  Name = 
REMARK  9 active torsions:
REMARK  status: ('A' for Active; 'I' for Inactive)
REMARK    1  A    between atoms: C_1  and  N_2
REMARK    2  A    between atoms: C_3  and  C_5
REMARK    3  A    between atoms: C_6  and  C_7
REMARK    4  A    between atoms: C_20  and  C_21
REMARK    5  A    between atoms: C_22  and  C_23
REMARK    6  A    between atoms: C_23  and  C_24
REMARK    7  A    between atoms: C_23  and  O_25
REMARK    8  A    between atoms: C_23  and  C_26
REMARK    9  A    between atoms: C_26  and  O_27
REMARK                            x       y       z     vdW  Elec       q    Type
REMARK                         _______ _______ _______ _____ _____    ______ ____
ROOT
ATOM      1  C   UNL     1       0.848  11.702  20.503  0.00  0.00    +0.000 A 
ATOM      2  C   UNL     1       1.100  11.644  19.140  0.00  0.00    +0.000 A 
ATOM      3  N   UNL     1       1.363  10.335  18.750  0.00  0.00    +0.000 NA
ATOM      4  C   UNL     1       1.292   9.598  19.842  0.00  0.00    +0.000 A 
ATOM      5  N   UNL     1       0.993  10.395  20.924  0.00  0.00    +0.000 N 
ATOM      6  C   UNL     1       0.756   9.844  22.244  0.00  0.00    +0.000 C 
ATOM      7  C   UNL     1      -0.398   8.864  22.195  0.00  0.00    +0.000 C 
ATOM      8  O   UNL     1      -0.102   7.557  21.722  0.00  0.00    +0.000 OA
ATOM      9  C   UNL     1       0.874   7.285  20.810  0.00  0.00    +0.000 A 
ATOM     10  C   UNL     1       1.194   5.919  20.812  0.00  0.00    +0.000 A 
ATOM     11  C   UNL     1       2.194   5.417  19.993  0.00  0.00    +0.000 A 
ATOM     12  F   UNL     1       2.482   4.109  20.057  0.00  0.00    +0.000 F 
ATOM     13  C   UNL     1       2.888   6.256  19.133  0.00  0.00    +0.000 A 
ATOM     14  C   UNL     1       2.547   7.614  19.089  0.00  0.00    +0.000 A 
ATOM     15  C   UNL     1       1.544   8.154  19.930  0.00  0.00    +0.000 A 
ENDROOT
BRANCH   1  18
ATOM     16  C   UNL     1      -1.511  14.313  21.736  0.00  0.00    +0.000 C 
ATOM     17  N   UNL     1      -0.934  13.172  21.071  0.00  0.00    +0.000 N 
ATOM     18  C   UNL     1       0.389  12.839  21.267  0.00  0.00    +0.000 C 
ATOM     19  O   UNL     1       1.123  13.492  21.998  0.00  0.00    +0.000 OA
ATOM     20  H   UNL     1      -1.553  12.474  20.684  0.00  0.00    +0.000 HD
ENDBRANCH   1  18
BRANCH   2  21
ATOM     21  C   UNL     1       1.105  12.763  18.199  0.00  0.00    +0.000 C 
ATOM     22  N   UNL     1       2.279  12.904  17.514  0.00  0.00    +0.000 N 
ATOM     23  O   UNL     1       0.169  13.538  18.032  0.00  0.00    +0.000 OA
ATOM     24  H   UNL     1       3.036  12.250  17.671  0.00  0.00    +0.000 HD
ATOM     25  H   UNL     1       2.354  13.634  16.823  0.00  0.00    +0.000 HD
ENDBRANCH   2  21
BRANCH  13  26
ATOM     26  C   UNL     1       3.940   5.731  18.317  0.00  0.00    +0.000 C 
ATOM     27  C   UNL     1       4.908   5.258  17.582  0.00  0.00    +0.000 C 
BRANCH  27  28
ATOM     28  C   UNL     1       6.035   4.707  16.724  0.00  0.00    +0.000 C 
ATOM     29  C   UNL     1       7.345   4.752  17.507  0.00  0.00    +0.000 C 
BRANCH  28  30
ATOM     30  O   UNL     1       5.729   3.351  16.387  0.00  0.00    +0.000 OA
ATOM     31  H   UNL     1       5.255   2.976  17.149  0.00  0.00    +0.000 HD
ENDBRANCH  28  30
BRANCH  28  32
ATOM     32  C   UNL     1       6.161   5.515  15.415  0.00  0.00    +0.000 C 
BRANCH  32  33
ATOM     33  O   UNL     1       7.506   5.510  14.919  0.00  0.00    +0.000 OA
ATOM     34  H   UNL     1       7.428   5.719  13.968  0.00  0.00    +0.000 HD
ENDBRANCH  32  33
ENDBRANCH  28  32
ENDBRANCH  27  28
ENDBRANCH  13  26
TORSDOF 7
ENDMDL
MODEL 4
REMARK VINA RESULT:      -6.5      3.691      9.101
REMARK  Name = 
REMARK  9 active torsions:
REMARK  status: ('A' for Active; 'I' for Inactive)
REMARK    1  A    between atoms: C_1  and  N_2
REMARK    2  A    between atoms: C_3  and  C_5
REMARK    3  A    between atoms: C_6  and  C_7
REMARK    4  A    between atoms: C_20  and  C_21
REMARK    5  A    between atoms: C_22  and  C_23
REMARK    6  A    between atoms: C_23  and  C_24
REMARK    7  A    between atoms: C_23  and  O_25
REMARK    8  A    between atoms: C_23  and  C_26
REMARK    9  A    between atoms: C_26  and  O_27
REMARK                            x       y       z     vdW  Elec       q    Type
REMARK                         _______ _______ _______ _____ _____    ______ ____
ROOT
ATOM      1  C   UNL     1       3.472   4.668  19.860  0.00  0.00    +0.000 A 
ATOM      2  C   UNL     1       2.221   4.585  20.456  0.00  0.00    +0.000 A 
ATOM      3  N   UNL     1       1.510   5.763  20.258  0.00  0.00    +0.000 NA
ATOM      4  C   UNL     1       2.300   6.566  19.570  0.00  0.00    +0.000 A 
ATOM      5  N   UNL     1       3.500   5.939  19.321  0.00  0.00    +0.000 N 
ATOM      6  C   UNL     1       4.530   6.545  18.500  0.00  0.00    +0.000 C 
ATOM      7  C   UNL     1       3.984   6.831  17.115  0.00  0.00    +0.000 C 
ATOM      8  O   UNL     1       3.202   8.008  16.972  0.00  0.00    +0.000 OA
ATOM      9  C   UNL     1       2.440   8.537  17.971  0.00  0.00    +0.000 A 
ATOM     10  C   UNL     1       2.088   9.864  17.683  0.00  0.00    +0.000 A 
ATOM     11  C   UNL     1       1.348  10.619  18.580  0.00  0.00    +0.000 A 
ATOM     12  F   UNL     1       1.067  11.893  18.270  0.00  0.00    +0.000 F 
ATOM     13  C   UNL     1       0.917  10.068  19.778  0.00  0.00    +0.000 A 
ATOM     14  C   UNL     1       1.223   8.729  20.057  0.00  0.00    +0.000 A 
ATOM     15  C   UNL     1       1.994   7.944  19.167  0.00  0.00    +0.000 A 
ENDROOT
BRANCH   1  18
ATOM     16  C   UNL     1       4.801   1.189  19.683  0.00  0.00    +0.000 C 
ATOM     17  N   UNL     1       3.933   2.335  19.774  0.00  0.00    +0.000 N 
ATOM     18  C   UNL     1       4.447   3.613  19.707  0.00  0.00    +0.000 C 
ATOM     19  O   UNL     1       5.646   3.827  19.576  0.00  0.00    +0.000 OA
ATOM     20  H   UNL     1       2.944   2.207  19.617  0.00  0.00    +0.000 HD
ENDBRANCH   1  18
BRANCH   2  21
ATOM     21  C   UNL     1       1.677   3.451  21.199  0.00  0.00    +0.000 C 
ATOM     22  N   UNL     1       0.557   2.906  20.636  0.00  0.00    +0.000 N 
ATOM     23  O   UNL     1       2.142   3.017  22.249  0.00  0.00    +0.000 OA
ATOM     24  H   UNL     1       0.194   3.284  19.770  0.00  0.00    +0.000 HD
ATOM     25  H   UNL     1       0.136   2.101  21.071  0.00  0.00    +0.000 HD
ENDBRANCH   2  21
BRANCH  13  26
ATOM     26  C   UNL     1       0.182  10.868  20.710  0.00  0.00    +0.000 C 
ATOM     27  C   UNL     1      -0.493  11.605  21.548  0.00  0.00    +0.000 C 
BRANCH  27  28
ATOM     28  C   UNL     1      -1.278  12.463  22.526  0.00  0.00    +0.000 C 
ATOM     29  C   UNL     1      -2.140  11.569  23.415  0.00  0.00    +0.000 C 
BRANCH  28  30
ATOM     30  O   UNL     1      -0.352  13.191  23.338  0.00  0.00    +0.000 OA
ATOM     31  H   UNL     1      -0.524  12.928  24.259  0.00  0.00    +0.000 HD
ENDBRANCH  28  30
BRANCH  28  32
ATOM     32  C   UNL     1      -2.159  13.478  21.767  0.00  0.00    +0.000 C 
BRANCH  32  33
ATOM     33  O   UNL     1      -3.324  12.855  21.213  0.00  0.00    +0.000 OA
ATOM     34  H   UNL     1      -3.046  11.946  20.988  0.00  0.00    +0.000 HD
ENDBRANCH  32  33
ENDBRANCH  28  32
ENDBRANCH  27  28
ENDBRANCH  13  26
TORSDOF 7
ENDMDL
MODEL 5
REMARK VINA RESULT:      -6.4      7.691      8.988
REMARK  Name = 
REMARK  9 active torsions:
REMARK  status: ('A' for Active; 'I' for Inactive)
REMARK    1  A    between atoms: C_1  and  N_2
REMARK    2  A    between atoms: C_3  and  C_5
REMARK    3  A    between atoms: C_6  and  C_7
REMARK    4  A    between atoms: C_20  and  C_21
REMARK    5  A    between atoms: C_22  and  C_23
REMARK    6  A    between atoms: C_23  and  C_24
REMARK    7  A    between atoms: C_23  and  O_25
REMARK    8  A    between atoms: C_23  and  C_26
REMARK    9  A    between atoms: C_26  and  O_27
REMARK                            x       y       z     vdW  Elec       q    Type
REMARK                         _______ _______ _______ _____ _____    ______ ____
ROOT
ATOM      1  C   UNL     1       8.364  14.373  23.573  0.00  0.00    +0.000 A 
ATOM      2  C   UNL     1       8.231  13.076  24.048  0.00  0.00    +0.000 A 
ATOM      3  N   UNL     1       8.654  12.162  23.089  0.00  0.00    +0.000 NA
ATOM      4  C   UNL     1       9.027  12.869  22.038  0.00  0.00    +0.000 A 
ATOM      5  N   UNL     1       8.854  14.210  22.292  0.00  0.00    +0.000 N 
ATOM      6  C   UNL     1       9.271  15.232  21.352  0.00  0.00    +0.000 C 
ATOM      7  C   UNL     1      10.757  15.110  21.082  0.00  0.00    +0.000 C 
ATOM      8  O   UNL     1      11.153  14.114  20.149  0.00  0.00    +0.000 OA
ATOM      9  C   UNL     1      10.472  12.951  19.948  0.00  0.00    +0.000 A 
ATOM     10  C   UNL     1      10.856  12.348  18.741  0.00  0.00    +0.000 A 
ATOM     11  C   UNL     1      10.262  11.173  18.308  0.00  0.00    +0.000 A 
ATOM     12  F   UNL     1      10.642  10.656  17.130  0.00  0.00    +0.000 F 
ATOM     13  C   UNL     1       9.286  10.551  19.074  0.00  0.00    +0.000 A 
ATOM     14  C   UNL     1       8.927  11.120  20.303  0.00  0.00    +0.000 A 
ATOM     15  C   UNL     1       9.503  12.330  20.758  0.00  0.00    +0.000 A 
ENDROOT
BRANCH   1  18
ATOM     16  C   UNL     1       9.221  17.206  25.841  0.00  0.00    +0.000 C 
ATOM     17  N   UNL     1       9.280  16.019  25.027  0.00  0.00    +0.000 N 
ATOM     18  C   UNL     1       8.180  15.604  24.307  0.00  0.00    +0.000 C 
ATOM     19  O   UNL     1       7.118  16.214  24.332  0.00  0.00    +0.000 OA
ATOM     20  H   UNL     1      10.186  15.650  24.776  0.00  0.00    +0.000 HD
ENDBRANCH   1  18
BRANCH   2  21
ATOM     21  C   UNL     1       7.725  12.668  25.356  0.00  0.00    +0.000 C 
ATOM     22  N   UNL     1       8.654  12.732  26.355  0.00  0.00    +0.000 N 
ATOM     23  O   UNL     1       6.582  12.275  25.570  0.00  0.00    +0.000 OA
ATOM     24  H   UNL     1       9.591  13.060  26.152  0.00  0.00    +0.000 HD
ATOM     25  H   UNL     1       8.377  12.496  27.294  0.00  0.00    +0.000 HD
ENDBRANCH   2  21
BRANCH  13  26
ATOM     26  C   UNL     1       8.657   9.357  18.599  0.00  0.00    +0.000 C 
ATOM     27  C   UNL     1       8.096   8.264  18.161  0.00  0.00    +0.000 C 
BRANCH  27  28
ATOM     28  C   UNL     1       7.441   6.991  17.650  0.00  0.00    +0.000 C 
ATOM     29  C   UNL     1       5.925   7.170  17.624  0.00  0.00    +0.000 C 
BRANCH  28  30
ATOM     30  O   UNL     1       7.913   6.737  16.324  0.00  0.00    +0.000 OA
ATOM     31  H   UNL     1       8.790   7.151  16.257  0.00  0.00    +0.000 HD
ENDBRANCH  28  30
BRANCH  28  32
ATOM     32  C   UNL     1       7.827   5.791  18.541  0.00  0.00    +0.000 C 
BRANCH  32  33
ATOM     33  O   UNL     1       6.881   5.593  19.599  0.00  0.00    +0.000 OA
ATOM     34  H   UNL     1       6.077   6.071  19.316  0.00  0.00    +0.000 HD
ENDBRANCH  32  33
ENDBRANCH  28  32
ENDBRANCH  27  28
ENDBRANCH  13  26
TORSDOF 7
ENDMDL
MODEL 6
REMARK VINA RESULT:      -6.4      7.446      8.722
REMARK  Name = 
REMARK  9 active torsions:
REMARK  status: ('A' for Active; 'I' for Inactive)
REMARK    1  A    between atoms: C_1  and  N_2
REMARK    2  A    between atoms: C_3  and  C_5
REMARK    3  A    between atoms: C_6  and  C_7
REMARK    4  A    between atoms: C_20  and  C_21
REMARK    5  A    between atoms: C_22  and  C_23
REMARK    6  A    between atoms: C_23  and  C_24
REMARK    7  A    between atoms: C_23  and  O_25
REMARK    8  A    between atoms: C_23  and  C_26
REMARK    9  A    between atoms: C_26  and  O_27
REMARK                            x       y       z     vdW  Elec       q    Type
REMARK                         _______ _______ _______ _____ _____    ______ ____
ROOT
ATOM      1  C   UNL     1       8.237  14.115  23.626  0.00  0.00    +0.000 A 
ATOM      2  C   UNL     1       8.142  12.803  24.068  0.00  0.00    +0.000 A 
ATOM      3  N   UNL     1       8.577  11.925  23.081  0.00  0.00    +0.000 NA
ATOM      4  C   UNL     1       8.921  12.668  22.046  0.00  0.00    +0.000 A 
ATOM      5  N   UNL     1       8.716  13.998  22.337  0.00  0.00    +0.000 N 
ATOM      6  C   UNL     1       9.098  15.054  21.420  0.00  0.00    +0.000 C 
ATOM      7  C   UNL     1      10.584  14.977  21.132  0.00  0.00    +0.000 C 
ATOM      8  O   UNL     1      10.995  14.016  20.169  0.00  0.00    +0.000 OA
ATOM      9  C   UNL     1      10.341  12.841  19.945  0.00  0.00    +0.000 A 
ATOM     10  C   UNL     1      10.727  12.280  18.719  0.00  0.00    +0.000 A 
ATOM     11  C   UNL     1      10.158  11.101  18.260  0.00  0.00    +0.000 A 
ATOM     12  F   UNL     1      10.539  10.625  17.066  0.00  0.00    +0.000 F 
ATOM     13  C   UNL     1       9.206  10.436  19.020  0.00  0.00    +0.000 A 
ATOM     14  C   UNL     1       8.846  10.962  20.267  0.00  0.00    +0.000 A 
ATOM     15  C   UNL     1       9.397  12.175  20.748  0.00  0.00    +0.000 A 
ENDROOT
BRANCH   1  18
ATOM     16  C   UNL     1       6.431  17.085  24.974  0.00  0.00    +0.000 C 
ATOM     17  N   UNL     1       6.762  15.858  24.297  0.00  0.00    +0.000 N 
ATOM     18  C   UNL     1       8.029  15.321  24.394  0.00  0.00    +0.000 C 
ATOM     19  O   UNL     1       8.916  15.859  25.045  0.00  0.00    +0.000 OA
ATOM     20  H   UNL     1       6.011  15.262  23.980  0.00  0.00    +0.000 HD
ENDBRANCH   1  18
BRANCH   2  21
ATOM     21  C   UNL     1       7.659  12.348  25.370  0.00  0.00    +0.000 C 
ATOM     22  N   UNL     1       6.629  11.454  25.298  0.00  0.00    +0.000 N 
ATOM     23  O   UNL     1       8.099  12.731  26.450  0.00  0.00    +0.000 OA
ATOM     24  H   UNL     1       6.284  11.155  24.393  0.00  0.00    +0.000 HD
ATOM     25  H   UNL     1       6.258  11.068  26.151  0.00  0.00    +0.000 HD
ENDBRANCH   2  21
BRANCH  13  26
ATOM     26  C   UNL     1       8.603   9.238  18.520  0.00  0.00    +0.000 C 
ATOM     27  C   UNL     1       8.042   8.153  18.062  0.00  0.00    +0.000 C 
BRANCH  27  28
ATOM     28  C   UNL     1       7.389   6.888  17.530  0.00  0.00    +0.000 C 
ATOM     29  C   UNL     1       5.879   7.091  17.436  0.00  0.00    +0.000 C 
BRANCH  28  30
ATOM     30  O   UNL     1       7.915   6.618  16.227  0.00  0.00    +0.000 OA
ATOM     31  H   UNL     1       7.302   7.026  15.591  0.00  0.00    +0.000 HD
ENDBRANCH  28  30
BRANCH  28  32
ATOM     32  C   UNL     1       7.716   5.687  18.443  0.00  0.00    +0.000 C 
BRANCH  32  33
ATOM     33  O   UNL     1       7.125   4.477  17.954  0.00  0.00    +0.000 OA
ATOM     34  H   UNL     1       7.787   4.097  17.344  0.00  0.00    +0.000 HD
ENDBRANCH  32  33
ENDBRANCH  28  32
ENDBRANCH  27  28
ENDBRANCH  13  26
TORSDOF 7
ENDMDL
MODEL 7
REMARK VINA RESULT:      -6.4      3.425      8.656
REMARK  Name = 
REMARK  9 active torsions:
REMARK  status: ('A' for Active; 'I' for Inactive)
REMARK    1  A    between atoms: C_1  and  N_2
REMARK    2  A    between atoms: C_3  and  C_5
REMARK    3  A    between atoms: C_6  and  C_7
REMARK    4  A    between atoms: C_20  and  C_21
REMARK    5  A    between atoms: C_22  and  C_23
REMARK    6  A    between atoms: C_23  and  C_24
REMARK    7  A    between atoms: C_23  and  O_25
REMARK    8  A    between atoms: C_23  and  C_26
REMARK    9  A    between atoms: C_26  and  O_27
REMARK                            x       y       z     vdW  Elec       q    Type
REMARK                         _______ _______ _______ _____ _____    ______ ____
ROOT
ATOM      1  C   UNL     1       5.069   5.007  16.538  0.00  0.00    +0.000 A 
ATOM      2  C   UNL     1       5.759   6.114  17.011  0.00  0.00    +0.000 A 
ATOM      3  N   UNL     1       5.046   6.730  18.034  0.00  0.00    +0.000 NA
ATOM      4  C   UNL     1       3.934   6.035  18.186  0.00  0.00    +0.000 A 
ATOM      5  N   UNL     1       3.910   4.992  17.288  0.00  0.00    +0.000 N 
ATOM      6  C   UNL     1       2.851   4.001  17.289  0.00  0.00    +0.000 C 
ATOM      7  C   UNL     1       2.790   3.312  18.637  0.00  0.00    +0.000 C 
ATOM      8  O   UNL     1       2.115   4.008  19.676  0.00  0.00    +0.000 OA
ATOM      9  C   UNL     1       2.055   5.367  19.762  0.00  0.00    +0.000 A 
ATOM     10  C   UNL     1       1.038   5.769  20.640  0.00  0.00    +0.000 A 
ATOM     11  C   UNL     1       0.765   7.112  20.852  0.00  0.00    +0.000 A 
ATOM     12  F   UNL     1      -0.240   7.441  21.677  0.00  0.00    +0.000 F 
ATOM     13  C   UNL     1       1.511   8.093  20.215  0.00  0.00    +0.000 A 
ATOM     14  C   UNL     1       2.560   7.704  19.371  0.00  0.00    +0.000 A 
ATOM     15  C   UNL     1       2.845   6.340  19.122  0.00  0.00    +0.000 A 
ENDROOT
BRANCH   1  18
ATOM     16  C   UNL     1       5.949   3.539  13.226  0.00  0.00    +0.000 C 
ATOM     17  N   UNL     1       5.553   4.439  14.279  0.00  0.00    +0.000 N 
ATOM     18  C   UNL     1       5.531   4.018  15.592  0.00  0.00    +0.000 C 
ATOM     19  O   UNL     1       5.836   2.876  15.915  0.00  0.00    +0.000 OA
ATOM     20  H   UNL     1       5.553   5.431  14.093  0.00  0.00    +0.000 HD
ENDBRANCH   1  18
BRANCH   2  21
ATOM     21  C   UNL     1       7.051   6.610  16.540  0.00  0.00    +0.000 C 
ATOM     22  N   UNL     1       7.453   7.767  17.145  0.00  0.00    +0.000 N 
ATOM     23  O   UNL     1       7.727   6.076  15.667  0.00  0.00    +0.000 OA
ATOM     24  H   UNL     1       6.875   8.188  17.863  0.00  0.00    +0.000 HD
ATOM     25  H   UNL     1       8.347   8.160  16.899  0.00  0.00    +0.000 HD
ENDBRANCH   2  21
BRANCH  13  26
ATOM     26  C   UNL     1       1.197   9.474  20.417  0.00  0.00    +0.000 C 
ATOM     27  C   UNL     1       0.898  10.731  20.597  0.00  0.00    +0.000 C 
BRANCH  27  28
ATOM     28  C   UNL     1       0.552  12.196  20.806  0.00  0.00    +0.000 C 
ATOM     29  C   UNL     1      -0.522  12.320  21.884  0.00  0.00    +0.000 C 
BRANCH  28  30
ATOM     30  O   UNL     1       1.731  12.887  21.228  0.00  0.00    +0.000 OA
ATOM     31  H   UNL     1       2.487  12.378  20.888  0.00  0.00    +0.000 HD
ENDBRANCH  28  30
BRANCH  28  32
ATOM     32  C   UNL     1       0.065  12.829  19.485  0.00  0.00    +0.000 C 
BRANCH  32  33
ATOM     33  O   UNL     1       0.696  12.227  18.348  0.00  0.00    +0.000 OA
ATOM     34  H   UNL     1       1.639  12.471  18.419  0.00  0.00    +0.000 HD
ENDBRANCH  32  33
ENDBRANCH  28  32
ENDBRANCH  27  28
ENDBRANCH  13  26
TORSDOF 7
ENDMDL
MODEL 8
REMARK VINA RESULT:      -6.3      1.235      1.313
REMARK  Name = 
REMARK  9 active torsions:
REMARK  status: ('A' for Active; 'I' for Inactive)
REMARK    1  A    between atoms: C_1  and  N_2
REMARK    2  A    between atoms: C_3  and  C_5
REMARK    3  A    between atoms: C_6  and  C_7
REMARK    4  A    between atoms: C_20  and  C_21
REMARK    5  A    between atoms: C_22  and  C_23
REMARK    6  A    between atoms: C_23  and  C_24
REMARK    7  A    between atoms: C_23  and  O_25
REMARK    8  A    between atoms: C_23  and  C_26
REMARK    9  A    between atoms: C_26  and  O_27
REMARK                            x       y       z     vdW  Elec       q    Type
REMARK                         _______ _______ _______ _____ _____    ______ ____
ROOT
ATOM      1  C   UNL     1      -0.578  11.657  20.153  0.00  0.00    +0.000 A 
ATOM      2  C   UNL     1      -0.660  11.372  18.798  0.00  0.00    +0.000 A 
ATOM      3  N   UNL     1      -0.076  10.139  18.526  0.00  0.00    +0.000 NA
ATOM      4  C   UNL     1       0.372   9.675  19.677  0.00  0.00    +0.000 A 
ATOM      5  N   UNL     1       0.095  10.574  20.682  0.00  0.00    +0.000 N 
ATOM      6  C   UNL     1       0.384  10.286  22.073  0.00  0.00    +0.000 C 
ATOM      7  C   UNL     1      -0.350   9.033  22.505  0.00  0.00    +0.000 C 
ATOM      8  O   UNL     1       0.243   7.793  22.144  0.00  0.00    +0.000 OA
ATOM      9  C   UNL     1       1.003   7.615  21.026  0.00  0.00    +0.000 A 
ATOM     10  C   UNL     1       1.753   6.433  21.114  0.00  0.00    +0.000 A 
ATOM     11  C   UNL     1       2.633   6.067  20.107  0.00  0.00    +0.000 A 
ATOM     12  F   UNL     1       3.349   4.943  20.256  0.00  0.00    +0.000 F 
ATOM     13  C   UNL     1       2.775   6.855  18.974  0.00  0.00    +0.000 A 
ATOM     14  C   UNL     1       1.997   8.014  18.854  0.00  0.00    +0.000 A 
ATOM     15  C   UNL     1       1.107   8.420  19.877  0.00  0.00    +0.000 A 
ENDROOT
BRANCH   1  18
ATOM     16  C   UNL     1      -3.129  13.467  22.183  0.00  0.00    +0.000 C 
ATOM     17  N   UNL     1      -2.386  12.453  21.479  0.00  0.00    +0.000 N 
ATOM     18  C   UNL     1      -1.192  12.757  20.861  0.00  0.00    +0.000 C 
ATOM     19  O   UNL     1      -0.721  13.888  20.876  0.00  0.00    +0.000 OA
ATOM     20  H   UNL     1      -2.597  11.483  21.665  0.00  0.00    +0.000 HD
ENDBRANCH   1  18
BRANCH   2  21
ATOM     21  C   UNL     1      -1.258  12.207  17.759  0.00  0.00    +0.000 C 
ATOM     22  N   UNL     1      -0.708  13.454  17.665  0.00  0.00    +0.000 N 
ATOM     23  O   UNL     1      -2.187  11.861  17.035  0.00  0.00    +0.000 OA
ATOM     24  H   UNL     1       0.058  13.713  18.275  0.00  0.00    +0.000 HD
ATOM     25  H   UNL     1      -1.044  14.082  16.953  0.00  0.00    +0.000 HD
ENDBRANCH   2  21
BRANCH  13  26
ATOM     26  C   UNL     1       3.711   6.483  17.957  0.00  0.00    +0.000 C 
ATOM     27  C   UNL     1       4.568   6.157  17.030  0.00  0.00    +0.000 C 
BRANCH  27  28
ATOM     28  C   UNL     1       5.567   5.776  15.950  0.00  0.00    +0.000 C 
ATOM     29  C   UNL     1       5.289   4.352  15.474  0.00  0.00    +0.000 C 
BRANCH  28  30
ATOM     30  O   UNL     1       5.418   6.681  14.853  0.00  0.00    +0.000 OA
ATOM     31  H   UNL     1       4.616   6.410  14.376  0.00  0.00    +0.000 HD
ENDBRANCH  28  30
BRANCH  28  32
ATOM     32  C   UNL     1       7.011   5.893  16.484  0.00  0.00    +0.000 C 
BRANCH  32  33
ATOM     33  O   UNL     1       7.698   4.637  16.427  0.00  0.00    +0.000 OA
ATOM     34  H   UNL     1       8.579   4.809  16.812  0.00  0.00    +0.000 HD
ENDBRANCH  32  33
ENDBRANCH  28  32
ENDBRANCH  27  28
ENDBRANCH  13  26
TORSDOF 7
ENDMDL
MODEL 9
REMARK VINA RESULT:      -6.3      3.851      9.033
REMARK  Name = 
REMARK  9 active torsions:
REMARK  status: ('A' for Active; 'I' for Inactive)
REMARK    1  A    between atoms: C_1  and  N_2
REMARK    2  A    between atoms: C_3  and  C_5
REMARK    3  A    between atoms: C_6  and  C_7
REMARK    4  A    between atoms: C_20  and  C_21
REMARK    5  A    between atoms: C_22  and  C_23
REMARK    6  A    between atoms: C_23  and  C_24
REMARK    7  A    between atoms: C_23  and  O_25
REMARK    8  A    between atoms: C_23  and  C_26
REMARK    9  A    between atoms: C_26  and  O_27
REMARK                            x       y       z     vdW  Elec       q    Type
REMARK                         _______ _______ _______ _____ _____    ______ ____
ROOT
ATOM      1  C   UNL     1       3.314   3.974  19.784  0.00  0.00    +0.000 A 
ATOM      2  C   UNL     1       1.988   4.015  20.190  0.00  0.00    +0.000 A 
ATOM      3  N   UNL     1       1.431   5.256  19.903  0.00  0.00    +0.000 NA
ATOM      4  C   UNL     1       2.387   5.976  19.346  0.00  0.00    +0.000 A 
ATOM      5  N   UNL     1       3.544   5.234  19.269  0.00  0.00    +0.000 N 
ATOM      6  C   UNL     1       4.737   5.734  18.614  0.00  0.00    +0.000 C 
ATOM      7  C   UNL     1       4.430   6.066  17.167  0.00  0.00    +0.000 C 
ATOM      8  O   UNL     1       3.794   7.313  16.923  0.00  0.00    +0.000 OA
ATOM      9  C   UNL     1       2.949   7.918  17.804  0.00  0.00    +0.000 A 
ATOM     10  C   UNL     1       2.774   9.271  17.482  0.00  0.00    +0.000 A 
ATOM     11  C   UNL     1       1.986  10.098  18.268  0.00  0.00    +0.000 A 
ATOM     12  F   UNL     1       1.878  11.392  17.933  0.00  0.00    +0.000 F 
ATOM     13  C   UNL     1       1.333   9.596  19.385  0.00  0.00    +0.000 A 
ATOM     14  C   UNL     1       1.464   8.236  19.691  0.00  0.00    +0.000 A 
ATOM     15  C   UNL     1       2.278   7.375  18.916  0.00  0.00    +0.000 A 
ENDROOT
BRANCH   1  18
ATOM     16  C   UNL     1       4.606   0.623  18.781  0.00  0.00    +0.000 C 
ATOM     17  N   UNL     1       3.841   1.841  18.872  0.00  0.00    +0.000 N 
ATOM     18  C   UNL     1       4.195   2.829  19.766  0.00  0.00    +0.000 C 
ATOM     19  O   UNL     1       5.157   2.715  20.515  0.00  0.00    +0.000 OA
ATOM     20  H   UNL     1       3.222   2.081  18.111  0.00  0.00    +0.000 HD
ENDBRANCH   1  18
BRANCH   2  21
ATOM     21  C   UNL     1       1.233   2.943  20.834  0.00  0.00    +0.000 C 
ATOM     22  N   UNL     1       0.255   2.404  20.047  0.00  0.00    +0.000 N 
ATOM     23  O   UNL     1       1.418   2.552  21.983  0.00  0.00    +0.000 OA
ATOM     24  H   UNL     1       0.123   2.745  19.103  0.00  0.00    +0.000 HD
ATOM     25  H   UNL     1      -0.293   1.638  20.406  0.00  0.00    +0.000 HD
ENDBRANCH   2  21
BRANCH  13  26
ATOM     26  C   UNL     1       0.550  10.468  20.207  0.00  0.00    +0.000 C 
ATOM     27  C   UNL     1      -0.163  11.253  20.966  0.00  0.00    +0.000 C 
BRANCH  27  28
ATOM     28  C   UNL     1      -0.994  12.169  21.849  0.00  0.00    +0.000 C 
ATOM     29  C   UNL     1      -0.219  13.454  22.128  0.00  0.00    +0.000 C 
BRANCH  28  30
ATOM     30  O   UNL     1      -2.208  12.486  21.161  0.00  0.00    +0.000 OA
ATOM     31  H   UNL     1      -2.933  12.110  21.690  0.00  0.00    +0.000 HD
ENDBRANCH  28  30
BRANCH  28  32
ATOM     32  C   UNL     1      -1.357  11.459  23.171  0.00  0.00    +0.000 C 
BRANCH  32  33
ATOM     33  O   UNL     1      -0.382  10.470  23.523  0.00  0.00    +0.000 OA
ATOM     34  H   UNL     1      -0.718   9.634  23.145  0.00  0.00    +0.000 HD
ENDBRANCH  32  33
ENDBRANCH  28  32
ENDBRANCH  27  28
ENDBRANCH  13  26
TORSDOF 7
ENDMDL
