MODEL 1
REMARK VINA RESULT:      -7.0      0.000      0.000
REMARK  Name = 
REMARK  4 active torsions:
REMARK  status: ('A' for Active; 'I' for Inactive)
REMARK    1  A    between atoms: C_1  and  C_2
REMARK    2  A    between atoms: C_2  and  C_3
REMARK    3  A    between atoms: C_10  and  C_11
REMARK    4  A    between atoms: C_11  and  O_13
REMARK                            x       y       z     vdW  Elec       q    Type
REMARK                         _______ _______ _______ _____ _____    ______ ____
ROOT
ATOM      1  C   UNL     1       2.593   7.886  18.241  0.00  0.00    +0.000 A 
ATOM      2  N   UNL     1       3.814   7.427  17.875  0.00  0.00    +0.000 NA
ATOM      3  C   UNL     1       4.305   6.267  18.394  0.00  0.00    +0.000 A 
ATOM      4  N   UNL     1       5.575   5.831  17.998  0.00  0.00    +0.000 N 
ATOM      5  C   UNL     1       6.404   5.163  18.998  0.00  0.00    +0.000 C 
ATOM      6  C   UNL     1       7.717   5.906  19.067  0.00  0.00    +0.000 C 
ATOM      7  C   UNL     1       7.852   6.623  17.746  0.00  0.00    +0.000 C 
ATOM      8  C   UNL     1       6.440   6.711  17.143  0.00  0.00    +0.000 C 
ATOM      9  C   UNL     1       3.435   5.525  19.256  0.00  0.00    +0.000 A 
ATOM     10  C   UNL     1       3.479   4.255  19.921  0.00  0.00    +0.000 A 
ATOM     11  C   UNL     1       2.390   4.032  20.718  0.00  0.00    +0.000 A 
ATOM     12  S   UNL     1       1.246   5.243  20.677  0.00  0.00    +0.000 S 
ATOM     13  C   UNL     1       2.217   6.138  19.570  0.00  0.00    +0.000 A 
ATOM     14  N   UNL     1       1.761   7.306  19.108  0.00  0.00    +0.000 NA
ATOM     15  C   UNL     1       2.428   2.763  21.478  0.00  0.00    +0.000 C 
ATOM     16  C   UNL     1       3.577   2.014  20.752  0.00  0.00    +0.000 C 
ATOM     17  C   UNL     1       4.411   3.094  20.010  0.00  0.00    +0.000 C 
ENDROOT
BRANCH   1  19
ATOM     18  C   UNL     1       0.826   9.672  18.315  0.00  0.00    +0.000 C 
ATOM     19  C   UNL     1       2.102   9.185  17.646  0.00  0.00    +0.000 C 
ENDBRANCH   1  19
BRANCH   8  20
ATOM     20  C   UNL     1       6.503   6.140  15.715  0.00  0.00    +0.000 C 
ATOM     21  O   UNL     1       7.459   5.543  15.240  0.00  0.00    +0.000 OA
BRANCH  20  22
ATOM     22  O   UNL     1       5.336   6.306  15.040  0.00  0.00    +0.000 OA
ATOM     23  H   UNL     1       4.631   5.927  15.618  0.00  0.00    +0.000 HD
ENDBRANCH  20  22
ENDBRANCH   8  20
TORSDOF 3
ENDMDL
MODEL 2
REMARK VINA RESULT:      -6.8      3.399      5.429
REMARK  Name = 
REMARK  4 active torsions:
REMARK  status: ('A' for Active; 'I' for Inactive)
REMARK    1  A    between atoms: C_1  and  C_2
REMARK    2  A    between atoms: C_2  and  C_3
REMARK    3  A    between atoms: C_10  and  C_11
REMARK    4  A    between atoms: C_11  and  O_13
REMARK                            x       y       z     vdW  Elec       q    Type
REMARK                         _______ _______ _______ _____ _____    ______ ____
ROOT
ATOM      1  C   UNL     1       2.270   7.685  18.983  0.00  0.00    +0.000 A 
ATOM      2  N   UNL     1       2.038   6.413  19.386  0.00  0.00    +0.000 NA
ATOM      3  C   UNL     1       2.641   5.364  18.760  0.00  0.00    +0.000 A 
ATOM      4  N   UNL     1       2.368   4.063  19.201  0.00  0.00    +0.000 N 
ATOM      5  C   UNL     1       2.306   3.006  18.195  0.00  0.00    +0.000 C 
ATOM      6  C   UNL     1       0.966   2.324  18.337  0.00  0.00    +0.000 C 
ATOM      7  C   UNL     1       0.512   2.603  19.749  0.00  0.00    +0.000 C 
ATOM      8  C   UNL     1       1.308   3.826  20.236  0.00  0.00    +0.000 C 
ATOM      9  C   UNL     1       3.590   5.680  17.736  0.00  0.00    +0.000 A 
ATOM     10  C   UNL     1       4.505   4.943  16.913  0.00  0.00    +0.000 A 
ATOM     11  C   UNL     1       5.157   5.730  16.003  0.00  0.00    +0.000 A 
ATOM     12  S   UNL     1       4.793   7.353  16.108  0.00  0.00    +0.000 S 
ATOM     13  C   UNL     1       3.702   7.035  17.404  0.00  0.00    +0.000 A 
ATOM     14  N   UNL     1       3.064   8.060  17.978  0.00  0.00    +0.000 NA
ATOM     15  C   UNL     1       6.059   4.998  15.086  0.00  0.00    +0.000 C 
ATOM     16  C   UNL     1       6.162   3.625  15.801  0.00  0.00    +0.000 C 
ATOM     17  C   UNL     1       4.936   3.525  16.749  0.00  0.00    +0.000 C 
ENDROOT
BRANCH   1  19
ATOM     18  C   UNL     1       1.218   8.442  21.136  0.00  0.00    +0.000 C 
ATOM     19  C   UNL     1       1.564   8.811  19.702  0.00  0.00    +0.000 C 
ENDBRANCH   1  19
BRANCH   8  20
ATOM     20  C   UNL     1       1.969   3.453  21.576  0.00  0.00    +0.000 C 
ATOM     21  O   UNL     1       1.898   2.356  22.111  0.00  0.00    +0.000 OA
BRANCH  20  22
ATOM     22  O   UNL     1       2.717   4.467  22.082  0.00  0.00    +0.000 OA
ATOM     23  H   UNL     1       2.076   5.158  22.377  0.00  0.00    +0.000 HD
ENDBRANCH  20  22
ENDBRANCH   8  20
TORSDOF 3
ENDMDL
MODEL 3
REMARK VINA RESULT:      -6.2      1.819      4.602
REMARK  Name = 
REMARK  4 active torsions:
REMARK  status: ('A' for Active; 'I' for Inactive)
REMARK    1  A    between atoms: C_1  and  C_2
REMARK    2  A    between atoms: C_2  and  C_3
REMARK    3  A    between atoms: C_10  and  C_11
REMARK    4  A    between atoms: C_11  and  O_13
REMARK                            x       y       z     vdW  Elec       q    Type
REMARK                         _______ _______ _______ _____ _____    ______ ____
ROOT
ATOM      1  C   UNL     1       2.865   4.131  20.639  0.00  0.00    +0.000 A 
ATOM      2  N   UNL     1       3.840   4.285  19.711  0.00  0.00    +0.000 NA
ATOM      3  C   UNL     1       3.873   5.388  18.914  0.00  0.00    +0.000 A 
ATOM      4  N   UNL     1       4.892   5.506  17.960  0.00  0.00    +0.000 N 
ATOM      5  C   UNL     1       4.557   6.136  16.685  0.00  0.00    +0.000 C 
ATOM      6  C   UNL     1       4.934   5.168  15.589  0.00  0.00    +0.000 C 
ATOM      7  C   UNL     1       5.976   4.256  16.189  0.00  0.00    +0.000 C 
ATOM      8  C   UNL     1       5.830   4.360  17.716  0.00  0.00    +0.000 C 
ATOM      9  C   UNL     1       2.896   6.402  19.172  0.00  0.00    +0.000 A 
ATOM     10  C   UNL     1       2.623   7.722  18.679  0.00  0.00    +0.000 A 
ATOM     11  C   UNL     1       1.487   8.266  19.213  0.00  0.00    +0.000 A 
ATOM     12  S   UNL     1       0.732   7.309  20.349  0.00  0.00    +0.000 S 
ATOM     13  C   UNL     1       1.934   6.092  20.138  0.00  0.00    +0.000 A 
ATOM     14  N   UNL     1       1.865   4.981  20.878  0.00  0.00    +0.000 NA
ATOM     15  C   UNL     1       1.129   9.599  18.679  0.00  0.00    +0.000 C 
ATOM     16  C   UNL     1       2.446   9.996  17.960  0.00  0.00    +0.000 C 
ATOM     17  C   UNL     1       3.228   8.679  17.709  0.00  0.00    +0.000 C 
ENDROOT
BRANCH   1  19
ATOM     18  C   UNL     1       1.457   2.415  21.818  0.00  0.00    +0.000 C 
ATOM     19  C   UNL     1       2.867   2.881  21.488  0.00  0.00    +0.000 C 
ENDBRANCH   1  19
BRANCH   8  20
ATOM     20  C   UNL     1       7.215   4.696  18.299  0.00  0.00    +0.000 C 
ATOM     21  O   UNL     1       7.411   5.377  19.296  0.00  0.00    +0.000 OA
BRANCH  20  22
ATOM     22  O   UNL     1       8.222   4.087  17.621  0.00  0.00    +0.000 OA
ATOM     23  H   UNL     1       9.038   4.231  18.157  0.00  0.00    +0.000 HD
ENDBRANCH  20  22
ENDBRANCH   8  20
TORSDOF 3
ENDMDL
MODEL 4
REMARK VINA RESULT:      -6.1      7.274     10.051
REMARK  Name = 
REMARK  4 active torsions:
REMARK  status: ('A' for Active; 'I' for Inactive)
REMARK    1  A    between atoms: C_1  and  C_2
REMARK    2  A    between atoms: C_2  and  C_3
REMARK    3  A    between atoms: C_10  and  C_11
REMARK    4  A    between atoms: C_11  and  O_13
REMARK                            x       y       z     vdW  Elec       q    Type
REMARK                         _______ _______ _______ _____ _____    ______ ____
ROOT
ATOM      1  C   UNL     1      -3.222  10.817  16.314  0.00  0.00    +0.000 A 
ATOM      2  N   UNL     1      -2.319  10.983  17.310  0.00  0.00    +0.000 NA
ATOM      3  C   UNL     1      -2.688  11.543  18.496  0.00  0.00    +0.000 A 
ATOM      4  N   UNL     1      -1.722  11.707  19.498  0.00  0.00    +0.000 N 
ATOM      5  C   UNL     1      -1.817  12.896  20.341  0.00  0.00    +0.000 C 
ATOM      6  C   UNL     1      -0.491  13.614  20.260  0.00  0.00    +0.000 C 
ATOM      7  C   UNL     1       0.516  12.570  19.843  0.00  0.00    +0.000 C 
ATOM      8  C   UNL     1      -0.279  11.418  19.206  0.00  0.00    +0.000 C 
ATOM      9  C   UNL     1      -4.076  11.851  18.663  0.00  0.00    +0.000 A 
ATOM     10  C   UNL     1      -4.905  12.333  19.729  0.00  0.00    +0.000 A 
ATOM     11  C   UNL     1      -6.202  12.539  19.345  0.00  0.00    +0.000 A 
ATOM     12  S   UNL     1      -6.528  12.122  17.765  0.00  0.00    +0.000 S 
ATOM     13  C   UNL     1      -4.884  11.656  17.538  0.00  0.00    +0.000 A 
ATOM     14  N   UNL     1      -4.510  11.163  16.353  0.00  0.00    +0.000 NA
ATOM     15  C   UNL     1      -7.077  13.103  20.397  0.00  0.00    +0.000 C 
ATOM     16  C   UNL     1      -6.204  12.886  21.660  0.00  0.00    +0.000 C 
ATOM     17  C   UNL     1      -4.744  12.704  21.164  0.00  0.00    +0.000 C 
ENDROOT
BRANCH   1  19
ATOM     18  C   UNL     1      -3.892  10.070  14.009  0.00  0.00    +0.000 C 
ATOM     19  C   UNL     1      -2.758  10.204  15.014  0.00  0.00    +0.000 C 
ENDBRANCH   1  19
BRANCH   8  20
ATOM     20  C   UNL     1       0.138  10.114  19.911  0.00  0.00    +0.000 C 
ATOM     21  O   UNL     1      -0.343   9.697  20.955  0.00  0.00    +0.000 OA
BRANCH  20  22
ATOM     22  O   UNL     1       1.065   9.419  19.203  0.00  0.00    +0.000 OA
ATOM     23  H   UNL     1       1.465   8.775  19.836  0.00  0.00    +0.000 HD
ENDBRANCH  20  22
ENDBRANCH   8  20
TORSDOF 3
ENDMDL
MODEL 5
REMARK VINA RESULT:      -6.0      6.323     10.010
REMARK  Name = 
REMARK  4 active torsions:
REMARK  status: ('A' for Active; 'I' for Inactive)
REMARK    1  A    between atoms: C_1  and  C_2
REMARK    2  A    between atoms: C_2  and  C_3
REMARK    3  A    between atoms: C_10  and  C_11
REMARK    4  A    between atoms: C_11  and  O_13
REMARK                            x       y       z     vdW  Elec       q    Type
REMARK                         _______ _______ _______ _____ _____    ______ ____
ROOT
ATOM      1  C   UNL     1      -0.317  10.067  18.170  0.00  0.00    +0.000 A 
ATOM      2  N   UNL     1      -0.494  10.680  19.365  0.00  0.00    +0.000 NA
ATOM      3  C   UNL     1      -1.634  11.380  19.625  0.00  0.00    +0.000 A 
ATOM      4  N   UNL     1      -1.775  12.009  20.868  0.00  0.00    +0.000 N 
ATOM      5  C   UNL     1      -2.472  13.292  20.903  0.00  0.00    +0.000 C 
ATOM      6  C   UNL     1      -1.551  14.290  21.562  0.00  0.00    +0.000 C 
ATOM      7  C   UNL     1      -0.589  13.475  22.391  0.00  0.00    +0.000 C 
ATOM      8  C   UNL     1      -0.623  12.043  21.829  0.00  0.00    +0.000 C 
ATOM      9  C   UNL     1      -2.655  11.349  18.622  0.00  0.00    +0.000 A 
ATOM     10  C   UNL     1      -4.002  11.829  18.505  0.00  0.00    +0.000 A 
ATOM     11  C   UNL     1      -4.544  11.601  17.270  0.00  0.00    +0.000 A 
ATOM     12  S   UNL     1      -3.550  10.768  16.223  0.00  0.00    +0.000 S 
ATOM     13  C   UNL     1      -2.320  10.703  17.428  0.00  0.00    +0.000 A 
ATOM     14  N   UNL     1      -1.177  10.069  17.149  0.00  0.00    +0.000 NA
ATOM     15  C   UNL     1      -5.909  12.143  17.083  0.00  0.00    +0.000 C 
ATOM     16  C   UNL     1      -6.311  12.450  18.550  0.00  0.00    +0.000 C 
ATOM     17  C   UNL     1      -4.991  12.544  19.362  0.00  0.00    +0.000 C 
ENDROOT
BRANCH   1  19
ATOM     18  C   UNL     1       1.586   8.807  19.223  0.00  0.00    +0.000 C 
ATOM     19  C   UNL     1       0.971   9.316  17.928  0.00  0.00    +0.000 C 
ENDBRANCH   1  19
BRANCH   8  20
ATOM     20  C   UNL     1      -0.901  11.085  23.002  0.00  0.00    +0.000 C 
ATOM     21  O   UNL     1      -0.089  10.300  23.474  0.00  0.00    +0.000 OA
BRANCH  20  22
ATOM     22  O   UNL     1      -2.145  11.251  23.521  0.00  0.00    +0.000 OA
ATOM     23  H   UNL     1      -2.767  10.838  22.875  0.00  0.00    +0.000 HD
ENDBRANCH  20  22
ENDBRANCH   8  20
TORSDOF 3
ENDMDL
MODEL 6
REMARK VINA RESULT:      -5.9      8.167     10.475
REMARK  Name = 
REMARK  4 active torsions:
REMARK  status: ('A' for Active; 'I' for Inactive)
REMARK    1  A    between atoms: C_1  and  C_2
REMARK    2  A    between atoms: C_2  and  C_3
REMARK    3  A    between atoms: C_10  and  C_11
REMARK    4  A    between atoms: C_11  and  O_13
REMARK                            x       y       z     vdW  Elec       q    Type
REMARK                         _______ _______ _______ _____ _____    ______ ____
ROOT
ATOM      1  C   UNL     1      -3.165  10.891  16.966  0.00  0.00    +0.000 A 
ATOM      2  N   UNL     1      -2.357  11.423  17.916  0.00  0.00    +0.000 NA
ATOM      3  C   UNL     1      -2.884  12.011  19.026  0.00  0.00    +0.000 A 
ATOM      4  N   UNL     1      -2.016  12.558  19.979  0.00  0.00    +0.000 N 
ATOM      5  C   UNL     1      -2.442  13.776  20.664  0.00  0.00    +0.000 C 
ATOM      6  C   UNL     1      -1.359  14.809  20.466  0.00  0.00    +0.000 C 
ATOM      7  C   UNL     1      -0.101  14.031  20.168  0.00  0.00    +0.000 C 
ATOM      8  C   UNL     1      -0.543  12.634  19.701  0.00  0.00    +0.000 C 
ATOM      9  C   UNL     1      -4.306  11.951  19.177  0.00  0.00    +0.000 A 
ATOM     10  C   UNL     1      -5.253  12.324  20.188  0.00  0.00    +0.000 A 
ATOM     11  C   UNL     1      -6.551  12.121  19.805  0.00  0.00    +0.000 A 
ATOM     12  S   UNL     1      -6.724  11.430  18.298  0.00  0.00    +0.000 S 
ATOM     13  C   UNL     1      -5.012  11.400  18.103  0.00  0.00    +0.000 A 
ATOM     14  N   UNL     1      -4.499  10.878  16.985  0.00  0.00    +0.000 NA
ATOM     15  C   UNL     1      -7.563  12.558  20.791  0.00  0.00    +0.000 C 
ATOM     16  C   UNL     1      -6.685  12.751  22.056  0.00  0.00    +0.000 C 
ATOM     17  C   UNL     1      -5.222  12.908  21.560  0.00  0.00    +0.000 C 
ENDROOT
BRANCH   1  19
ATOM     18  C   UNL     1      -3.506  10.159  14.586  0.00  0.00    +0.000 C 
ATOM     19  C   UNL     1      -2.530  10.263  15.748  0.00  0.00    +0.000 C 
ENDBRANCH   1  19
BRANCH   8  20
ATOM     20  C   UNL     1       0.199  11.594  20.560  0.00  0.00    +0.000 C 
ATOM     21  O   UNL     1       0.266  11.613  21.781  0.00  0.00    +0.000 OA
BRANCH  20  22
ATOM     22  O   UNL     1       0.724  10.589  19.814  0.00  0.00    +0.000 OA
ATOM     23  H   UNL     1       1.479  10.984  19.315  0.00  0.00    +0.000 HD
ENDBRANCH  20  22
ENDBRANCH   8  20
TORSDOF 3
ENDMDL
MODEL 7
REMARK VINA RESULT:      -5.8      6.959      9.395
REMARK  Name = 
REMARK  4 active torsions:
REMARK  status: ('A' for Active; 'I' for Inactive)
REMARK    1  A    between atoms: C_1  and  C_2
REMARK    2  A    between atoms: C_2  and  C_3
REMARK    3  A    between atoms: C_10  and  C_11
REMARK    4  A    between atoms: C_11  and  O_13
REMARK                            x       y       z     vdW  Elec       q    Type
REMARK                         _______ _______ _______ _____ _____    ______ ____
ROOT
ATOM      1  C   UNL     1      -3.622  11.549  17.461  0.00  0.00    +0.000 A 
ATOM      2  N   UNL     1      -2.327  11.658  17.845  0.00  0.00    +0.000 NA
ATOM      3  C   UNL     1      -2.008  12.080  19.100  0.00  0.00    +0.000 A 
ATOM      4  N   UNL     1      -0.658  12.190  19.456  0.00  0.00    +0.000 N 
ATOM      5  C   UNL     1      -0.279  13.283  20.347  0.00  0.00    +0.000 C 
ATOM      6  C   UNL     1       0.814  14.068  19.661  0.00  0.00    +0.000 C 
ATOM      7  C   UNL     1       1.436  13.119  18.666  0.00  0.00    +0.000 C 
ATOM      8  C   UNL     1       0.411  11.998  18.421  0.00  0.00    +0.000 C 
ATOM      9  C   UNL     1      -3.096  12.305  20.003  0.00  0.00    +0.000 A 
ATOM     10  C   UNL     1      -3.232  12.639  21.392  0.00  0.00    +0.000 A 
ATOM     11  C   UNL     1      -4.535  12.821  21.771  0.00  0.00    +0.000 A 
ATOM     12  S   UNL     1      -5.649  12.547  20.563  0.00  0.00    +0.000 S 
ATOM     13  C   UNL     1      -4.378  12.183  19.458  0.00  0.00    +0.000 A 
ATOM     14  N   UNL     1      -4.691  11.828  18.208  0.00  0.00    +0.000 NA
ATOM     15  C   UNL     1      -4.717  13.237  23.180  0.00  0.00    +0.000 C 
ATOM     16  C   UNL     1      -3.311  12.937  23.763  0.00  0.00    +0.000 C 
ATOM     17  C   UNL     1      -2.334  12.874  22.558  0.00  0.00    +0.000 C 
ENDROOT
BRANCH   1  19
ATOM     18  C   UNL     1      -2.752  10.332  15.440  0.00  0.00    +0.000 C 
ATOM     19  C   UNL     1      -3.920  11.089  16.053  0.00  0.00    +0.000 C 
ENDBRANCH   1  19
BRANCH   8  20
ATOM     20  C   UNL     1       1.121  10.652  18.655  0.00  0.00    +0.000 C 
ATOM     21  O   UNL     1       1.059   9.997  19.685  0.00  0.00    +0.000 OA
BRANCH  20  22
ATOM     22  O   UNL     1       1.782  10.219  17.550  0.00  0.00    +0.000 OA
ATOM     23  H   UNL     1       2.175   9.346  17.794  0.00  0.00    +0.000 HD
ENDBRANCH  20  22
ENDBRANCH   8  20
TORSDOF 3
ENDMDL
MODEL 8
REMARK VINA RESULT:      -5.8      8.549     11.480
REMARK  Name = 
REMARK  4 active torsions:
REMARK  status: ('A' for Active; 'I' for Inactive)
REMARK    1  A    between atoms: C_1  and  C_2
REMARK    2  A    between atoms: C_2  and  C_3
REMARK    3  A    between atoms: C_10  and  C_11
REMARK    4  A    between atoms: C_11  and  O_13
REMARK                            x       y       z     vdW  Elec       q    Type
REMARK                         _______ _______ _______ _____ _____    ______ ____
ROOT
ATOM      1  C   UNL     1      -3.862  14.073  21.957  0.00  0.00    +0.000 A 
ATOM      2  N   UNL     1      -4.626  13.338  21.114  0.00  0.00    +0.000 NA
ATOM      3  C   UNL     1      -4.051  12.547  20.166  0.00  0.00    +0.000 A 
ATOM      4  N   UNL     1      -4.875  11.810  19.306  0.00  0.00    +0.000 N 
ATOM      5  C   UNL     1      -4.432  11.636  17.926  0.00  0.00    +0.000 C 
ATOM      6  C   UNL     1      -5.539  12.135  17.029  0.00  0.00    +0.000 C 
ATOM      7  C   UNL     1      -6.800  12.062  17.855  0.00  0.00    +0.000 C 
ATOM      8  C   UNL     1      -6.362  12.016  19.329  0.00  0.00    +0.000 C 
ATOM      9  C   UNL     1      -2.622  12.462  20.174  0.00  0.00    +0.000 A 
ATOM     10  C   UNL     1      -1.629  11.708  19.465  0.00  0.00    +0.000 A 
ATOM     11  C   UNL     1      -0.350  12.062  19.800  0.00  0.00    +0.000 A 
ATOM     12  S   UNL     1      -0.246  13.224  20.990  0.00  0.00    +0.000 S 
ATOM     13  C   UNL     1      -1.965  13.301  21.080  0.00  0.00    +0.000 A 
ATOM     14  N   UNL     1      -2.529  14.125  21.969  0.00  0.00    +0.000 NA
ATOM     15  C   UNL     1       0.707  11.358  19.040  0.00  0.00    +0.000 C 
ATOM     16  C   UNL     1      -0.107  10.203  18.398  0.00  0.00    +0.000 C 
ATOM     17  C   UNL     1      -1.596  10.641  18.424  0.00  0.00    +0.000 C 
ENDROOT
BRANCH   1  19
ATOM     18  C   UNL     1      -6.050  14.692  23.029  0.00  0.00    +0.000 C 
ATOM     19  C   UNL     1      -4.551  14.946  22.980  0.00  0.00    +0.000 C 
ENDBRANCH   1  19
BRANCH   8  20
ATOM     20  C   UNL     1      -7.041  10.799  19.983  0.00  0.00    +0.000 C 
ATOM     21  O   UNL     1      -7.329  10.710  21.169  0.00  0.00    +0.000 OA
BRANCH  20  22
ATOM     22  O   UNL     1      -7.364   9.839  19.078  0.00  0.00    +0.000 OA
ATOM     23  H   UNL     1      -8.311   9.615  19.245  0.00  0.00    +0.000 HD
ENDBRANCH  20  22
ENDBRANCH   8  20
TORSDOF 3
ENDMDL
MODEL 9
REMARK VINA RESULT:      -5.8      9.073     11.486
REMARK  Name = 
REMARK  4 active torsions:
REMARK  status: ('A' for Active; 'I' for Inactive)
REMARK    1  A    between atoms: C_1  and  C_2
REMARK    2  A    between atoms: C_2  and  C_3
REMARK    3  A    between atoms: C_10  and  C_11
REMARK    4  A    between atoms: C_11  and  O_13
REMARK                            x       y       z     vdW  Elec       q    Type
REMARK                         _______ _______ _______ _____ _____    ______ ____
ROOT
ATOM      1  C   UNL     1      -3.560  10.909  16.380  0.00  0.00    +0.000 A 
ATOM      2  N   UNL     1      -4.491  11.558  17.120  0.00  0.00    +0.000 NA
ATOM      3  C   UNL     1      -4.215  11.952  18.394  0.00  0.00    +0.000 A 
ATOM      4  N   UNL     1      -5.207  12.612  19.131  0.00  0.00    +0.000 N 
ATOM      5  C   UNL     1      -5.278  12.343  20.565  0.00  0.00    +0.000 C 
ATOM      6  C   UNL     1      -6.683  11.883  20.870  0.00  0.00    +0.000 C 
ATOM      7  C   UNL     1      -7.542  12.420  19.751  0.00  0.00    +0.000 C 
ATOM      8  C   UNL     1      -6.597  12.734  18.579  0.00  0.00    +0.000 C 
ATOM      9  C   UNL     1      -2.880  11.735  18.864  0.00  0.00    +0.000 A 
ATOM     10  C   UNL     1      -2.134  12.065  20.044  0.00  0.00    +0.000 A 
ATOM     11  C   UNL     1      -0.869  11.544  20.039  0.00  0.00    +0.000 A 
ATOM     12  S   UNL     1      -0.470  10.716  18.649  0.00  0.00    +0.000 S 
ATOM     13  C   UNL     1      -2.037  11.026  18.002  0.00  0.00    +0.000 A 
ATOM     14  N   UNL     1      -2.328  10.584  16.775  0.00  0.00    +0.000 NA
ATOM     15  C   UNL     1      -0.088  11.801  21.270  0.00  0.00    +0.000 C 
ATOM     16  C   UNL     1      -0.945  12.907  21.941  0.00  0.00    +0.000 C 
ATOM     17  C   UNL     1      -2.363  12.812  21.315  0.00  0.00    +0.000 C 
ENDROOT
BRANCH   1  19
ATOM     18  C   UNL     1      -2.752   9.828  14.260  0.00  0.00    +0.000 C 
ATOM     19  C   UNL     1      -3.923  10.480  14.978  0.00  0.00    +0.000 C 
ENDBRANCH   1  19
BRANCH   8  20
ATOM     20  C   UNL     1      -6.854  14.189  18.145  0.00  0.00    +0.000 C 
ATOM     21  O   UNL     1      -7.342  15.057  18.856  0.00  0.00    +0.000 OA
BRANCH  20  22
ATOM     22  O   UNL     1      -6.407  14.439  16.888  0.00  0.00    +0.000 OA
ATOM     23  H   UNL     1      -5.994  15.335  16.919  0.00  0.00    +0.000 HD
ENDBRANCH  20  22
ENDBRANCH   8  20
TORSDOF 3
ENDMDL
