MODEL 1
REMARK VINA RESULT:     -10.0      0.000      0.000
REMARK  Name = 
REMARK  8 active torsions:
REMARK  status: ('A' for Active; 'I' for Inactive)
REMARK    1  A    between atoms: C_1  and  N_2
REMARK    2  A    between atoms: C_6  and  C_7
REMARK    3  A    between atoms: C_7  and  C_10
REMARK    4  A    between atoms: C_10  and  C_11
REMARK    5  A    between atoms: C_10  and  O_12
REMARK    6  A    between atoms: C_10  and  C_13
REMARK    7  A    between atoms: C_17  and  N_18
REMARK    8  A    between atoms: C_25  and  C_26
REMARK                            x       y       z     vdW  Elec       q    Type
REMARK                         _______ _______ _______ _____ _____    ______ ____
ROOT
ATOM      1  C   UNL     1       4.986   5.070  18.045  0.00  0.00    +0.000 A 
ATOM      2  C   UNL     1       4.649   3.932  18.784  0.00  0.00    +0.000 A 
ATOM      3  C   UNL     1       3.543   3.934  19.642  0.00  0.00    +0.000 A 
ATOM      4  C   UNL     1       2.747   5.074  19.790  0.00  0.00    +0.000 A 
ATOM      5  C   UNL     1       3.077   6.242  19.112  0.00  0.00    +0.000 A 
ATOM      6  C   UNL     1       4.212   6.220  18.275  0.00  0.00    +0.000 A 
ENDROOT
BRANCH   5   7
ATOM      7  N   UNL     1       2.318   7.435  19.205  0.00  0.00    +0.000 N 
ATOM      8  C   UNL     1       1.616   7.754  20.429  0.00  0.00    +0.000 C 
ATOM      9  C   UNL     1       1.053   9.104  20.189  0.00  0.00    +0.000 A 
ATOM     10  C   UNL     1       1.361   9.514  18.894  0.00  0.00    +0.000 A 
ATOM     11  C   UNL     1       0.962  10.748  18.416  0.00  0.00    +0.000 A 
ATOM     12  C   UNL     1       0.238  11.573  19.284  0.00  0.00    +0.000 A 
ATOM     13  C   UNL     1      -0.065  11.161  20.599  0.00  0.00    +0.000 A 
ATOM     14  C   UNL     1       0.344   9.907  21.077  0.00  0.00    +0.000 A 
ATOM     15  C   UNL     1       2.174   8.450  18.255  0.00  0.00    +0.000 C 
ATOM     16  O   UNL     1       2.612   8.552  17.118  0.00  0.00    +0.000 OA
BRANCH  14  17
ATOM     17  C   UNL     1       0.056   9.470  22.491  0.00  0.00    +0.000 C 
ATOM     18  F   UNL     1      -0.603  10.408  23.230  0.00  0.00    +0.000 F 
ATOM     19  F   UNL     1      -0.729   8.358  22.540  0.00  0.00    +0.000 F 
ATOM     20  F   UNL     1       1.182   9.177  23.192  0.00  0.00    +0.000 F 
ENDBRANCH  14  17
ENDBRANCH   5   7
BRANCH   1  21
ATOM     21  C   UNL     1       6.143   5.142  17.039  0.00  0.00    +0.000 C 
ATOM     22  C   UNL     1       7.499   4.716  17.631  0.00  0.00    +0.000 C 
BRANCH  21  23
ATOM     23  C   UNL     1       5.872   4.358  15.688  0.00  0.00    +0.000 C 
ATOM     24  F   UNL     1       4.566   4.573  15.327  0.00  0.00    +0.000 F 
ATOM     25  F   UNL     1       5.906   3.010  15.940  0.00  0.00    +0.000 F 
BRANCH  23  31
ATOM     26  C   UNL     1       5.702   3.416  12.661  0.00  0.00    +0.000 C 
ATOM     27  N   UNL     1       6.670   4.300  13.256  0.00  0.00    +0.000 N 
ATOM     28  C   UNL     1       7.674   4.917  12.572  0.00  0.00    +0.000 A 
ATOM     29  N   UNL     1       8.355   5.685  13.386  0.00  0.00    +0.000 NA
ATOM     30  N   UNL     1       7.787   5.577  14.625  0.00  0.00    +0.000 NA
ATOM     31  C   UNL     1       6.777   4.725  14.558  0.00  0.00    +0.000 A 
ENDBRANCH  23  31
ENDBRANCH  21  23
BRANCH  21  32
ATOM     32  O   UNL     1       6.282   6.568  16.769  0.00  0.00    +0.000 OA
ATOM     33  H   UNL     1       5.570   7.034  17.241  0.00  0.00    +0.000 HD
ENDBRANCH  21  32
ENDBRANCH   1  21
TORSDOF 6
ENDMDL
MODEL 2
REMARK VINA RESULT:      -9.1      1.969      2.768
REMARK  Name = 
REMARK  8 active torsions:
REMARK  status: ('A' for Active; 'I' for Inactive)
REMARK    1  A    between atoms: C_1  and  N_2
REMARK    2  A    between atoms: C_6  and  C_7
REMARK    3  A    between atoms: C_7  and  C_10
REMARK    4  A    between atoms: C_10  and  C_11
REMARK    5  A    between atoms: C_10  and  O_12
REMARK    6  A    between atoms: C_10  and  C_13
REMARK    7  A    between atoms: C_17  and  N_18
REMARK    8  A    between atoms: C_25  and  C_26
REMARK                            x       y       z     vdW  Elec       q    Type
REMARK                         _______ _______ _______ _____ _____    ______ ____
ROOT
ATOM      1  C   UNL     1       4.416   5.379  17.464  0.00  0.00    +0.000 A 
ATOM      2  C   UNL     1       4.402   4.327  18.385  0.00  0.00    +0.000 A 
ATOM      3  C   UNL     1       3.629   4.403  19.550  0.00  0.00    +0.000 A 
ATOM      4  C   UNL     1       2.854   5.531  19.829  0.00  0.00    +0.000 A 
ATOM      5  C   UNL     1       2.878   6.620  18.965  0.00  0.00    +0.000 A 
ATOM      6  C   UNL     1       3.687   6.529  17.813  0.00  0.00    +0.000 A 
ENDROOT
BRANCH   5   7
ATOM      7  N   UNL     1       2.117   7.797  19.175  0.00  0.00    +0.000 N 
ATOM      8  C   UNL     1       1.446   8.010  20.438  0.00  0.00    +0.000 C 
ATOM      9  C   UNL     1       0.871   9.371  20.325  0.00  0.00    +0.000 A 
ATOM     10  C   UNL     1       1.144   9.888  19.061  0.00  0.00    +0.000 A 
ATOM     11  C   UNL     1       0.729  11.155  18.696  0.00  0.00    +0.000 A 
ATOM     12  C   UNL     1       0.023  11.901  19.647  0.00  0.00    +0.000 A 
ATOM     13  C   UNL     1      -0.245  11.380  20.931  0.00  0.00    +0.000 A 
ATOM     14  C   UNL     1       0.182  10.094  21.293  0.00  0.00    +0.000 A 
ATOM     15  C   UNL     1       1.945   8.886  18.316  0.00  0.00    +0.000 C 
ATOM     16  O   UNL     1       2.353   9.084  17.181  0.00  0.00    +0.000 OA
BRANCH  14  17
ATOM     17  C   UNL     1      -0.069   9.540  22.673  0.00  0.00    +0.000 C 
ATOM     18  F   UNL     1       1.071   9.218  23.349  0.00  0.00    +0.000 F 
ATOM     19  F   UNL     1      -0.726  10.423  23.475  0.00  0.00    +0.000 F 
ATOM     20  F   UNL     1      -0.817   8.405  22.657  0.00  0.00    +0.000 F 
ENDBRANCH  14  17
ENDBRANCH   5   7
BRANCH   1  21
ATOM     21  C   UNL     1       5.186   5.361  16.137  0.00  0.00    +0.000 C 
ATOM     22  C   UNL     1       5.047   6.664  15.329  0.00  0.00    +0.000 C 
BRANCH  21  23
ATOM     23  C   UNL     1       6.717   4.978  16.286  0.00  0.00    +0.000 C 
ATOM     24  F   UNL     1       7.406   5.574  15.260  0.00  0.00    +0.000 F 
ATOM     25  F   UNL     1       6.870   3.640  16.025  0.00  0.00    +0.000 F 
BRANCH  23  31
ATOM     26  C   UNL     1       7.438   7.882  17.347  0.00  0.00    +0.000 C 
ATOM     27  N   UNL     1       7.629   6.625  18.022  0.00  0.00    +0.000 N 
ATOM     28  C   UNL     1       8.132   6.494  19.282  0.00  0.00    +0.000 A 
ATOM     29  N   UNL     1       8.140   5.229  19.623  0.00  0.00    +0.000 NA
ATOM     30  N   UNL     1       7.628   4.516  18.575  0.00  0.00    +0.000 NA
ATOM     31  C   UNL     1       7.334   5.354  17.594  0.00  0.00    +0.000 A 
ENDBRANCH  23  31
ENDBRANCH  21  23
BRANCH  21  32
ATOM     32  O   UNL     1       4.494   4.352  15.345  0.00  0.00    +0.000 OA
ATOM     33  H   UNL     1       4.129   4.788  14.556  0.00  0.00    +0.000 HD
ENDBRANCH  21  32
ENDBRANCH   1  21
TORSDOF 6
ENDMDL
MODEL 3
REMARK VINA RESULT:      -9.0      1.937      2.792
REMARK  Name = 
REMARK  8 active torsions:
REMARK  status: ('A' for Active; 'I' for Inactive)
REMARK    1  A    between atoms: C_1  and  N_2
REMARK    2  A    between atoms: C_6  and  C_7
REMARK    3  A    between atoms: C_7  and  C_10
REMARK    4  A    between atoms: C_10  and  C_11
REMARK    5  A    between atoms: C_10  and  O_12
REMARK    6  A    between atoms: C_10  and  C_13
REMARK    7  A    between atoms: C_17  and  N_18
REMARK    8  A    between atoms: C_25  and  C_26
REMARK                            x       y       z     vdW  Elec       q    Type
REMARK                         _______ _______ _______ _____ _____    ______ ____
ROOT
ATOM      1  C   UNL     1       4.359   5.173  17.864  0.00  0.00    +0.000 A 
ATOM      2  C   UNL     1       4.206   4.122  18.771  0.00  0.00    +0.000 A 
ATOM      3  C   UNL     1       3.323   4.229  19.852  0.00  0.00    +0.000 A 
ATOM      4  C   UNL     1       2.574   5.391  20.060  0.00  0.00    +0.000 A 
ATOM      5  C   UNL     1       2.733   6.479  19.209  0.00  0.00    +0.000 A 
ATOM      6  C   UNL     1       3.650   6.354  18.144  0.00  0.00    +0.000 A 
ENDROOT
BRANCH   5   7
ATOM      7  N   UNL     1       2.008   7.688  19.349  0.00  0.00    +0.000 N 
ATOM      8  C   UNL     1       1.342   7.993  20.596  0.00  0.00    +0.000 C 
ATOM      9  C   UNL     1       0.808   9.362  20.403  0.00  0.00    +0.000 A 
ATOM     10  C   UNL     1       1.098   9.797  19.112  0.00  0.00    +0.000 A 
ATOM     11  C   UNL     1       0.721  11.053  18.674  0.00  0.00    +0.000 A 
ATOM     12  C   UNL     1       0.037  11.874  19.579  0.00  0.00    +0.000 A 
ATOM     13  C   UNL     1      -0.247  11.436  20.890  0.00  0.00    +0.000 A 
ATOM     14  C   UNL     1       0.140  10.161  21.327  0.00  0.00    +0.000 A 
ATOM     15  C   UNL     1       1.870   8.731  18.428  0.00  0.00    +0.000 C 
ATOM     16  O   UNL     1       2.284   8.850  17.285  0.00  0.00    +0.000 OA
BRANCH  14  17
ATOM     17  C   UNL     1      -0.128   9.695  22.736  0.00  0.00    +0.000 C 
ATOM     18  F   UNL     1       1.003   9.413  23.443  0.00  0.00    +0.000 F 
ATOM     19  F   UNL     1      -0.791  10.628  23.473  0.00  0.00    +0.000 F 
ATOM     20  F   UNL     1      -0.880   8.563  22.782  0.00  0.00    +0.000 F 
ENDBRANCH  14  17
ENDBRANCH   5   7
BRANCH   1  21
ATOM     21  C   UNL     1       5.258   5.124  16.620  0.00  0.00    +0.000 C 
ATOM     22  C   UNL     1       4.956   6.236  15.600  0.00  0.00    +0.000 C 
BRANCH  21  23
ATOM     23  C   UNL     1       6.808   5.097  16.948  0.00  0.00    +0.000 C 
ATOM     24  F   UNL     1       7.476   4.719  15.810  0.00  0.00    +0.000 F 
ATOM     25  F   UNL     1       7.063   4.064  17.813  0.00  0.00    +0.000 F 
BRANCH  23  31
ATOM     26  C   UNL     1       8.135   5.674  19.774  0.00  0.00    +0.000 C 
ATOM     27  N   UNL     1       7.936   6.599  18.689  0.00  0.00    +0.000 N 
ATOM     28  C   UNL     1       8.339   7.900  18.700  0.00  0.00    +0.000 A 
ATOM     29  N   UNL     1       8.051   8.460  17.551  0.00  0.00    +0.000 NA
ATOM     30  N   UNL     1       7.454   7.512  16.768  0.00  0.00    +0.000 NA
ATOM     31  C   UNL     1       7.365   6.386  17.457  0.00  0.00    +0.000 A 
ENDBRANCH  23  31
ENDBRANCH  21  23
BRANCH  21  32
ATOM     32  O   UNL     1       4.866   3.887  15.955  0.00  0.00    +0.000 OA
ATOM     33  H   UNL     1       3.894   3.837  15.962  0.00  0.00    +0.000 HD
ENDBRANCH  21  32
ENDBRANCH   1  21
TORSDOF 6
ENDMDL
MODEL 4
REMARK VINA RESULT:      -8.7      2.008      2.783
REMARK  Name = 
REMARK  8 active torsions:
REMARK  status: ('A' for Active; 'I' for Inactive)
REMARK    1  A    between atoms: C_1  and  N_2
REMARK    2  A    between atoms: C_6  and  C_7
REMARK    3  A    between atoms: C_7  and  C_10
REMARK    4  A    between atoms: C_10  and  C_11
REMARK    5  A    between atoms: C_10  and  O_12
REMARK    6  A    between atoms: C_10  and  C_13
REMARK    7  A    between atoms: C_17  and  N_18
REMARK    8  A    between atoms: C_25  and  C_26
REMARK                            x       y       z     vdW  Elec       q    Type
REMARK                         _______ _______ _______ _____ _____    ______ ____
ROOT
ATOM      1  C   UNL     1       4.398   4.686  17.666  0.00  0.00    +0.000 A 
ATOM      2  C   UNL     1       4.167   3.647  18.573  0.00  0.00    +0.000 A 
ATOM      3  C   UNL     1       3.286   3.815  19.648  0.00  0.00    +0.000 A 
ATOM      4  C   UNL     1       2.617   5.025  19.851  0.00  0.00    +0.000 A 
ATOM      5  C   UNL     1       2.856   6.100  19.001  0.00  0.00    +0.000 A 
ATOM      6  C   UNL     1       3.769   5.912  17.943  0.00  0.00    +0.000 A 
ENDROOT
BRANCH   5   7
ATOM      7  N   UNL     1       2.214   7.356  19.137  0.00  0.00    +0.000 N 
ATOM      8  C   UNL     1       1.534   7.693  20.368  0.00  0.00    +0.000 C 
ATOM      9  C   UNL     1       1.105   9.099  20.178  0.00  0.00    +0.000 A 
ATOM     10  C   UNL     1       1.463   9.527  18.902  0.00  0.00    +0.000 A 
ATOM     11  C   UNL     1       1.190  10.811  18.471  0.00  0.00    +0.000 A 
ATOM     12  C   UNL     1       0.539  11.668  19.366  0.00  0.00    +0.000 A 
ATOM     13  C   UNL     1       0.185  11.236  20.662  0.00  0.00    +0.000 A 
ATOM     14  C   UNL     1       0.468   9.932  21.093  0.00  0.00    +0.000 A 
ATOM     15  C   UNL     1       2.178   8.416  18.227  0.00  0.00    +0.000 C 
ATOM     16  O   UNL     1       2.634   8.519  17.097  0.00  0.00    +0.000 OA
BRANCH  14  17
ATOM     17  C   UNL     1       0.125   9.470  22.487  0.00  0.00    +0.000 C 
ATOM     18  F   UNL     1      -0.479  10.427  23.247  0.00  0.00    +0.000 F 
ATOM     19  F   UNL     1      -0.736   8.415  22.486  0.00  0.00    +0.000 F 
ATOM     20  F   UNL     1       1.216   9.076  23.194  0.00  0.00    +0.000 F 
ENDBRANCH  14  17
ENDBRANCH   5   7
BRANCH   1  21
ATOM     21  C   UNL     1       5.299   4.575  16.429  0.00  0.00    +0.000 C 
ATOM     22  C   UNL     1       4.525   4.611  15.099  0.00  0.00    +0.000 C 
BRANCH  21  23
ATOM     23  C   UNL     1       6.480   5.632  16.396  0.00  0.00    +0.000 C 
ATOM     24  F   UNL     1       5.948   6.853  16.068  0.00  0.00    +0.000 F 
ATOM     25  F   UNL     1       7.298   5.354  15.331  0.00  0.00    +0.000 F 
BRANCH  23  31
ATOM     26  C   UNL     1       7.749   8.238  17.691  0.00  0.00    +0.000 C 
ATOM     27  N   UNL     1       7.791   6.892  18.200  0.00  0.00    +0.000 N 
ATOM     28  C   UNL     1       8.370   6.530  19.378  0.00  0.00    +0.000 A 
ATOM     29  N   UNL     1       8.202   5.246  19.576  0.00  0.00    +0.000 NA
ATOM     30  N   UNL     1       7.495   4.755  18.514  0.00  0.00    +0.000 NA
ATOM     31  C   UNL     1       7.258   5.743  17.667  0.00  0.00    +0.000 A 
ENDBRANCH  23  31
ENDBRANCH  21  23
BRANCH  21  32
ATOM     32  O   UNL     1       5.841   3.224  16.512  0.00  0.00    +0.000 OA
ATOM     33  H   UNL     1       5.606   2.755  15.692  0.00  0.00    +0.000 HD
ENDBRANCH  21  32
ENDBRANCH   1  21
TORSDOF 6
ENDMDL
MODEL 5
REMARK VINA RESULT:      -8.6      2.120      2.630
REMARK  Name = 
REMARK  8 active torsions:
REMARK  status: ('A' for Active; 'I' for Inactive)
REMARK    1  A    between atoms: C_1  and  N_2
REMARK    2  A    between atoms: C_6  and  C_7
REMARK    3  A    between atoms: C_7  and  C_10
REMARK    4  A    between atoms: C_10  and  C_11
REMARK    5  A    between atoms: C_10  and  O_12
REMARK    6  A    between atoms: C_10  and  C_13
REMARK    7  A    between atoms: C_17  and  N_18
REMARK    8  A    between atoms: C_25  and  C_26
REMARK                            x       y       z     vdW  Elec       q    Type
REMARK                         _______ _______ _______ _____ _____    ______ ____
ROOT
ATOM      1  C   UNL     1       4.538   5.388  16.979  0.00  0.00    +0.000 A 
ATOM      2  C   UNL     1       3.888   4.172  16.746  0.00  0.00    +0.000 A 
ATOM      3  C   UNL     1       2.656   3.891  17.348  0.00  0.00    +0.000 A 
ATOM      4  C   UNL     1       2.042   4.812  18.201  0.00  0.00    +0.000 A 
ATOM      5  C   UNL     1       2.678   6.012  18.499  0.00  0.00    +0.000 A 
ATOM      6  C   UNL     1       3.932   6.258  17.901  0.00  0.00    +0.000 A 
ENDROOT
BRANCH   5   7
ATOM      7  N   UNL     1       2.120   6.998  19.348  0.00  0.00    +0.000 N 
ATOM      8  C   UNL     1       1.904   8.341  18.857  0.00  0.00    +0.000 C 
ATOM      9  C   UNL     1       1.208   9.033  19.967  0.00  0.00    +0.000 A 
ATOM     10  C   UNL     1       1.080   8.165  21.049  0.00  0.00    +0.000 A 
ATOM     11  C   UNL     1       0.453   8.557  22.217  0.00  0.00    +0.000 A 
ATOM     12  C   UNL     1      -0.050   9.862  22.271  0.00  0.00    +0.000 A 
ATOM     13  C   UNL     1       0.071  10.738  21.171  0.00  0.00    +0.000 A 
ATOM     14  C   UNL     1       0.707  10.331  19.989  0.00  0.00    +0.000 A 
ATOM     15  C   UNL     1       1.660   6.855  20.661  0.00  0.00    +0.000 C 
ATOM     16  O   UNL     1       1.661   5.890  21.410  0.00  0.00    +0.000 OA
BRANCH  14  17
ATOM     17  C   UNL     1       0.813  11.246  18.795  0.00  0.00    +0.000 C 
ATOM     18  F   UNL     1       0.098  10.820  17.715  0.00  0.00    +0.000 F 
ATOM     19  F   UNL     1       0.353  12.499  19.061  0.00  0.00    +0.000 F 
ATOM     20  F   UNL     1       2.091  11.390  18.354  0.00  0.00    +0.000 F 
ENDBRANCH  14  17
ENDBRANCH   5   7
BRANCH   1  21
ATOM     21  C   UNL     1       5.860   5.806  16.320  0.00  0.00    +0.000 C 
ATOM     22  C   UNL     1       6.771   6.635  17.244  0.00  0.00    +0.000 C 
BRANCH  21  23
ATOM     23  C   UNL     1       6.677   4.601  15.694  0.00  0.00    +0.000 C 
ATOM     24  F   UNL     1       5.871   3.490  15.705  0.00  0.00    +0.000 F 
ATOM     25  F   UNL     1       7.691   4.256  16.551  0.00  0.00    +0.000 F 
BRANCH  23  31
ATOM     26  C   UNL     1       5.564   3.423  12.963  0.00  0.00    +0.000 C 
ATOM     27  N   UNL     1       6.678   4.316  13.149  0.00  0.00    +0.000 N 
ATOM     28  C   UNL     1       7.426   4.839  12.137  0.00  0.00    +0.000 A 
ATOM     29  N   UNL     1       8.333   5.644  12.629  0.00  0.00    +0.000 NA
ATOM     30  N   UNL     1       8.178   5.658  13.988  0.00  0.00    +0.000 NA
ATOM     31  C   UNL     1       7.189   4.842  14.311  0.00  0.00    +0.000 A 
ENDBRANCH  23  31
ENDBRANCH  21  23
BRANCH  21  32
ATOM     32  O   UNL     1       5.449   6.730  15.270  0.00  0.00    +0.000 OA
ATOM     33  H   UNL     1       6.212   7.294  15.052  0.00  0.00    +0.000 HD
ENDBRANCH  21  32
ENDBRANCH   1  21
TORSDOF 6
ENDMDL
MODEL 6
REMARK VINA RESULT:      -8.6      2.193      2.904
REMARK  Name = 
REMARK  8 active torsions:
REMARK  status: ('A' for Active; 'I' for Inactive)
REMARK    1  A    between atoms: C_1  and  N_2
REMARK    2  A    between atoms: C_6  and  C_7
REMARK    3  A    between atoms: C_7  and  C_10
REMARK    4  A    between atoms: C_10  and  C_11
REMARK    5  A    between atoms: C_10  and  O_12
REMARK    6  A    between atoms: C_10  and  C_13
REMARK    7  A    between atoms: C_17  and  N_18
REMARK    8  A    between atoms: C_25  and  C_26
REMARK                            x       y       z     vdW  Elec       q    Type
REMARK                         _______ _______ _______ _____ _____    ______ ____
ROOT
ATOM      1  C   UNL     1       3.303   4.064  18.863  0.00  0.00    +0.000 A 
ATOM      2  C   UNL     1       3.117   3.281  20.006  0.00  0.00    +0.000 A 
ATOM      3  C   UNL     1       2.457   3.795  21.129  0.00  0.00    +0.000 A 
ATOM      4  C   UNL     1       1.970   5.104  21.143  0.00  0.00    +0.000 A 
ATOM      5  C   UNL     1       2.178   5.933  20.046  0.00  0.00    +0.000 A 
ATOM      6  C   UNL     1       2.869   5.399  18.939  0.00  0.00    +0.000 A 
ENDROOT
BRANCH   5   7
ATOM      7  N   UNL     1       1.710   7.269  19.982  0.00  0.00    +0.000 N 
ATOM      8  C   UNL     1       1.000   7.843  21.103  0.00  0.00    +0.000 C 
ATOM      9  C   UNL     1       0.786   9.258  20.719  0.00  0.00    +0.000 A 
ATOM     10  C   UNL     1       1.290   9.474  19.438  0.00  0.00    +0.000 A 
ATOM     11  C   UNL     1       1.231  10.719  18.842  0.00  0.00    +0.000 A 
ATOM     12  C   UNL     1       0.645  11.759  19.575  0.00  0.00    +0.000 A 
ATOM     13  C   UNL     1       0.144  11.541  20.876  0.00  0.00    +0.000 A 
ATOM     14  C   UNL     1       0.210  10.275  21.474  0.00  0.00    +0.000 A 
ATOM     15  C   UNL     1       1.888   8.204  18.958  0.00  0.00    +0.000 C 
ATOM     16  O   UNL     1       2.432   8.105  17.868  0.00  0.00    +0.000 OA
BRANCH  14  17
ATOM     17  C   UNL     1      -0.292  10.038  22.876  0.00  0.00    +0.000 C 
ATOM     18  F   UNL     1      -0.884  11.132  23.437  0.00  0.00    +0.000 F 
ATOM     19  F   UNL     1      -1.231   9.053  22.932  0.00  0.00    +0.000 F 
ATOM     20  F   UNL     1       0.697   9.677  23.736  0.00  0.00    +0.000 F 
ENDBRANCH  14  17
ENDBRANCH   5   7
BRANCH   1  21
ATOM     21  C   UNL     1       3.961   3.570  17.568  0.00  0.00    +0.000 C 
ATOM     22  C   UNL     1       2.954   3.261  16.445  0.00  0.00    +0.000 C 
BRANCH  21  23
ATOM     23  C   UNL     1       5.105   4.522  17.023  0.00  0.00    +0.000 C 
ATOM     24  F   UNL     1       4.509   5.628  16.470  0.00  0.00    +0.000 F 
ATOM     25  F   UNL     1       5.707   3.924  15.945  0.00  0.00    +0.000 F 
BRANCH  23  31
ATOM     26  C   UNL     1       7.218   6.884  16.828  0.00  0.00    +0.000 C 
ATOM     27  N   UNL     1       7.008   5.978  17.927  0.00  0.00    +0.000 N 
ATOM     28  C   UNL     1       7.686   6.027  19.107  0.00  0.00    +0.000 A 
ATOM     29  N   UNL     1       7.235   5.098  19.913  0.00  0.00    +0.000 NA
ATOM     30  N   UNL     1       6.240   4.429  19.255  0.00  0.00    +0.000 NA
ATOM     31  C   UNL     1       6.109   4.946  18.044  0.00  0.00    +0.000 A 
ENDBRANCH  23  31
ENDBRANCH  21  23
BRANCH  21  32
ATOM     32  O   UNL     1       4.523   2.275  17.934  0.00  0.00    +0.000 OA
ATOM     33  H   UNL     1       4.776   1.815  17.115  0.00  0.00    +0.000 HD
ENDBRANCH  21  32
ENDBRANCH   1  21
TORSDOF 6
ENDMDL
MODEL 7
REMARK VINA RESULT:      -8.5      2.940      4.292
REMARK  Name = 
REMARK  8 active torsions:
REMARK  status: ('A' for Active; 'I' for Inactive)
REMARK    1  A    between atoms: C_1  and  N_2
REMARK    2  A    between atoms: C_6  and  C_7
REMARK    3  A    between atoms: C_7  and  C_10
REMARK    4  A    between atoms: C_10  and  C_11
REMARK    5  A    between atoms: C_10  and  O_12
REMARK    6  A    between atoms: C_10  and  C_13
REMARK    7  A    between atoms: C_17  and  N_18
REMARK    8  A    between atoms: C_25  and  C_26
REMARK                            x       y       z     vdW  Elec       q    Type
REMARK                         _______ _______ _______ _____ _____    ______ ____
ROOT
ATOM      1  C   UNL     1       2.770   6.155  18.832  0.00  0.00    +0.000 A 
ATOM      2  C   UNL     1       3.389   6.652  17.681  0.00  0.00    +0.000 A 
ATOM      3  C   UNL     1       3.250   7.995  17.314  0.00  0.00    +0.000 A 
ATOM      4  C   UNL     1       2.485   8.878  18.081  0.00  0.00    +0.000 A 
ATOM      5  C   UNL     1       1.810   8.413  19.205  0.00  0.00    +0.000 A 
ATOM      6  C   UNL     1       1.946   7.049  19.537  0.00  0.00    +0.000 A 
ENDROOT
BRANCH   5   7
ATOM      7  N   UNL     1       1.020   9.245  20.036  0.00  0.00    +0.000 N 
ATOM      8  C   UNL     1       0.083  10.178  19.448  0.00  0.00    +0.000 C 
ATOM      9  C   UNL     1      -0.628  10.766  20.608  0.00  0.00    +0.000 A 
ATOM     10  C   UNL     1      -0.100  10.249  21.789  0.00  0.00    +0.000 A 
ATOM     11  C   UNL     1      -0.595  10.624  23.023  0.00  0.00    +0.000 A 
ATOM     12  C   UNL     1      -1.651  11.544  23.042  0.00  0.00    +0.000 A 
ATOM     13  C   UNL     1      -2.192  12.059  21.845  0.00  0.00    +0.000 A 
ATOM     14  C   UNL     1      -1.684  11.671  20.596  0.00  0.00    +0.000 A 
ATOM     15  C   UNL     1       0.957   9.271  21.432  0.00  0.00    +0.000 C 
ATOM     16  O   UNL     1       1.577   8.638  22.274  0.00  0.00    +0.000 OA
BRANCH  14  17
ATOM     17  C   UNL     1      -2.276  12.189  19.310  0.00  0.00    +0.000 C 
ATOM     18  F   UNL     1      -2.677  11.204  18.456  0.00  0.00    +0.000 F 
ATOM     19  F   UNL     1      -3.381  12.956  19.519  0.00  0.00    +0.000 F 
ATOM     20  F   UNL     1      -1.405  12.955  18.600  0.00  0.00    +0.000 F 
ENDBRANCH  14  17
ENDBRANCH   5   7
BRANCH   1  21
ATOM     21  C   UNL     1       2.912   4.715  19.343  0.00  0.00    +0.000 C 
ATOM     22  C   UNL     1       1.579   3.947  19.395  0.00  0.00    +0.000 C 
BRANCH  21  23
ATOM     23  C   UNL     1       3.999   3.861  18.567  0.00  0.00    +0.000 C 
ATOM     24  F   UNL     1       3.607   3.765  17.256  0.00  0.00    +0.000 F 
ATOM     25  F   UNL     1       3.940   2.562  19.004  0.00  0.00    +0.000 F 
BRANCH  23  31
ATOM     26  C   UNL     1       6.106   4.169  16.213  0.00  0.00    +0.000 C 
ATOM     27  N   UNL     1       6.275   4.522  17.598  0.00  0.00    +0.000 N 
ATOM     28  C   UNL     1       7.395   5.098  18.116  0.00  0.00    +0.000 A 
ATOM     29  N   UNL     1       7.220   5.332  19.393  0.00  0.00    +0.000 NA
ATOM     30  N   UNL     1       5.962   4.909  19.721  0.00  0.00    +0.000 NA
ATOM     31  C   UNL     1       5.390   4.400  18.642  0.00  0.00    +0.000 A 
ENDBRANCH  23  31
ENDBRANCH  21  23
BRANCH  21  32
ATOM     32  O   UNL     1       3.307   4.877  20.737  0.00  0.00    +0.000 OA
ATOM     33  H   UNL     1       2.752   4.287  21.277  0.00  0.00    +0.000 HD
ENDBRANCH  21  32
ENDBRANCH   1  21
TORSDOF 6
ENDMDL
MODEL 8
REMARK VINA RESULT:      -8.5      4.234      8.772
REMARK  Name = 
REMARK  8 active torsions:
REMARK  status: ('A' for Active; 'I' for Inactive)
REMARK    1  A    between atoms: C_1  and  N_2
REMARK    2  A    between atoms: C_6  and  C_7
REMARK    3  A    between atoms: C_7  and  C_10
REMARK    4  A    between atoms: C_10  and  C_11
REMARK    5  A    between atoms: C_10  and  O_12
REMARK    6  A    between atoms: C_10  and  C_13
REMARK    7  A    between atoms: C_17  and  N_18
REMARK    8  A    between atoms: C_25  and  C_26
REMARK                            x       y       z     vdW  Elec       q    Type
REMARK                         _______ _______ _______ _____ _____    ______ ____
ROOT
ATOM      1  C   UNL     1      -0.534  11.089  20.477  0.00  0.00    +0.000 A 
ATOM      2  C   UNL     1      -0.715  11.115  21.863  0.00  0.00    +0.000 A 
ATOM      3  C   UNL     1      -0.146  10.130  22.679  0.00  0.00    +0.000 A 
ATOM      4  C   UNL     1       0.613   9.091  22.135  0.00  0.00    +0.000 A 
ATOM      5  C   UNL     1       0.775   8.999  20.757  0.00  0.00    +0.000 A 
ATOM      6  C   UNL     1       0.169   9.989  19.955  0.00  0.00    +0.000 A 
ENDROOT
BRANCH   5   7
ATOM      7  N   UNL     1       1.534   7.981  20.129  0.00  0.00    +0.000 N 
ATOM      8  C   UNL     1       1.558   6.647  20.688  0.00  0.00    +0.000 C 
ATOM      9  C   UNL     1       2.338   5.852  19.710  0.00  0.00    +0.000 A 
ATOM     10  C   UNL     1       2.782   6.682  18.684  0.00  0.00    +0.000 A 
ATOM     11  C   UNL     1       3.525   6.188  17.629  0.00  0.00    +0.000 A 
ATOM     12  C   UNL     1       3.816   4.818  17.630  0.00  0.00    +0.000 A 
ATOM     13  C   UNL     1       3.357   3.976  18.665  0.00  0.00    +0.000 A 
ATOM     14  C   UNL     1       2.602   4.486  19.731  0.00  0.00    +0.000 A 
ATOM     15  C   UNL     1       2.269   8.050  18.942  0.00  0.00    +0.000 C 
ATOM     16  O   UNL     1       2.481   8.985  18.185  0.00  0.00    +0.000 OA
BRANCH  14  17
ATOM     17  C   UNL     1       2.078   3.590  20.825  0.00  0.00    +0.000 C 
ATOM     18  F   UNL     1       0.718   3.506  20.860  0.00  0.00    +0.000 F 
ATOM     19  F   UNL     1       2.515   2.306  20.698  0.00  0.00    +0.000 F 
ATOM     20  F   UNL     1       2.451   4.002  22.066  0.00  0.00    +0.000 F 
ENDBRANCH  14  17
ENDBRANCH   5   7
BRANCH   1  21
ATOM     21  C   UNL     1      -1.070  12.154  19.511  0.00  0.00    +0.000 C 
ATOM     22  C   UNL     1      -2.606  12.171  19.405  0.00  0.00    +0.000 C 
BRANCH  21  23
ATOM     23  C   UNL     1      -0.531  13.616  19.801  0.00  0.00    +0.000 C 
ATOM     24  F   UNL     1      -1.441  14.252  20.607  0.00  0.00    +0.000 F 
ATOM     25  F   UNL     1      -0.580  14.348  18.642  0.00  0.00    +0.000 F 
BRANCH  23  31
ATOM     26  C   UNL     1       2.282  13.113  18.419  0.00  0.00    +0.000 C 
ATOM     27  N   UNL     1       2.025  13.452  19.794  0.00  0.00    +0.000 N 
ATOM     28  C   UNL     1       2.990  13.652  20.734  0.00  0.00    +0.000 A 
ATOM     29  N   UNL     1       2.435  13.987  21.872  0.00  0.00    +0.000 NA
ATOM     30  N   UNL     1       1.082  14.014  21.678  0.00  0.00    +0.000 NA
ATOM     31  C   UNL     1       0.825  13.673  20.426  0.00  0.00    +0.000 A 
ENDBRANCH  23  31
ENDBRANCH  21  23
BRANCH  21  32
ATOM     32  O   UNL     1      -0.608  11.703  18.203  0.00  0.00    +0.000 OA
ATOM     33  H   UNL     1      -1.386  11.418  17.693  0.00  0.00    +0.000 HD
ENDBRANCH  21  32
ENDBRANCH   1  21
TORSDOF 6
ENDMDL
MODEL 9
REMARK VINA RESULT:      -8.4      4.144      9.190
REMARK  Name = 
REMARK  8 active torsions:
REMARK  status: ('A' for Active; 'I' for Inactive)
REMARK    1  A    between atoms: C_1  and  N_2
REMARK    2  A    between atoms: C_6  and  C_7
REMARK    3  A    between atoms: C_7  and  C_10
REMARK    4  A    between atoms: C_10  and  C_11
REMARK    5  A    between atoms: C_10  and  O_12
REMARK    6  A    between atoms: C_10  and  C_13
REMARK    7  A    between atoms: C_17  and  N_18
REMARK    8  A    between atoms: C_25  and  C_26
REMARK                            x       y       z     vdW  Elec       q    Type
REMARK                         _______ _______ _______ _____ _____    ______ ____
ROOT
ATOM      1  C   UNL     1       0.013  10.868  20.426  0.00  0.00    +0.000 A 
ATOM      2  C   UNL     1      -0.193  10.877  21.809  0.00  0.00    +0.000 A 
ATOM      3  C   UNL     1       0.260   9.823  22.610  0.00  0.00    +0.000 A 
ATOM      4  C   UNL     1       0.925   8.727  22.052  0.00  0.00    +0.000 A 
ATOM      5  C   UNL     1       1.106   8.654  20.676  0.00  0.00    +0.000 A 
ATOM      6  C   UNL     1       0.616   9.717  19.889  0.00  0.00    +0.000 A 
ENDROOT
BRANCH   5   7
ATOM      7  N   UNL     1       1.774   7.581  20.036  0.00  0.00    +0.000 N 
ATOM      8  C   UNL     1       1.683   6.243  20.579  0.00  0.00    +0.000 C 
ATOM      9  C   UNL     1       2.393   5.396  19.591  0.00  0.00    +0.000 A 
ATOM     10  C   UNL     1       2.907   6.197  18.574  0.00  0.00    +0.000 A 
ATOM     11  C   UNL     1       3.606   5.653  17.513  0.00  0.00    +0.000 A 
ATOM     12  C   UNL     1       3.777   4.264  17.498  0.00  0.00    +0.000 A 
ATOM     13  C   UNL     1       3.247   3.452  18.523  0.00  0.00    +0.000 A 
ATOM     14  C   UNL     1       2.537   4.012  19.596  0.00  0.00    +0.000 A 
ATOM     15  C   UNL     1       2.513   7.601  18.849  0.00  0.00    +0.000 C 
ATOM     16  O   UNL     1       2.806   8.523  18.103  0.00  0.00    +0.000 OA
BRANCH  14  17
ATOM     17  C   UNL     1       1.938   3.152  20.679  0.00  0.00    +0.000 C 
ATOM     18  F   UNL     1       2.074   1.814  20.454  0.00  0.00    +0.000 F 
ATOM     19  F   UNL     1       2.513   3.372  21.894  0.00  0.00    +0.000 F 
ATOM     20  F   UNL     1       0.605   3.362  20.841  0.00  0.00    +0.000 F 
ENDBRANCH  14  17
ENDBRANCH   5   7
BRANCH   1  21
ATOM     21  C   UNL     1      -0.397  12.003  19.478  0.00  0.00    +0.000 C 
ATOM     22  C   UNL     1       0.729  12.444  18.525  0.00  0.00    +0.000 C 
BRANCH  21  23
ATOM     23  C   UNL     1      -1.719  11.709  18.655  0.00  0.00    +0.000 C 
ATOM     24  F   UNL     1      -1.752  10.368  18.368  0.00  0.00    +0.000 F 
ATOM     25  F   UNL     1      -1.611  12.288  17.416  0.00  0.00    +0.000 F 
BRANCH  23  31
ATOM     26  C   UNL     1      -4.690  11.476  17.561  0.00  0.00    +0.000 C 
ATOM     27  N   UNL     1      -4.258  11.993  18.833  0.00  0.00    +0.000 N 
ATOM     28  C   UNL     1      -5.096  12.441  19.810  0.00  0.00    +0.000 A 
ATOM     29  N   UNL     1      -4.398  12.804  20.857  0.00  0.00    +0.000 NA
ATOM     30  N   UNL     1      -3.079  12.587  20.569  0.00  0.00    +0.000 NA
ATOM     31  C   UNL     1      -2.985  12.112  19.337  0.00  0.00    +0.000 A 
ENDBRANCH  23  31
ENDBRANCH  21  23
BRANCH  21  32
ATOM     32  O   UNL     1      -0.604  13.141  20.366  0.00  0.00    +0.000 OA
ATOM     33  H   UNL     1      -0.192  12.933  21.223  0.00  0.00    +0.000 HD
ENDBRANCH  21  32
ENDBRANCH   1  21
TORSDOF 6
ENDMDL
