MODEL 1
REMARK VINA RESULT:      -8.6      0.000      0.000
REMARK  Name = 
REMARK  4 active torsions:
REMARK  status: ('A' for Active; 'I' for Inactive)
REMARK    1  A    between atoms: C_14  and  O_15
REMARK    2  A    between atoms: C_16  and  O_17
REMARK    3  A    between atoms: C_18  and  C_19
REMARK    4  A    between atoms: C_19  and  N_20
REMARK                            x       y       z     vdW  Elec       q    Type
REMARK                         _______ _______ _______ _____ _____    ______ ____
ROOT
ATOM      1  O   UNL     1       1.310   5.882  20.248  0.00  0.00    +0.000 OA
ATOM      2  C   UNL     1       2.098   6.803  20.089  0.00  0.00    +0.000 A 
ATOM      3  O   UNL     1       1.994   7.948  20.868  0.00  0.00    +0.000 OA
ATOM      4  C   UNL     1       1.212   8.841  20.113  0.00  0.00    +0.000 A 
ATOM      5  C   UNL     1       0.067   9.331  20.723  0.00  0.00    +0.000 A 
ATOM      6  C   UNL     1      -0.798  10.091  19.954  0.00  0.00    +0.000 A 
ATOM      7  C   UNL     1      -0.481  10.395  18.619  0.00  0.00    +0.000 A 
ATOM      8  C   UNL     1       0.686   9.903  18.010  0.00  0.00    +0.000 A 
ATOM      9  C   UNL     1       1.527   9.089  18.750  0.00  0.00    +0.000 A 
ATOM     10  C   UNL     1       2.549   8.199  18.236  0.00  0.00    +0.000 A 
ATOM     11  O   UNL     1       3.192   8.307  17.057  0.00  0.00    +0.000 OA
ATOM     12  C   UNL     1       3.997   7.187  16.979  0.00  0.00    +0.000 A 
ATOM     13  C   UNL     1       4.859   6.910  15.914  0.00  0.00    +0.000 A 
ATOM     14  C   UNL     1       5.617   5.753  16.039  0.00  0.00    +0.000 A 
ATOM     15  C   UNL     1       5.508   4.923  17.159  0.00  0.00    +0.000 A 
ATOM     16  C   UNL     1       4.608   5.168  18.223  0.00  0.00    +0.000 A 
ATOM     17  C   UNL     1       3.839   6.361  18.110  0.00  0.00    +0.000 A 
ATOM     18  C   UNL     1       2.877   7.030  18.889  0.00  0.00    +0.000 A 
ENDROOT
BRANCH  14  19
ATOM     19  O   UNL     1       6.526   5.378  15.081  0.00  0.00    +0.000 OA
ATOM     20  H   UNL     1       6.701   6.140  14.503  0.00  0.00    +0.000 HD
ENDBRANCH  14  19
BRANCH  15  21
ATOM     21  O   UNL     1       6.349   3.835  17.222  0.00  0.00    +0.000 OA
ATOM     22  H   UNL     1       6.595   3.761  18.166  0.00  0.00    +0.000 HD
ENDBRANCH  15  21
BRANCH  16  23
ATOM     23  C   UNL     1       4.677   4.244  19.433  0.00  0.00    +0.000 C 
BRANCH  23  24
ATOM     24  N   UNL     1       3.633   3.204  19.559  0.00  0.00    +0.000 NA
ATOM     25  C   UNL     1       2.905   3.340  20.837  0.00  0.00    +0.000 C 
ATOM     26  C   UNL     1       1.681   2.422  20.984  0.00  0.00    +0.000 C 
ATOM     27  C   UNL     1       0.758   2.461  19.780  0.00  0.00    +0.000 C 
ATOM     28  C   UNL     1       1.530   2.344  18.474  0.00  0.00    +0.000 C 
ATOM     29  C   UNL     1       2.722   3.298  18.409  0.00  0.00    +0.000 C 
ENDBRANCH  23  24
ENDBRANCH  16  23
TORSDOF 4
ENDMDL
MODEL 2
REMARK VINA RESULT:      -8.3      1.883      4.551
REMARK  Name = 
REMARK  4 active torsions:
REMARK  status: ('A' for Active; 'I' for Inactive)
REMARK    1  A    between atoms: C_14  and  O_15
REMARK    2  A    between atoms: C_16  and  O_17
REMARK    3  A    between atoms: C_18  and  C_19
REMARK    4  A    between atoms: C_19  and  N_20
REMARK                            x       y       z     vdW  Elec       q    Type
REMARK                         _______ _______ _______ _____ _____    ______ ____
ROOT
ATOM      1  O   UNL     1       4.190   7.873  17.859  0.00  0.00    +0.000 OA
ATOM      2  C   UNL     1       3.050   7.465  18.021  0.00  0.00    +0.000 A 
ATOM      3  O   UNL     1       1.980   8.154  17.464  0.00  0.00    +0.000 OA
ATOM      4  C   UNL     1       1.529   9.020  18.476  0.00  0.00    +0.000 A 
ATOM      5  C   UNL     1       1.483  10.370  18.162  0.00  0.00    +0.000 A 
ATOM      6  C   UNL     1       1.186  11.259  19.182  0.00  0.00    +0.000 A 
ATOM      7  C   UNL     1       0.888  10.786  20.471  0.00  0.00    +0.000 A 
ATOM      8  C   UNL     1       0.928   9.416  20.781  0.00  0.00    +0.000 A 
ATOM      9  C   UNL     1       1.285   8.523  19.784  0.00  0.00    +0.000 A 
ATOM     10  C   UNL     1       1.739   7.158  19.964  0.00  0.00    +0.000 A 
ATOM     11  O   UNL     1       1.479   6.354  21.013  0.00  0.00    +0.000 OA
ATOM     12  C   UNL     1       2.195   5.198  20.770  0.00  0.00    +0.000 A 
ATOM     13  C   UNL     1       2.193   4.080  21.610  0.00  0.00    +0.000 A 
ATOM     14  C   UNL     1       2.946   2.998  21.172  0.00  0.00    +0.000 A 
ATOM     15  C   UNL     1       3.661   3.040  19.971  0.00  0.00    +0.000 A 
ATOM     16  C   UNL     1       3.707   4.180  19.134  0.00  0.00    +0.000 A 
ATOM     17  C   UNL     1       2.925   5.289  19.568  0.00  0.00    +0.000 A 
ATOM     18  C   UNL     1       2.629   6.578  19.086  0.00  0.00    +0.000 A 
ENDROOT
BRANCH  14  19
ATOM     19  O   UNL     1       3.007   1.825  21.883  0.00  0.00    +0.000 OA
ATOM     20  H   UNL     1       3.663   1.927  22.594  0.00  0.00    +0.000 HD
ENDBRANCH  14  19
BRANCH  15  21
ATOM     21  O   UNL     1       4.322   1.895  19.589  0.00  0.00    +0.000 OA
ATOM     22  H   UNL     1       4.629   1.490  20.425  0.00  0.00    +0.000 HD
ENDBRANCH  15  21
BRANCH  16  23
ATOM     23  C   UNL     1       4.431   4.048  17.799  0.00  0.00    +0.000 C 
BRANCH  23  24
ATOM     24  N   UNL     1       5.813   4.568  17.718  0.00  0.00    +0.000 NA
ATOM     25  C   UNL     1       5.955   5.516  16.594  0.00  0.00    +0.000 C 
ATOM     26  C   UNL     1       7.304   6.250  16.534  0.00  0.00    +0.000 C 
ATOM     27  C   UNL     1       7.711   6.859  17.864  0.00  0.00    +0.000 C 
ATOM     28  C   UNL     1       7.535   5.875  19.010  0.00  0.00    +0.000 C 
ATOM     29  C   UNL     1       6.164   5.199  19.000  0.00  0.00    +0.000 C 
ENDBRANCH  23  24
ENDBRANCH  16  23
TORSDOF 4
ENDMDL
MODEL 3
REMARK VINA RESULT:      -8.3      2.121      6.765
REMARK  Name = 
REMARK  4 active torsions:
REMARK  status: ('A' for Active; 'I' for Inactive)
REMARK    1  A    between atoms: C_14  and  O_15
REMARK    2  A    between atoms: C_16  and  O_17
REMARK    3  A    between atoms: C_18  and  C_19
REMARK    4  A    between atoms: C_19  and  N_20
REMARK                            x       y       z     vdW  Elec       q    Type
REMARK                         _______ _______ _______ _____ _____    ______ ____
ROOT
ATOM      1  O   UNL     1       4.711   7.270  16.041  0.00  0.00    +0.000 OA
ATOM      2  C   UNL     1       5.217   6.263  16.514  0.00  0.00    +0.000 A 
ATOM      3  O   UNL     1       6.570   6.013  16.330  0.00  0.00    +0.000 OA
ATOM      4  C   UNL     1       6.644   5.192  15.189  0.00  0.00    +0.000 A 
ATOM      5  C   UNL     1       7.439   5.647  14.149  0.00  0.00    +0.000 A 
ATOM      6  C   UNL     1       7.413   4.937  12.959  0.00  0.00    +0.000 A 
ATOM      7  C   UNL     1       6.645   3.764  12.850  0.00  0.00    +0.000 A 
ATOM      8  C   UNL     1       5.849   3.304  13.913  0.00  0.00    +0.000 A 
ATOM      9  C   UNL     1       5.818   4.041  15.084  0.00  0.00    +0.000 A 
ATOM     10  C   UNL     1       4.820   3.964  16.132  0.00  0.00    +0.000 A 
ATOM     11  O   UNL     1       4.028   2.912  16.416  0.00  0.00    +0.000 OA
ATOM     12  C   UNL     1       3.193   3.348  17.425  0.00  0.00    +0.000 A 
ATOM     13  C   UNL     1       2.216   2.555  18.036  0.00  0.00    +0.000 A 
ATOM     14  C   UNL     1       1.503   3.163  19.062  0.00  0.00    +0.000 A 
ATOM     15  C   UNL     1       1.750   4.485  19.442  0.00  0.00    +0.000 A 
ATOM     16  C   UNL     1       2.704   5.312  18.803  0.00  0.00    +0.000 A 
ATOM     17  C   UNL     1       3.450   4.692  17.761  0.00  0.00    +0.000 A 
ATOM     18  C   UNL     1       4.489   5.068  16.889  0.00  0.00    +0.000 A 
ENDROOT
BRANCH  14  19
ATOM     19  O   UNL     1       0.537   2.490  19.767  0.00  0.00    +0.000 OA
ATOM     20  H   UNL     1      -0.002   1.974  19.142  0.00  0.00    +0.000 HD
ENDBRANCH  14  19
BRANCH  15  21
ATOM     21  O   UNL     1       1.039   4.977  20.513  0.00  0.00    +0.000 OA
ATOM     22  H   UNL     1       1.674   5.539  21.002  0.00  0.00    +0.000 HD
ENDBRANCH  15  21
BRANCH  16  23
ATOM     23  C   UNL     1       2.950   6.695  19.396  0.00  0.00    +0.000 C 
BRANCH  23  24
ATOM     24  N   UNL     1       1.876   7.701  19.252  0.00  0.00    +0.000 NA
ATOM     25  C   UNL     1       1.636   8.404  20.529  0.00  0.00    +0.000 C 
ATOM     26  C   UNL     1       0.667   9.593  20.441  0.00  0.00    +0.000 C 
ATOM     27  C   UNL     1       0.994  10.545  19.304  0.00  0.00    +0.000 C 
ATOM     28  C   UNL     1       1.260   9.800  18.005  0.00  0.00    +0.000 C 
ATOM     29  C   UNL     1       2.241   8.641  18.182  0.00  0.00    +0.000 C 
ENDBRANCH  23  24
ENDBRANCH  16  23
TORSDOF 4
ENDMDL
MODEL 4
REMARK VINA RESULT:      -8.1      1.906      4.437
REMARK  Name = 
REMARK  4 active torsions:
REMARK  status: ('A' for Active; 'I' for Inactive)
REMARK    1  A    between atoms: C_14  and  O_15
REMARK    2  A    between atoms: C_16  and  O_17
REMARK    3  A    between atoms: C_18  and  C_19
REMARK    4  A    between atoms: C_19  and  N_20
REMARK                            x       y       z     vdW  Elec       q    Type
REMARK                         _______ _______ _______ _____ _____    ______ ____
ROOT
ATOM      1  O   UNL     1       3.493   8.355  17.584  0.00  0.00    +0.000 OA
ATOM      2  C   UNL     1       2.389   7.995  17.963  0.00  0.00    +0.000 A 
ATOM      3  O   UNL     1       1.274   8.781  17.701  0.00  0.00    +0.000 OA
ATOM      4  C   UNL     1       1.109   9.585  18.843  0.00  0.00    +0.000 A 
ATOM      5  C   UNL     1       1.089  10.956  18.639  0.00  0.00    +0.000 A 
ATOM      6  C   UNL     1       1.079  11.774  19.756  0.00  0.00    +0.000 A 
ATOM      7  C   UNL     1       1.031  11.215  21.045  0.00  0.00    +0.000 A 
ATOM      8  C   UNL     1       1.043   9.824  21.245  0.00  0.00    +0.000 A 
ATOM      9  C   UNL     1       1.118   8.997  20.137  0.00  0.00    +0.000 A 
ATOM     10  C   UNL     1       1.506   7.601  20.120  0.00  0.00    +0.000 A 
ATOM     11  O   UNL     1       1.422   6.729  21.144  0.00  0.00    +0.000 OA
ATOM     12  C   UNL     1       1.989   5.561  20.673  0.00  0.00    +0.000 A 
ATOM     13  C   UNL     1       2.091   4.380  21.416  0.00  0.00    +0.000 A 
ATOM     14  C   UNL     1       2.657   3.299  20.752  0.00  0.00    +0.000 A 
ATOM     15  C   UNL     1       3.100   3.402  19.430  0.00  0.00    +0.000 A 
ATOM     16  C   UNL     1       3.044   4.602  18.682  0.00  0.00    +0.000 A 
ATOM     17  C   UNL     1       2.450   5.711  19.350  0.00  0.00    +0.000 A 
ATOM     18  C   UNL     1       2.146   7.047  19.032  0.00  0.00    +0.000 A 
ENDROOT
BRANCH  14  19
ATOM     19  O   UNL     1       2.789   2.072  21.352  0.00  0.00    +0.000 OA
ATOM     20  H   UNL     1       2.971   1.408  20.665  0.00  0.00    +0.000 HD
ENDBRANCH  14  19
BRANCH  15  21
ATOM     21  O   UNL     1       3.585   2.258  18.837  0.00  0.00    +0.000 OA
ATOM     22  H   UNL     1       4.559   2.340  18.888  0.00  0.00    +0.000 HD
ENDBRANCH  15  21
BRANCH  16  23
ATOM     23  C   UNL     1       3.455   4.540  17.216  0.00  0.00    +0.000 C 
BRANCH  23  24
ATOM     24  N   UNL     1       4.852   4.162  16.913  0.00  0.00    +0.000 NA
ATOM     25  C   UNL     1       5.147   4.332  15.477  0.00  0.00    +0.000 C 
ATOM     26  C   UNL     1       6.621   4.140  15.091  0.00  0.00    +0.000 C 
ATOM     27  C   UNL     1       7.576   4.921  15.977  0.00  0.00    +0.000 C 
ATOM     28  C   UNL     1       7.242   4.751  17.451  0.00  0.00    +0.000 C 
ATOM     29  C   UNL     1       5.758   4.969  17.746  0.00  0.00    +0.000 C 
ENDBRANCH  23  24
ENDBRANCH  16  23
TORSDOF 4
ENDMDL
MODEL 5
REMARK VINA RESULT:      -8.0      1.958      4.316
REMARK  Name = 
REMARK  4 active torsions:
REMARK  status: ('A' for Active; 'I' for Inactive)
REMARK    1  A    between atoms: C_14  and  O_15
REMARK    2  A    between atoms: C_16  and  O_17
REMARK    3  A    between atoms: C_18  and  C_19
REMARK    4  A    between atoms: C_19  and  N_20
REMARK                            x       y       z     vdW  Elec       q    Type
REMARK                         _______ _______ _______ _____ _____    ______ ____
ROOT
ATOM      1  O   UNL     1       3.535   8.432  17.643  0.00  0.00    +0.000 OA
ATOM      2  C   UNL     1       2.413   8.083  17.983  0.00  0.00    +0.000 A 
ATOM      3  O   UNL     1       1.317   8.880  17.680  0.00  0.00    +0.000 OA
ATOM      4  C   UNL     1       1.120   9.687  18.816  0.00  0.00    +0.000 A 
ATOM      5  C   UNL     1       1.121  11.058  18.610  0.00  0.00    +0.000 A 
ATOM      6  C   UNL     1       1.078  11.877  19.726  0.00  0.00    +0.000 A 
ATOM      7  C   UNL     1       0.979  11.320  21.012  0.00  0.00    +0.000 A 
ATOM      8  C   UNL     1       0.970   9.929  21.213  0.00  0.00    +0.000 A 
ATOM      9  C   UNL     1       1.076   9.100  20.108  0.00  0.00    +0.000 A 
ATOM     10  C   UNL     1       1.450   7.700  20.107  0.00  0.00    +0.000 A 
ATOM     11  O   UNL     1       1.321   6.830  21.127  0.00  0.00    +0.000 OA
ATOM     12  C   UNL     1       1.892   5.656  20.677  0.00  0.00    +0.000 A 
ATOM     13  C   UNL     1       1.956   4.475  21.423  0.00  0.00    +0.000 A 
ATOM     14  C   UNL     1       2.534   3.388  20.780  0.00  0.00    +0.000 A 
ATOM     15  C   UNL     1       3.025   3.484  19.475  0.00  0.00    +0.000 A 
ATOM     16  C   UNL     1       3.008   4.684  18.725  0.00  0.00    +0.000 A 
ATOM     17  C   UNL     1       2.402   5.800  19.371  0.00  0.00    +0.000 A 
ATOM     18  C   UNL     1       2.123   7.139  19.042  0.00  0.00    +0.000 A 
ENDROOT
BRANCH  14  19
ATOM     19  O   UNL     1       2.632   2.159  21.385  0.00  0.00    +0.000 OA
ATOM     20  H   UNL     1       2.665   1.474  20.695  0.00  0.00    +0.000 HD
ENDBRANCH  14  19
BRANCH  15  21
ATOM     21  O   UNL     1       3.519   2.336  18.900  0.00  0.00    +0.000 OA
ATOM     22  H   UNL     1       3.321   2.425  17.946  0.00  0.00    +0.000 HD
ENDBRANCH  15  21
BRANCH  16  23
ATOM     23  C   UNL     1       3.471   4.618  17.275  0.00  0.00    +0.000 C 
BRANCH  23  24
ATOM     24  N   UNL     1       4.852   5.055  16.978  0.00  0.00    +0.000 NA
ATOM     25  C   UNL     1       5.579   5.390  18.219  0.00  0.00    +0.000 C 
ATOM     26  C   UNL     1       7.076   5.680  18.034  0.00  0.00    +0.000 C 
ATOM     27  C   UNL     1       7.790   4.625  17.208  0.00  0.00    +0.000 C 
ATOM     28  C   UNL     1       7.015   4.277  15.947  0.00  0.00    +0.000 C 
ATOM     29  C   UNL     1       5.538   3.994  16.223  0.00  0.00    +0.000 C 
ENDBRANCH  23  24
ENDBRANCH  16  23
TORSDOF 4
ENDMDL
MODEL 6
REMARK VINA RESULT:      -7.8      3.531      8.372
REMARK  Name = 
REMARK  4 active torsions:
REMARK  status: ('A' for Active; 'I' for Inactive)
REMARK    1  A    between atoms: C_14  and  O_15
REMARK    2  A    between atoms: C_16  and  O_17
REMARK    3  A    between atoms: C_18  and  C_19
REMARK    4  A    between atoms: C_19  and  N_20
REMARK                            x       y       z     vdW  Elec       q    Type
REMARK                         _______ _______ _______ _____ _____    ______ ____
ROOT
ATOM      1  O   UNL     1       1.136   8.875  17.155  0.00  0.00    +0.000 OA
ATOM      2  C   UNL     1       1.871   8.878  18.132  0.00  0.00    +0.000 A 
ATOM      3  O   UNL     1       3.149   8.342  18.042  0.00  0.00    +0.000 OA
ATOM      4  C   UNL     1       3.023   7.009  18.474  0.00  0.00    +0.000 A 
ATOM      5  C   UNL     1       3.453   6.029  17.593  0.00  0.00    +0.000 A 
ATOM      6  C   UNL     1       3.205   4.708  17.927  0.00  0.00    +0.000 A 
ATOM      7  C   UNL     1       2.590   4.388  19.150  0.00  0.00    +0.000 A 
ATOM      8  C   UNL     1       2.165   5.387  20.043  0.00  0.00    +0.000 A 
ATOM      9  C   UNL     1       2.350   6.713  19.690  0.00  0.00    +0.000 A 
ATOM     10  C   UNL     1       1.680   7.865  20.259  0.00  0.00    +0.000 A 
ATOM     11  O   UNL     1       1.129   7.952  21.485  0.00  0.00    +0.000 OA
ATOM     12  C   UNL     1       0.540   9.200  21.531  0.00  0.00    +0.000 A 
ATOM     13  C   UNL     1      -0.135   9.713  22.644  0.00  0.00    +0.000 A 
ATOM     14  C   UNL     1      -0.624  11.005  22.508  0.00  0.00    +0.000 A 
ATOM     15  C   UNL     1      -0.454  11.733  21.326  0.00  0.00    +0.000 A 
ATOM     16  C   UNL     1       0.187  11.211  20.178  0.00  0.00    +0.000 A 
ATOM     17  C   UNL     1       0.706   9.891  20.314  0.00  0.00    +0.000 A 
ATOM     18  C   UNL     1       1.424   8.990  19.506  0.00  0.00    +0.000 A 
ENDROOT
BRANCH  14  19
ATOM     19  O   UNL     1      -1.278  11.642  23.533  0.00  0.00    +0.000 OA
ATOM     20  H   UNL     1      -0.653  12.240  23.977  0.00  0.00    +0.000 HD
ENDBRANCH  14  19
BRANCH  15  21
ATOM     21  O   UNL     1      -0.915  13.030  21.311  0.00  0.00    +0.000 OA
ATOM     22  H   UNL     1      -0.145  13.575  21.571  0.00  0.00    +0.000 HD
ENDBRANCH  15  21
BRANCH  16  23
ATOM     23  C   UNL     1       0.405  12.153  19.000  0.00  0.00    +0.000 C 
BRANCH  23  24
ATOM     24  N   UNL     1       1.439  13.201  19.145  0.00  0.00    +0.000 NA
ATOM     25  C   UNL     1       2.589  12.934  18.259  0.00  0.00    +0.000 C 
ATOM     26  C   UNL     1       3.635  14.058  18.200  0.00  0.00    +0.000 C 
ATOM     27  C   UNL     1       3.025  15.429  17.966  0.00  0.00    +0.000 C 
ATOM     28  C   UNL     1       1.828  15.674  18.872  0.00  0.00    +0.000 C 
ATOM     29  C   UNL     1       0.835  14.512  18.862  0.00  0.00    +0.000 C 
ENDBRANCH  23  24
ENDBRANCH  16  23
TORSDOF 4
ENDMDL
MODEL 7
REMARK VINA RESULT:      -7.7      2.085      6.629
REMARK  Name = 
REMARK  4 active torsions:
REMARK  status: ('A' for Active; 'I' for Inactive)
REMARK    1  A    between atoms: C_14  and  O_15
REMARK    2  A    between atoms: C_16  and  O_17
REMARK    3  A    between atoms: C_18  and  C_19
REMARK    4  A    between atoms: C_19  and  N_20
REMARK                            x       y       z     vdW  Elec       q    Type
REMARK                         _______ _______ _______ _____ _____    ______ ____
ROOT
ATOM      1  O   UNL     1       5.107   7.171  16.876  0.00  0.00    +0.000 OA
ATOM      2  C   UNL     1       5.421   6.023  17.153  0.00  0.00    +0.000 A 
ATOM      3  O   UNL     1       6.727   5.595  16.959  0.00  0.00    +0.000 OA
ATOM      4  C   UNL     1       6.739   5.006  15.681  0.00  0.00    +0.000 A 
ATOM      5  C   UNL     1       7.654   5.515  14.772  0.00  0.00    +0.000 A 
ATOM      6  C   UNL     1       7.587   5.059  13.466  0.00  0.00    +0.000 A 
ATOM      7  C   UNL     1       6.654   4.071  13.106  0.00  0.00    +0.000 A 
ATOM      8  C   UNL     1       5.735   3.553  14.035  0.00  0.00    +0.000 A 
ATOM      9  C   UNL     1       5.752   4.047  15.328  0.00  0.00    +0.000 A 
ATOM     10  C   UNL     1       4.694   3.936  16.313  0.00  0.00    +0.000 A 
ATOM     11  O   UNL     1       3.733   2.994  16.361  0.00  0.00    +0.000 OA
ATOM     12  C   UNL     1       2.918   3.360  17.415  0.00  0.00    +0.000 A 
ATOM     13  C   UNL     1       1.796   2.636  17.830  0.00  0.00    +0.000 A 
ATOM     14  C   UNL     1       1.128   3.145  18.936  0.00  0.00    +0.000 A 
ATOM     15  C   UNL     1       1.555   4.312  19.578  0.00  0.00    +0.000 A 
ATOM     16  C   UNL     1       2.662   5.078  19.141  0.00  0.00    +0.000 A 
ATOM     17  C   UNL     1       3.362   4.554  18.017  0.00  0.00    +0.000 A 
ATOM     18  C   UNL     1       4.496   4.914  17.265  0.00  0.00    +0.000 A 
ENDROOT
BRANCH  14  19
ATOM     19  O   UNL     1       0.030   2.517  19.469  0.00  0.00    +0.000 OA
ATOM     20  H   UNL     1      -0.261   1.823  18.852  0.00  0.00    +0.000 HD
ENDBRANCH  14  19
BRANCH  15  21
ATOM     21  O   UNL     1       0.868   4.699  20.706  0.00  0.00    +0.000 OA
ATOM     22  H   UNL     1       0.057   4.152  20.708  0.00  0.00    +0.000 HD
ENDBRANCH  15  21
BRANCH  16  23
ATOM     23  C   UNL     1       3.085   6.262  20.002  0.00  0.00    +0.000 C 
BRANCH  23  24
ATOM     24  N   UNL     1       2.639   7.607  19.580  0.00  0.00    +0.000 NA
ATOM     25  C   UNL     1       2.173   7.594  18.179  0.00  0.00    +0.000 C 
ATOM     26  C   UNL     1       1.519   8.900  17.703  0.00  0.00    +0.000 C 
ATOM     27  C   UNL     1       0.465   9.424  18.662  0.00  0.00    +0.000 C 
ATOM     28  C   UNL     1       0.956   9.407  20.101  0.00  0.00    +0.000 C 
ATOM     29  C   UNL     1       1.582   8.069  20.494  0.00  0.00    +0.000 C 
ENDBRANCH  23  24
ENDBRANCH  16  23
TORSDOF 4
ENDMDL
MODEL 8
REMARK VINA RESULT:      -7.3      7.380     12.152
REMARK  Name = 
REMARK  4 active torsions:
REMARK  status: ('A' for Active; 'I' for Inactive)
REMARK    1  A    between atoms: C_14  and  O_15
REMARK    2  A    between atoms: C_16  and  O_17
REMARK    3  A    between atoms: C_18  and  C_19
REMARK    4  A    between atoms: C_19  and  N_20
REMARK                            x       y       z     vdW  Elec       q    Type
REMARK                         _______ _______ _______ _____ _____    ______ ____
ROOT
ATOM      1  O   UNL     1      -2.779  12.526  19.624  0.00  0.00    +0.000 OA
ATOM      2  C   UNL     1      -2.456  12.954  20.722  0.00  0.00    +0.000 A 
ATOM      3  O   UNL     1      -1.120  13.212  21.001  0.00  0.00    +0.000 OA
ATOM      4  C   UNL     1      -0.635  12.040  21.610  0.00  0.00    +0.000 A 
ATOM      5  C   UNL     1       0.468  11.444  21.018  0.00  0.00    +0.000 A 
ATOM      6  C   UNL     1       0.875  10.213  21.505  0.00  0.00    +0.000 A 
ATOM      7  C   UNL     1       0.216   9.631  22.602  0.00  0.00    +0.000 A 
ATOM      8  C   UNL     1      -0.896  10.245  23.203  0.00  0.00    +0.000 A 
ATOM      9  C   UNL     1      -1.351  11.445  22.683  0.00  0.00    +0.000 A 
ATOM     10  C   UNL     1      -2.653  12.045  22.896  0.00  0.00    +0.000 A 
ATOM     11  O   UNL     1      -3.476  11.837  23.941  0.00  0.00    +0.000 OA
ATOM     12  C   UNL     1      -4.621  12.553  23.651  0.00  0.00    +0.000 A 
ATOM     13  C   UNL     1      -5.737  12.628  24.490  0.00  0.00    +0.000 A 
ATOM     14  C   UNL     1      -6.776  13.432  24.039  0.00  0.00    +0.000 A 
ATOM     15  C   UNL     1      -6.701  14.109  22.818  0.00  0.00    +0.000 A 
ATOM     16  C   UNL     1      -5.598  14.006  21.939  0.00  0.00    +0.000 A 
ATOM     17  C   UNL     1      -4.521  13.196  22.401  0.00  0.00    +0.000 A 
ATOM     18  C   UNL     1      -3.248  12.827  21.928  0.00  0.00    +0.000 A 
ENDROOT
BRANCH  14  19
ATOM     19  O   UNL     1      -7.917  13.620  24.779  0.00  0.00    +0.000 OA
ATOM     20  H   UNL     1      -7.663  13.878  25.682  0.00  0.00    +0.000 HD
ENDBRANCH  14  19
BRANCH  15  21
ATOM     21  O   UNL     1      -7.752  14.934  22.489  0.00  0.00    +0.000 OA
ATOM     22  H   UNL     1      -7.752  14.966  21.511  0.00  0.00    +0.000 HD
ENDBRANCH  15  21
BRANCH  16  23
ATOM     23  C   UNL     1      -5.600  14.889  20.696  0.00  0.00    +0.000 C 
BRANCH  23  24
ATOM     24  N   UNL     1      -6.559  14.554  19.622  0.00  0.00    +0.000 NA
ATOM     25  C   UNL     1      -6.540  15.578  18.559  0.00  0.00    +0.000 C 
ATOM     26  C   UNL     1      -7.368  15.231  17.311  0.00  0.00    +0.000 C 
ATOM     27  C   UNL     1      -7.090  13.836  16.781  0.00  0.00    +0.000 C 
ATOM     28  C   UNL     1      -7.090  12.800  17.894  0.00  0.00    +0.000 C 
ATOM     29  C   UNL     1      -6.236  13.221  19.090  0.00  0.00    +0.000 C 
ENDBRANCH  23  24
ENDBRANCH  16  23
TORSDOF 4
ENDMDL
MODEL 9
REMARK VINA RESULT:      -7.2      5.629      9.058
REMARK  Name = 
REMARK  4 active torsions:
REMARK  status: ('A' for Active; 'I' for Inactive)
REMARK    1  A    between atoms: C_14  and  O_15
REMARK    2  A    between atoms: C_16  and  O_17
REMARK    3  A    between atoms: C_18  and  C_19
REMARK    4  A    between atoms: C_19  and  N_20
REMARK                            x       y       z     vdW  Elec       q    Type
REMARK                         _______ _______ _______ _____ _____    ______ ____
ROOT
ATOM      1  O   UNL     1      -3.168  12.252  22.584  0.00  0.00    +0.000 OA
ATOM      2  C   UNL     1      -3.479  13.063  21.724  0.00  0.00    +0.000 A 
ATOM      3  O   UNL     1      -3.812  14.363  22.082  0.00  0.00    +0.000 OA
ATOM      4  C   UNL     1      -5.213  14.365  22.213  0.00  0.00    +0.000 A 
ATOM      5  C   UNL     1      -5.722  14.785  23.431  0.00  0.00    +0.000 A 
ATOM      6  C   UNL     1      -7.085  14.656  23.641  0.00  0.00    +0.000 A 
ATOM      7  C   UNL     1      -7.916  14.168  22.618  0.00  0.00    +0.000 A 
ATOM      8  C   UNL     1      -7.395  13.751  21.381  0.00  0.00    +0.000 A 
ATOM      9  C   UNL     1      -6.026  13.816  21.185  0.00  0.00    +0.000 A 
ATOM     10  C   UNL     1      -5.260  13.118  20.171  0.00  0.00    +0.000 A 
ATOM     11  O   UNL     1      -5.715  12.666  18.986  0.00  0.00    +0.000 OA
ATOM     12  C   UNL     1      -4.648  12.000  18.418  0.00  0.00    +0.000 A 
ATOM     13  C   UNL     1      -4.681  11.386  17.162  0.00  0.00    +0.000 A 
ATOM     14  C   UNL     1      -3.492  10.801  16.746  0.00  0.00    +0.000 A 
ATOM     15  C   UNL     1      -2.345  10.823  17.547  0.00  0.00    +0.000 A 
ATOM     16  C   UNL     1      -2.311  11.400  18.838  0.00  0.00    +0.000 A 
ATOM     17  C   UNL     1      -3.521  12.017  19.265  0.00  0.00    +0.000 A 
ATOM     18  C   UNL     1      -3.959  12.725  20.400  0.00  0.00    +0.000 A 
ENDROOT
BRANCH  14  19
ATOM     19  O   UNL     1      -3.376  10.192  15.522  0.00  0.00    +0.000 OA
ATOM     20  H   UNL     1      -2.952  10.813  14.904  0.00  0.00    +0.000 HD
ENDBRANCH  14  19
BRANCH  15  21
ATOM     21  O   UNL     1      -1.198  10.275  17.020  0.00  0.00    +0.000 OA
ATOM     22  H   UNL     1      -0.938  10.880  16.296  0.00  0.00    +0.000 HD
ENDBRANCH  15  21
BRANCH  16  23
ATOM     23  C   UNL     1      -0.965  11.455  19.551  0.00  0.00    +0.000 C 
BRANCH  23  24
ATOM     24  N   UNL     1      -0.567  10.277  20.352  0.00  0.00    +0.000 NA
ATOM     25  C   UNL     1       0.674   9.674  19.825  0.00  0.00    +0.000 C 
ATOM     26  C   UNL     1       1.269   8.556  20.694  0.00  0.00    +0.000 C 
ATOM     27  C   UNL     1       1.383   8.936  22.160  0.00  0.00    +0.000 C 
ATOM     28  C   UNL     1       0.103   9.576  22.676  0.00  0.00    +0.000 C 
ATOM     29  C   UNL     1      -0.413  10.683  21.757  0.00  0.00    +0.000 C 
ENDBRANCH  23  24
ENDBRANCH  16  23
TORSDOF 4
ENDMDL
