MODEL 1
REMARK VINA RESULT:      -7.4      0.000      0.000
REMARK  Name = 
REMARK  3 active torsions:
REMARK  status: ('A' for Active; 'I' for Inactive)
REMARK    1  A    between atoms: C_1  and  O_2
REMARK    2  A    between atoms: O_2  and  C_3
REMARK    3  A    between atoms: C_8  and  C_9
REMARK                            x       y       z     vdW  Elec       q    Type
REMARK                         _______ _______ _______ _____ _____    ______ ____
ROOT
ATOM      1  C   UNL     1       6.544   4.738  14.836  0.00  0.00    +0.000 A 
ATOM      2  C   UNL     1       5.334   4.200  15.083  0.00  0.00    +0.000 A 
ATOM      3  C   UNL     1       4.775   4.267  16.453  0.00  0.00    +0.000 A 
ATOM      4  O   UNL     1       3.629   3.860  16.632  0.00  0.00    +0.000 OA
ATOM      5  N   UNL     1       5.614   4.806  17.394  0.00  0.00    +0.000 N 
ATOM      6  C   UNL     1       5.391   4.933  18.760  0.00  0.00    +0.000 A 
ATOM      7  C   UNL     1       6.391   5.547  19.418  0.00  0.00    +0.000 A 
ATOM      8  S   UNL     1       7.680   6.007  18.354  0.00  0.00    +0.000 S 
ATOM      9  C   UNL     1       6.826   5.324  16.989  0.00  0.00    +0.000 A 
ATOM     10  N   UNL     1       7.305   5.336  15.805  0.00  0.00    +0.000 NA
ENDROOT
BRANCH   6  11
ATOM     11  C   UNL     1       4.208   4.432  19.461  0.00  0.00    +0.000 A 
ATOM     12  C   UNL     1       3.166   5.303  19.805  0.00  0.00    +0.000 A 
ATOM     13  C   UNL     1       2.066   4.841  20.533  0.00  0.00    +0.000 A 
ATOM     14  C   UNL     1       1.986   3.499  20.900  0.00  0.00    +0.000 A 
ATOM     15  C   UNL     1       3.009   2.620  20.551  0.00  0.00    +0.000 A 
ATOM     16  C   UNL     1       4.124   3.087  19.849  0.00  0.00    +0.000 A 
ENDBRANCH   6  11
BRANCH   1  18
ATOM     17  C   UNL     1       6.426   3.714  12.700  0.00  0.00    +0.000 C 
ATOM     18  O   UNL     1       7.076   4.675  13.553  0.00  0.00    +0.000 OA
ENDBRANCH   1  18
TORSDOF 2
ENDMDL
MODEL 2
REMARK VINA RESULT:      -7.3      0.087      1.141
REMARK  Name = 
REMARK  3 active torsions:
REMARK  status: ('A' for Active; 'I' for Inactive)
REMARK    1  A    between atoms: C_1  and  O_2
REMARK    2  A    between atoms: O_2  and  C_3
REMARK    3  A    between atoms: C_8  and  C_9
REMARK                            x       y       z     vdW  Elec       q    Type
REMARK                         _______ _______ _______ _____ _____    ______ ____
ROOT
ATOM      1  C   UNL     1       6.547   4.785  14.837  0.00  0.00    +0.000 A 
ATOM      2  C   UNL     1       5.331   4.256  15.079  0.00  0.00    +0.000 A 
ATOM      3  C   UNL     1       4.773   4.314  16.449  0.00  0.00    +0.000 A 
ATOM      4  O   UNL     1       3.623   3.917  16.625  0.00  0.00    +0.000 OA
ATOM      5  N   UNL     1       5.619   4.833  17.396  0.00  0.00    +0.000 N 
ATOM      6  C   UNL     1       5.398   4.946  18.764  0.00  0.00    +0.000 A 
ATOM      7  C   UNL     1       6.405   5.542  19.429  0.00  0.00    +0.000 A 
ATOM      8  S   UNL     1       7.698   6.001  18.369  0.00  0.00    +0.000 S 
ATOM      9  C   UNL     1       6.836   5.343  16.997  0.00  0.00    +0.000 A 
ATOM     10  N   UNL     1       7.314   5.363  15.813  0.00  0.00    +0.000 NA
ENDROOT
BRANCH   6  11
ATOM     11  C   UNL     1       4.210   4.450  19.460  0.00  0.00    +0.000 A 
ATOM     12  C   UNL     1       4.091   3.090  19.777  0.00  0.00    +0.000 A 
ATOM     13  C   UNL     1       2.929   2.602  20.382  0.00  0.00    +0.000 A 
ATOM     14  C   UNL     1       1.888   3.473  20.698  0.00  0.00    +0.000 A 
ATOM     15  C   UNL     1       2.001   4.829  20.400  0.00  0.00    +0.000 A 
ATOM     16  C   UNL     1       3.150   5.314  19.769  0.00  0.00    +0.000 A 
ENDBRANCH   6  11
BRANCH   1  18
ATOM     17  C   UNL     1       6.464   3.736  12.711  0.00  0.00    +0.000 C 
ATOM     18  O   UNL     1       7.077   4.731  13.553  0.00  0.00    +0.000 OA
ENDBRANCH   1  18
TORSDOF 2
ENDMDL
MODEL 3
REMARK VINA RESULT:      -7.3      1.978      2.365
REMARK  Name = 
REMARK  3 active torsions:
REMARK  status: ('A' for Active; 'I' for Inactive)
REMARK    1  A    between atoms: C_1  and  O_2
REMARK    2  A    between atoms: O_2  and  C_3
REMARK    3  A    between atoms: C_8  and  C_9
REMARK                            x       y       z     vdW  Elec       q    Type
REMARK                         _______ _______ _______ _____ _____    ______ ____
ROOT
ATOM      1  C   UNL     1       6.158   5.464  15.973  0.00  0.00    +0.000 A 
ATOM      2  C   UNL     1       5.837   4.298  16.566  0.00  0.00    +0.000 A 
ATOM      3  C   UNL     1       4.654   4.236  17.455  0.00  0.00    +0.000 A 
ATOM      4  O   UNL     1       4.323   3.140  17.904  0.00  0.00    +0.000 OA
ATOM      5  N   UNL     1       4.031   5.437  17.673  0.00  0.00    +0.000 N 
ATOM      6  C   UNL     1       2.950   5.697  18.507  0.00  0.00    +0.000 A 
ATOM      7  C   UNL     1       2.534   6.975  18.475  0.00  0.00    +0.000 A 
ATOM      8  S   UNL     1       3.480   7.937  17.385  0.00  0.00    +0.000 S 
ATOM      9  C   UNL     1       4.470   6.550  16.988  0.00  0.00    +0.000 A 
ATOM     10  N   UNL     1       5.447   6.618  16.168  0.00  0.00    +0.000 NA
ENDROOT
BRANCH   6  11
ATOM     11  C   UNL     1       2.315   4.707  19.379  0.00  0.00    +0.000 A 
ATOM     12  C   UNL     1       2.719   4.575  20.714  0.00  0.00    +0.000 A 
ATOM     13  C   UNL     1       2.161   3.587  21.530  0.00  0.00    +0.000 A 
ATOM     14  C   UNL     1       1.176   2.740  21.026  0.00  0.00    +0.000 A 
ATOM     15  C   UNL     1       0.756   2.871  19.704  0.00  0.00    +0.000 A 
ATOM     16  C   UNL     1       1.334   3.839  18.878  0.00  0.00    +0.000 A 
ENDBRANCH   6  11
BRANCH   1  18
ATOM     17  C   UNL     1       7.126   4.778  13.919  0.00  0.00    +0.000 C 
ATOM     18  O   UNL     1       7.268   5.530  15.140  0.00  0.00    +0.000 OA
ENDBRANCH   1  18
TORSDOF 2
ENDMDL
MODEL 4
REMARK VINA RESULT:      -7.3      1.951      2.321
REMARK  Name = 
REMARK  3 active torsions:
REMARK  status: ('A' for Active; 'I' for Inactive)
REMARK    1  A    between atoms: C_1  and  O_2
REMARK    2  A    between atoms: O_2  and  C_3
REMARK    3  A    between atoms: C_8  and  C_9
REMARK                            x       y       z     vdW  Elec       q    Type
REMARK                         _______ _______ _______ _____ _____    ______ ____
ROOT
ATOM      1  C   UNL     1       6.179   5.431  15.872  0.00  0.00    +0.000 A 
ATOM      2  C   UNL     1       5.867   4.257  16.455  0.00  0.00    +0.000 A 
ATOM      3  C   UNL     1       4.699   4.184  17.362  0.00  0.00    +0.000 A 
ATOM      4  O   UNL     1       4.374   3.082  17.802  0.00  0.00    +0.000 OA
ATOM      5  N   UNL     1       4.082   5.383  17.607  0.00  0.00    +0.000 N 
ATOM      6  C   UNL     1       3.014   5.632  18.463  0.00  0.00    +0.000 A 
ATOM      7  C   UNL     1       2.599   6.911  18.455  0.00  0.00    +0.000 A 
ATOM      8  S   UNL     1       3.529   7.887  17.362  0.00  0.00    +0.000 S 
ATOM      9  C   UNL     1       4.510   6.505  16.930  0.00  0.00    +0.000 A 
ATOM     10  N   UNL     1       5.473   6.582  16.095  0.00  0.00    +0.000 NA
ENDROOT
BRANCH   6  11
ATOM     11  C   UNL     1       2.393   4.631  19.332  0.00  0.00    +0.000 A 
ATOM     12  C   UNL     1       1.364   3.812  18.847  0.00  0.00    +0.000 A 
ATOM     13  C   UNL     1       0.723   2.903  19.693  0.00  0.00    +0.000 A 
ATOM     14  C   UNL     1       1.122   2.786  21.023  0.00  0.00    +0.000 A 
ATOM     15  C   UNL     1       2.153   3.585  21.513  0.00  0.00    +0.000 A 
ATOM     16  C   UNL     1       2.775   4.516  20.676  0.00  0.00    +0.000 A 
ENDBRANCH   6  11
BRANCH   1  18
ATOM     17  C   UNL     1       7.120   4.756  13.802  0.00  0.00    +0.000 C 
ATOM     18  O   UNL     1       7.276   5.507  15.022  0.00  0.00    +0.000 OA
ENDBRANCH   1  18
TORSDOF 2
ENDMDL
MODEL 5
REMARK VINA RESULT:      -6.8      1.190      1.201
REMARK  Name = 
REMARK  3 active torsions:
REMARK  status: ('A' for Active; 'I' for Inactive)
REMARK    1  A    between atoms: C_1  and  O_2
REMARK    2  A    between atoms: O_2  and  C_3
REMARK    3  A    between atoms: C_8  and  C_9
REMARK                            x       y       z     vdW  Elec       q    Type
REMARK                         _______ _______ _______ _____ _____    ______ ____
ROOT
ATOM      1  C   UNL     1       7.200   5.195  14.878  0.00  0.00    +0.000 A 
ATOM      2  C   UNL     1       6.039   4.538  14.687  0.00  0.00    +0.000 A 
ATOM      3  C   UNL     1       5.133   4.314  15.836  0.00  0.00    +0.000 A 
ATOM      4  O   UNL     1       4.036   3.803  15.619  0.00  0.00    +0.000 OA
ATOM      5  N   UNL     1       5.623   4.727  17.048  0.00  0.00    +0.000 N 
ATOM      6  C   UNL     1       5.033   4.585  18.299  0.00  0.00    +0.000 A 
ATOM      7  C   UNL     1       5.744   5.135  19.300  0.00  0.00    +0.000 A 
ATOM      8  S   UNL     1       7.206   5.871  18.728  0.00  0.00    +0.000 S 
ATOM      9  C   UNL     1       6.830   5.394  17.088  0.00  0.00    +0.000 A 
ATOM     10  N   UNL     1       7.600   5.656  16.104  0.00  0.00    +0.000 NA
ENDROOT
BRANCH   6  11
ATOM     11  C   UNL     1       3.774   3.883  18.551  0.00  0.00    +0.000 A 
ATOM     12  C   UNL     1       2.557   4.578  18.519  0.00  0.00    +0.000 A 
ATOM     13  C   UNL     1       1.359   3.924  18.825  0.00  0.00    +0.000 A 
ATOM     14  C   UNL     1       1.365   2.566  19.138  0.00  0.00    +0.000 A 
ATOM     15  C   UNL     1       2.568   1.862  19.159  0.00  0.00    +0.000 A 
ATOM     16  C   UNL     1       3.769   2.521  18.882  0.00  0.00    +0.000 A 
ENDBRANCH   6  11
BRANCH   1  18
ATOM     17  C   UNL     1       7.505   5.008  12.533  0.00  0.00    +0.000 C 
ATOM     18  O   UNL     1       8.056   5.406  13.804  0.00  0.00    +0.000 OA
ENDBRANCH   1  18
TORSDOF 2
ENDMDL
MODEL 6
REMARK VINA RESULT:      -6.8      2.573      3.586
REMARK  Name = 
REMARK  3 active torsions:
REMARK  status: ('A' for Active; 'I' for Inactive)
REMARK    1  A    between atoms: C_1  and  O_2
REMARK    2  A    between atoms: O_2  and  C_3
REMARK    3  A    between atoms: C_8  and  C_9
REMARK                            x       y       z     vdW  Elec       q    Type
REMARK                         _______ _______ _______ _____ _____    ______ ____
ROOT
ATOM      1  C   UNL     1       7.582   6.678  18.112  0.00  0.00    +0.000 A 
ATOM      2  C   UNL     1       6.726   6.234  19.053  0.00  0.00    +0.000 A 
ATOM      3  C   UNL     1       5.674   5.262  18.678  0.00  0.00    +0.000 A 
ATOM      4  O   UNL     1       4.970   4.795  19.572  0.00  0.00    +0.000 OA
ATOM      5  N   UNL     1       5.608   4.969  17.341  0.00  0.00    +0.000 N 
ATOM      6  C   UNL     1       4.687   4.153  16.692  0.00  0.00    +0.000 A 
ATOM      7  C   UNL     1       4.910   4.026  15.372  0.00  0.00    +0.000 A 
ATOM      8  S   UNL     1       6.300   4.928  14.860  0.00  0.00    +0.000 S 
ATOM      9  C   UNL     1       6.559   5.497  16.494  0.00  0.00    +0.000 A 
ATOM     10  N   UNL     1       7.514   6.286  16.801  0.00  0.00    +0.000 NA
ENDROOT
BRANCH   6  11
ATOM     11  C   UNL     1       3.550   3.500  17.342  0.00  0.00    +0.000 A 
ATOM     12  C   UNL     1       2.342   4.189  17.516  0.00  0.00    +0.000 A 
ATOM     13  C   UNL     1       1.276   3.592  18.196  0.00  0.00    +0.000 A 
ATOM     14  C   UNL     1       1.400   2.292  18.684  0.00  0.00    +0.000 A 
ATOM     15  C   UNL     1       2.592   1.592  18.504  0.00  0.00    +0.000 A 
ATOM     16  C   UNL     1       3.668   2.199  17.851  0.00  0.00    +0.000 A 
ENDBRANCH   6  11
BRANCH   1  18
ATOM     17  C   UNL     1       8.269   8.948  18.068  0.00  0.00    +0.000 C 
ATOM     18  O   UNL     1       8.569   7.593  18.456  0.00  0.00    +0.000 OA
ENDBRANCH   1  18
TORSDOF 2
ENDMDL
MODEL 7
REMARK VINA RESULT:      -6.7      2.940      6.076
REMARK  Name = 
REMARK  3 active torsions:
REMARK  status: ('A' for Active; 'I' for Inactive)
REMARK    1  A    between atoms: C_1  and  O_2
REMARK    2  A    between atoms: O_2  and  C_3
REMARK    3  A    between atoms: C_8  and  C_9
REMARK                            x       y       z     vdW  Elec       q    Type
REMARK                         _______ _______ _______ _____ _____    ______ ____
ROOT
ATOM      1  C   UNL     1       1.726   6.634  20.500  0.00  0.00    +0.000 A 
ATOM      2  C   UNL     1       2.415   7.173  19.476  0.00  0.00    +0.000 A 
ATOM      3  C   UNL     1       3.308   6.313  18.666  0.00  0.00    +0.000 A 
ATOM      4  O   UNL     1       3.847   6.804  17.677  0.00  0.00    +0.000 OA
ATOM      5  N   UNL     1       3.426   5.022  19.113  0.00  0.00    +0.000 N 
ATOM      6  C   UNL     1       4.238   4.015  18.602  0.00  0.00    +0.000 A 
ATOM      7  C   UNL     1       4.100   2.835  19.232  0.00  0.00    +0.000 A 
ATOM      8  S   UNL     1       2.933   2.916  20.512  0.00  0.00    +0.000 S 
ATOM      9  C   UNL     1       2.651   4.609  20.175  0.00  0.00    +0.000 A 
ATOM     10  N   UNL     1       1.827   5.314  20.850  0.00  0.00    +0.000 NA
ENDROOT
BRANCH   6  11
ATOM     11  C   UNL     1       5.190   4.190  17.504  0.00  0.00    +0.000 A 
ATOM     12  C   UNL     1       6.506   4.596  17.764  0.00  0.00    +0.000 A 
ATOM     13  C   UNL     1       7.398   4.828  16.713  0.00  0.00    +0.000 A 
ATOM     14  C   UNL     1       6.990   4.631  15.395  0.00  0.00    +0.000 A 
ATOM     15  C   UNL     1       5.688   4.213  15.125  0.00  0.00    +0.000 A 
ATOM     16  C   UNL     1       4.786   4.009  16.173  0.00  0.00    +0.000 A 
ENDBRANCH   6  11
BRANCH   1  18
ATOM     17  C   UNL     1       1.171   8.846  21.152  0.00  0.00    +0.000 C 
ATOM     18  O   UNL     1       0.889   7.437  21.265  0.00  0.00    +0.000 OA
ENDBRANCH   1  18
TORSDOF 2
ENDMDL
MODEL 8
REMARK VINA RESULT:      -6.7      2.950      6.101
REMARK  Name = 
REMARK  3 active torsions:
REMARK  status: ('A' for Active; 'I' for Inactive)
REMARK    1  A    between atoms: C_1  and  O_2
REMARK    2  A    between atoms: O_2  and  C_3
REMARK    3  A    between atoms: C_8  and  C_9
REMARK                            x       y       z     vdW  Elec       q    Type
REMARK                         _______ _______ _______ _____ _____    ______ ____
ROOT
ATOM      1  C   UNL     1       1.692   6.633  20.533  0.00  0.00    +0.000 A 
ATOM      2  C   UNL     1       2.374   7.195  19.516  0.00  0.00    +0.000 A 
ATOM      3  C   UNL     1       3.273   6.356  18.692  0.00  0.00    +0.000 A 
ATOM      4  O   UNL     1       3.806   6.868  17.709  0.00  0.00    +0.000 OA
ATOM      5  N   UNL     1       3.405   5.059  19.117  0.00  0.00    +0.000 N 
ATOM      6  C   UNL     1       4.225   4.069  18.589  0.00  0.00    +0.000 A 
ATOM      7  C   UNL     1       4.100   2.877  19.200  0.00  0.00    +0.000 A 
ATOM      8  S   UNL     1       2.934   2.927  20.484  0.00  0.00    +0.000 S 
ATOM      9  C   UNL     1       2.635   4.622  20.174  0.00  0.00    +0.000 A 
ATOM     10  N   UNL     1       1.805   5.308  20.862  0.00  0.00    +0.000 NA
ENDROOT
BRANCH   6  11
ATOM     11  C   UNL     1       5.173   4.270  17.492  0.00  0.00    +0.000 A 
ATOM     12  C   UNL     1       4.780   4.050  16.166  0.00  0.00    +0.000 A 
ATOM     13  C   UNL     1       5.701   4.177  15.122  0.00  0.00    +0.000 A 
ATOM     14  C   UNL     1       7.016   4.550  15.393  0.00  0.00    +0.000 A 
ATOM     15  C   UNL     1       7.416   4.785  16.707  0.00  0.00    +0.000 A 
ATOM     16  C   UNL     1       6.503   4.630  17.755  0.00  0.00    +0.000 A 
ENDBRANCH   6  11
BRANCH   1  18
ATOM     17  C   UNL     1       1.264   8.791  21.419  0.00  0.00    +0.000 C 
ATOM     18  O   UNL     1       0.848   7.416  21.312  0.00  0.00    +0.000 OA
ENDBRANCH   1  18
TORSDOF 2
ENDMDL
MODEL 9
REMARK VINA RESULT:      -6.7      2.592      3.763
REMARK  Name = 
REMARK  3 active torsions:
REMARK  status: ('A' for Active; 'I' for Inactive)
REMARK    1  A    between atoms: C_1  and  O_2
REMARK    2  A    between atoms: O_2  and  C_3
REMARK    3  A    between atoms: C_8  and  C_9
REMARK                            x       y       z     vdW  Elec       q    Type
REMARK                         _______ _______ _______ _____ _____    ______ ____
ROOT
ATOM      1  C   UNL     1       7.581   6.753  18.109  0.00  0.00    +0.000 A 
ATOM      2  C   UNL     1       6.751   6.306  19.071  0.00  0.00    +0.000 A 
ATOM      3  C   UNL     1       5.698   5.325  18.725  0.00  0.00    +0.000 A 
ATOM      4  O   UNL     1       5.019   4.856  19.637  0.00  0.00    +0.000 OA
ATOM      5  N   UNL     1       5.602   5.027  17.390  0.00  0.00    +0.000 N 
ATOM      6  C   UNL     1       4.672   4.202  16.766  0.00  0.00    +0.000 A 
ATOM      7  C   UNL     1       4.865   4.072  15.441  0.00  0.00    +0.000 A 
ATOM      8  S   UNL     1       6.236   4.983  14.894  0.00  0.00    +0.000 S 
ATOM      9  C   UNL     1       6.529   5.558  16.519  0.00  0.00    +0.000 A 
ATOM     10  N   UNL     1       7.485   6.356  16.801  0.00  0.00    +0.000 NA
ENDROOT
BRANCH   6  11
ATOM     11  C   UNL     1       3.555   3.543  17.445  0.00  0.00    +0.000 A 
ATOM     12  C   UNL     1       3.681   2.223  17.899  0.00  0.00    +0.000 A 
ATOM     13  C   UNL     1       2.594   1.570  18.487  0.00  0.00    +0.000 A 
ATOM     14  C   UNL     1       1.383   2.238  18.651  0.00  0.00    +0.000 A 
ATOM     15  C   UNL     1       1.250   3.556  18.217  0.00  0.00    +0.000 A 
ATOM     16  C   UNL     1       2.326   4.201  17.602  0.00  0.00    +0.000 A 
ENDBRANCH   6  11
BRANCH   1  18
ATOM     17  C   UNL     1       8.258   9.024  18.028  0.00  0.00    +0.000 C 
ATOM     18  O   UNL     1       8.570   7.676  18.427  0.00  0.00    +0.000 OA
ENDBRANCH   1  18
TORSDOF 2
ENDMDL
