MODEL 1
REMARK VINA RESULT:      -8.0      0.000      0.000
REMARK  Name = 
REMARK  6 active torsions:
REMARK  status: ('A' for Active; 'I' for Inactive)
REMARK    1  A    between atoms: N_1  and  C_2
REMARK    2  A    between atoms: C_8  and  C_9
REMARK    3  A    between atoms: N_16  and  C_17
REMARK    4  A    between atoms: C_19  and  C_20
REMARK    5  A    between atoms: C_20  and  O_21
REMARK    6  A    between atoms: C_23  and  O_24
REMARK                            x       y       z     vdW  Elec       q    Type
REMARK                         _______ _______ _______ _____ _____    ______ ____
ROOT
ATOM      1  C   UNL     1       1.540   4.200  19.914  0.00  0.00    +0.000 A 
ATOM      2  N   UNL     1       1.623   2.870  20.117  0.00  0.00    +0.000 NA
ATOM      3  C   UNL     1       2.702   2.218  19.643  0.00  0.00    +0.000 A 
ATOM      4  N   UNL     1       3.744   2.720  18.959  0.00  0.00    +0.000 NA
ATOM      5  C   UNL     1       3.629   4.047  18.789  0.00  0.00    +0.000 A 
ATOM      6  C   UNL     1       2.589   4.850  19.246  0.00  0.00    +0.000 A 
ATOM      7  C   UNL     1       2.931   6.185  18.892  0.00  0.00    +0.000 A 
ATOM      8  C   UNL     1       4.132   6.156  18.219  0.00  0.00    +0.000 A 
ATOM      9  N   UNL     1       4.524   4.843  18.109  0.00  0.00    +0.000 N 
ENDROOT
BRANCH   7  10
ATOM     10  C   UNL     1       2.221   7.380  19.205  0.00  0.00    +0.000 C 
ATOM     11  C   UNL     1       1.808   7.675  20.448  0.00  0.00    +0.000 C 
ATOM     12  C   UNL     1       1.004   8.899  20.783  0.00  0.00    +0.000 C 
ATOM     13  C   UNL     1       0.416   9.574  19.544  0.00  0.00    +0.000 C 
ATOM     14  C   UNL     1       1.446   9.662  18.423  0.00  0.00    +0.000 C 
ATOM     15  C   UNL     1       1.948   8.272  18.016  0.00  0.00    +0.000 C 
ENDBRANCH   7  10
BRANCH   9  16
ATOM     16  C   UNL     1       5.710   4.336  17.422  0.00  0.00    +0.000 C 
ATOM     17  O   UNL     1       6.822   4.288  18.358  0.00  0.00    +0.000 OA
ATOM     18  C   UNL     1       7.764   5.322  18.014  0.00  0.00    +0.000 C 
ATOM     19  C   UNL     1       7.125   6.185  16.933  0.00  0.00    +0.000 C 
ATOM     20  C   UNL     1       6.186   5.212  16.257  0.00  0.00    +0.000 C 
BRANCH  20  21
ATOM     21  O   UNL     1       6.917   4.452  15.283  0.00  0.00    +0.000 OA
ATOM     22  H   UNL     1       7.757   4.163  15.678  0.00  0.00    +0.000 HD
ENDBRANCH  20  21
BRANCH  18  23
ATOM     23  C   UNL     1       8.171   6.120  19.251  0.00  0.00    +0.000 C 
BRANCH  23  24
ATOM     24  O   UNL     1       7.876   5.387  20.433  0.00  0.00    +0.000 OA
ATOM     25  H   UNL     1       8.614   5.532  21.052  0.00  0.00    +0.000 HD
ENDBRANCH  23  24
ENDBRANCH  18  23
ENDBRANCH   9  16
BRANCH   1  26
ATOM     26  N   UNL     1       0.408   4.843  20.393  0.00  0.00    +0.000 N 
ATOM     27  H   UNL     1       0.148   4.492  21.308  0.00  0.00    +0.000 HD
ATOM     28  H   UNL     1       0.411   5.846  20.273  0.00  0.00    +0.000 HD
ENDBRANCH   1  26
TORSDOF 6
ENDMDL
MODEL 2
REMARK VINA RESULT:      -7.8      0.341      1.077
REMARK  Name = 
REMARK  6 active torsions:
REMARK  status: ('A' for Active; 'I' for Inactive)
REMARK    1  A    between atoms: N_1  and  C_2
REMARK    2  A    between atoms: C_8  and  C_9
REMARK    3  A    between atoms: N_16  and  C_17
REMARK    4  A    between atoms: C_19  and  C_20
REMARK    5  A    between atoms: C_20  and  O_21
REMARK    6  A    between atoms: C_23  and  O_24
REMARK                            x       y       z     vdW  Elec       q    Type
REMARK                         _______ _______ _______ _____ _____    ______ ____
ROOT
ATOM      1  C   UNL     1       1.648   4.040  19.696  0.00  0.00    +0.000 A 
ATOM      2  N   UNL     1       1.796   2.714  19.888  0.00  0.00    +0.000 NA
ATOM      3  C   UNL     1       2.933   2.131  19.464  0.00  0.00    +0.000 A 
ATOM      4  N   UNL     1       3.979   2.701  18.842  0.00  0.00    +0.000 NA
ATOM      5  C   UNL     1       3.798   4.022  18.681  0.00  0.00    +0.000 A 
ATOM      6  C   UNL     1       2.691   4.758  19.092  0.00  0.00    +0.000 A 
ATOM      7  C   UNL     1       2.974   6.115  18.772  0.00  0.00    +0.000 A 
ATOM      8  C   UNL     1       4.209   6.164  18.164  0.00  0.00    +0.000 A 
ATOM      9  N   UNL     1       4.679   4.877  18.058  0.00  0.00    +0.000 N 
ENDROOT
BRANCH   7  10
ATOM     10  C   UNL     1       2.182   7.264  19.062  0.00  0.00    +0.000 C 
ATOM     11  C   UNL     1       1.730   8.094  18.108  0.00  0.00    +0.000 C 
ATOM     12  C   UNL     1       0.950   9.343  18.402  0.00  0.00    +0.000 C 
ATOM     13  C   UNL     1       1.023   9.751  19.874  0.00  0.00    +0.000 C 
ATOM     14  C   UNL     1       0.842   8.545  20.790  0.00  0.00    +0.000 C 
ATOM     15  C   UNL     1       1.919   7.484  20.534  0.00  0.00    +0.000 C 
ENDBRANCH   7  10
BRANCH   9  16
ATOM     16  C   UNL     1       5.927   4.448  17.429  0.00  0.00    +0.000 C 
ATOM     17  O   UNL     1       6.966   4.348  18.442  0.00  0.00    +0.000 OA
ATOM     18  C   UNL     1       7.905   5.423  18.252  0.00  0.00    +0.000 C 
ATOM     19  C   UNL     1       7.328   6.356  17.194  0.00  0.00    +0.000 C 
ATOM     20  C   UNL     1       6.468   5.422  16.375  0.00  0.00    +0.000 C 
BRANCH  20  21
ATOM     21  O   UNL     1       7.289   4.754  15.405  0.00  0.00    +0.000 OA
ATOM     22  H   UNL     1       7.225   3.794  15.549  0.00  0.00    +0.000 HD
ENDBRANCH  20  21
BRANCH  18  23
ATOM     23  C   UNL     1       8.196   6.130  19.574  0.00  0.00    +0.000 C 
BRANCH  23  24
ATOM     24  O   UNL     1       8.191   5.196  20.647  0.00  0.00    +0.000 OA
ATOM     25  H   UNL     1       8.578   5.645  21.419  0.00  0.00    +0.000 HD
ENDBRANCH  23  24
ENDBRANCH  18  23
ENDBRANCH   9  16
BRANCH   1  26
ATOM     26  N   UNL     1       0.458   4.611  20.123  0.00  0.00    +0.000 N 
ATOM     27  H   UNL     1      -0.180   3.907  20.475  0.00  0.00    +0.000 HD
ATOM     28  H   UNL     1       0.567   5.447  20.680  0.00  0.00    +0.000 HD
ENDBRANCH   1  26
TORSDOF 6
ENDMDL
MODEL 3
REMARK VINA RESULT:      -7.6      0.957      1.033
REMARK  Name = 
REMARK  6 active torsions:
REMARK  status: ('A' for Active; 'I' for Inactive)
REMARK    1  A    between atoms: N_1  and  C_2
REMARK    2  A    between atoms: C_8  and  C_9
REMARK    3  A    between atoms: N_16  and  C_17
REMARK    4  A    between atoms: C_19  and  C_20
REMARK    5  A    between atoms: C_20  and  O_21
REMARK    6  A    between atoms: C_23  and  O_24
REMARK                            x       y       z     vdW  Elec       q    Type
REMARK                         _______ _______ _______ _____ _____    ______ ____
ROOT
ATOM      1  C   UNL     1       1.495   3.780  19.713  0.00  0.00    +0.000 A 
ATOM      2  N   UNL     1       1.533   2.433  19.754  0.00  0.00    +0.000 NA
ATOM      3  C   UNL     1       2.564   1.804  19.159  0.00  0.00    +0.000 A 
ATOM      4  N   UNL     1       3.596   2.348  18.492  0.00  0.00    +0.000 NA
ATOM      5  C   UNL     1       3.529   3.689  18.484  0.00  0.00    +0.000 A 
ATOM      6  C   UNL     1       2.542   4.468  19.079  0.00  0.00    +0.000 A 
ATOM      7  C   UNL     1       2.922   5.822  18.870  0.00  0.00    +0.000 A 
ATOM      8  C   UNL     1       4.094   5.831  18.145  0.00  0.00    +0.000 A 
ATOM      9  N   UNL     1       4.426   4.528  17.863  0.00  0.00    +0.000 N 
ENDROOT
BRANCH   7  10
ATOM     10  C   UNL     1       2.276   6.996  19.354  0.00  0.00    +0.000 C 
ATOM     11  C   UNL     1       1.973   7.177  20.650  0.00  0.00    +0.000 C 
ATOM     12  C   UNL     1       1.235   8.379  21.165  0.00  0.00    +0.000 C 
ATOM     13  C   UNL     1       0.567   9.184  20.049  0.00  0.00    +0.000 C 
ATOM     14  C   UNL     1       1.506   9.359  18.860  0.00  0.00    +0.000 C 
ATOM     15  C   UNL     1       1.933   8.004  18.282  0.00  0.00    +0.000 C 
ENDBRANCH   7  10
BRANCH   9  16
ATOM     16  C   UNL     1       5.562   4.064  17.068  0.00  0.00    +0.000 C 
ATOM     17  O   UNL     1       6.774   4.716  17.538  0.00  0.00    +0.000 OA
ATOM     18  C   UNL     1       7.202   5.671  16.549  0.00  0.00    +0.000 C 
ATOM     19  C   UNL     1       6.104   5.765  15.496  0.00  0.00    +0.000 C 
ATOM     20  C   UNL     1       5.463   4.399  15.575  0.00  0.00    +0.000 C 
BRANCH  20  21
ATOM     21  O   UNL     1       6.218   3.478  14.772  0.00  0.00    +0.000 OA
ATOM     22  H   UNL     1       6.650   3.971  14.054  0.00  0.00    +0.000 HD
ENDBRANCH  20  21
BRANCH  18  23
ATOM     23  C   UNL     1       7.524   7.016  17.195  0.00  0.00    +0.000 C 
BRANCH  23  24
ATOM     24  O   UNL     1       7.956   6.830  18.538  0.00  0.00    +0.000 OA
ATOM     25  H   UNL     1       7.992   7.711  18.951  0.00  0.00    +0.000 HD
ENDBRANCH  23  24
ENDBRANCH  18  23
ENDBRANCH   9  16
BRANCH   1  26
ATOM     26  N   UNL     1       0.411   4.401  20.316  0.00  0.00    +0.000 N 
ATOM     27  H   UNL     1       0.152   3.931  21.175  0.00  0.00    +0.000 HD
ATOM     28  H   UNL     1       0.466   5.410  20.346  0.00  0.00    +0.000 HD
ENDBRANCH   1  26
TORSDOF 6
ENDMDL
MODEL 4
REMARK VINA RESULT:      -7.4      1.374      1.797
REMARK  Name = 
REMARK  6 active torsions:
REMARK  status: ('A' for Active; 'I' for Inactive)
REMARK    1  A    between atoms: N_1  and  C_2
REMARK    2  A    between atoms: C_8  and  C_9
REMARK    3  A    between atoms: N_16  and  C_17
REMARK    4  A    between atoms: C_19  and  C_20
REMARK    5  A    between atoms: C_20  and  O_21
REMARK    6  A    between atoms: C_23  and  O_24
REMARK                            x       y       z     vdW  Elec       q    Type
REMARK                         _______ _______ _______ _____ _____    ______ ____
ROOT
ATOM      1  C   UNL     1       2.102   4.099  19.948  0.00  0.00    +0.000 A 
ATOM      2  N   UNL     1       2.383   2.804  20.191  0.00  0.00    +0.000 NA
ATOM      3  C   UNL     1       3.652   2.384  20.028  0.00  0.00    +0.000 A 
ATOM      4  N   UNL     1       4.720   3.097  19.630  0.00  0.00    +0.000 NA
ATOM      5  C   UNL     1       4.401   4.383  19.410  0.00  0.00    +0.000 A 
ATOM      6  C   UNL     1       3.144   4.958  19.564  0.00  0.00    +0.000 A 
ATOM      7  C   UNL     1       3.302   6.344  19.286  0.00  0.00    +0.000 A 
ATOM      8  C   UNL     1       4.620   6.566  18.951  0.00  0.00    +0.000 A 
ATOM      9  N   UNL     1       5.271   5.356  18.972  0.00  0.00    +0.000 N 
ENDROOT
BRANCH   7  10
ATOM     10  C   UNL     1       2.320   7.372  19.379  0.00  0.00    +0.000 C 
ATOM     11  C   UNL     1       1.904   8.078  18.316  0.00  0.00    +0.000 C 
ATOM     12  C   UNL     1       0.917   9.206  18.409  0.00  0.00    +0.000 C 
ATOM     13  C   UNL     1       0.709   9.691  19.845  0.00  0.00    +0.000 C 
ATOM     14  C   UNL     1       0.566   8.516  20.806  0.00  0.00    +0.000 C 
ATOM     15  C   UNL     1       1.810   7.619  20.780  0.00  0.00    +0.000 C 
ENDBRANCH   7  10
BRANCH   9  16
ATOM     16  C   UNL     1       6.670   5.105  18.629  0.00  0.00    +0.000 C 
ATOM     17  O   UNL     1       7.454   6.298  18.908  0.00  0.00    +0.000 OA
ATOM     18  C   UNL     1       7.848   6.898  17.660  0.00  0.00    +0.000 C 
ATOM     19  C   UNL     1       7.117   6.161  16.545  0.00  0.00    +0.000 C 
ATOM     20  C   UNL     1       6.908   4.791  17.146  0.00  0.00    +0.000 C 
BRANCH  20  21
ATOM     21  O   UNL     1       8.093   4.005  16.952  0.00  0.00    +0.000 OA
ATOM     22  H   UNL     1       8.673   4.118  17.725  0.00  0.00    +0.000 HD
ENDBRANCH  20  21
BRANCH  18  23
ATOM     23  C   UNL     1       7.566   8.399  17.666  0.00  0.00    +0.000 C 
BRANCH  23  24
ATOM     24  O   UNL     1       8.566   9.089  18.407  0.00  0.00    +0.000 OA
ATOM     25  H   UNL     1       9.418   8.911  17.970  0.00  0.00    +0.000 HD
ENDBRANCH  23  24
ENDBRANCH  18  23
ENDBRANCH   9  16
BRANCH   1  26
ATOM     26  N   UNL     1       0.783   4.500  20.102  0.00  0.00    +0.000 N 
ATOM     27  H   UNL     1       0.176   4.017  19.450  0.00  0.00    +0.000 HD
ATOM     28  H   UNL     1       0.469   4.558  21.061  0.00  0.00    +0.000 HD
ENDBRANCH   1  26
TORSDOF 6
ENDMDL
MODEL 5
REMARK VINA RESULT:      -7.2      1.338      1.416
REMARK  Name = 
REMARK  6 active torsions:
REMARK  status: ('A' for Active; 'I' for Inactive)
REMARK    1  A    between atoms: N_1  and  C_2
REMARK    2  A    between atoms: C_8  and  C_9
REMARK    3  A    between atoms: N_16  and  C_17
REMARK    4  A    between atoms: C_19  and  C_20
REMARK    5  A    between atoms: C_20  and  O_21
REMARK    6  A    between atoms: C_23  and  O_24
REMARK                            x       y       z     vdW  Elec       q    Type
REMARK                         _______ _______ _______ _____ _____    ______ ____
ROOT
ATOM      1  C   UNL     1       2.046   3.985  20.092  0.00  0.00    +0.000 A 
ATOM      2  N   UNL     1       2.318   2.673  20.238  0.00  0.00    +0.000 NA
ATOM      3  C   UNL     1       3.564   2.244  19.961  0.00  0.00    +0.000 A 
ATOM      4  N   UNL     1       4.615   2.964  19.533  0.00  0.00    +0.000 NA
ATOM      5  C   UNL     1       4.307   4.265  19.413  0.00  0.00    +0.000 A 
ATOM      6  C   UNL     1       3.075   4.849  19.688  0.00  0.00    +0.000 A 
ATOM      7  C   UNL     1       3.241   6.247  19.483  0.00  0.00    +0.000 A 
ATOM      8  C   UNL     1       4.537   6.468  19.070  0.00  0.00    +0.000 A 
ATOM      9  N   UNL     1       5.164   5.249  18.973  0.00  0.00    +0.000 N 
ENDROOT
BRANCH   7  10
ATOM     10  C   UNL     1       2.288   7.282  19.706  0.00  0.00    +0.000 C 
ATOM     11  C   UNL     1       1.663   7.453  20.883  0.00  0.00    +0.000 C 
ATOM     12  C   UNL     1       0.611   8.498  21.115  0.00  0.00    +0.000 C 
ATOM     13  C   UNL     1       0.081   9.100  19.813  0.00  0.00    +0.000 C 
ATOM     14  C   UNL     1       1.220   9.413  18.848  0.00  0.00    +0.000 C 
ATOM     15  C   UNL     1       2.019   8.152  18.500  0.00  0.00    +0.000 C 
ENDBRANCH   7  10
BRANCH   9  16
ATOM     16  C   UNL     1       6.530   4.999  18.519  0.00  0.00    +0.000 C 
ATOM     17  O   UNL     1       7.349   6.168  18.792  0.00  0.00    +0.000 OA
ATOM     18  C   UNL     1       7.661   6.819  17.546  0.00  0.00    +0.000 C 
ATOM     19  C   UNL     1       6.841   6.141  16.455  0.00  0.00    +0.000 C 
ATOM     20  C   UNL     1       6.656   4.747  17.010  0.00  0.00    +0.000 C 
BRANCH  20  21
ATOM     21  O   UNL     1       7.813   3.958  16.697  0.00  0.00    +0.000 OA
ATOM     22  H   UNL     1       8.168   3.582  17.521  0.00  0.00    +0.000 HD
ENDBRANCH  20  21
BRANCH  18  23
ATOM     23  C   UNL     1       7.402   8.322  17.637  0.00  0.00    +0.000 C 
BRANCH  23  24
ATOM     24  O   UNL     1       8.483   8.972  18.296  0.00  0.00    +0.000 OA
ATOM     25  H   UNL     1       9.260   8.894  17.715  0.00  0.00    +0.000 HD
ENDBRANCH  23  24
ENDBRANCH  18  23
ENDBRANCH   9  16
BRANCH   1  26
ATOM     26  N   UNL     1       0.748   4.396  20.362  0.00  0.00    +0.000 N 
ATOM     27  H   UNL     1       0.695   5.404  20.451  0.00  0.00    +0.000 HD
ATOM     28  H   UNL     1       0.039   3.949  19.799  0.00  0.00    +0.000 HD
ENDBRANCH   1  26
TORSDOF 6
ENDMDL
MODEL 6
REMARK VINA RESULT:      -7.2      1.120      1.662
REMARK  Name = 
REMARK  6 active torsions:
REMARK  status: ('A' for Active; 'I' for Inactive)
REMARK    1  A    between atoms: N_1  and  C_2
REMARK    2  A    between atoms: C_8  and  C_9
REMARK    3  A    between atoms: N_16  and  C_17
REMARK    4  A    between atoms: C_19  and  C_20
REMARK    5  A    between atoms: C_20  and  O_21
REMARK    6  A    between atoms: C_23  and  O_24
REMARK                            x       y       z     vdW  Elec       q    Type
REMARK                         _______ _______ _______ _____ _____    ______ ____
ROOT
ATOM      1  C   UNL     1       1.446   3.708  19.577  0.00  0.00    +0.000 A 
ATOM      2  N   UNL     1       1.498   2.365  19.668  0.00  0.00    +0.000 NA
ATOM      3  C   UNL     1       2.525   1.724  19.079  0.00  0.00    +0.000 A 
ATOM      4  N   UNL     1       3.541   2.252  18.375  0.00  0.00    +0.000 NA
ATOM      5  C   UNL     1       3.460   3.591  18.318  0.00  0.00    +0.000 A 
ATOM      6  C   UNL     1       2.474   4.382  18.900  0.00  0.00    +0.000 A 
ATOM      7  C   UNL     1       2.837   5.732  18.634  0.00  0.00    +0.000 A 
ATOM      8  C   UNL     1       3.996   5.725  17.890  0.00  0.00    +0.000 A 
ATOM      9  N   UNL     1       4.337   4.415  17.651  0.00  0.00    +0.000 N 
ENDROOT
BRANCH   7  10
ATOM     10  C   UNL     1       2.186   6.916  19.085  0.00  0.00    +0.000 C 
ATOM     11  C   UNL     1       1.791   7.891  18.249  0.00  0.00    +0.000 C 
ATOM     12  C   UNL     1       1.162   9.172  18.714  0.00  0.00    +0.000 C 
ATOM     13  C   UNL     1       1.335   9.403  20.216  0.00  0.00    +0.000 C 
ATOM     14  C   UNL     1       1.059   8.127  21.004  0.00  0.00    +0.000 C 
ATOM     15  C   UNL     1       2.004   6.995  20.583  0.00  0.00    +0.000 C 
ENDBRANCH   7  10
BRANCH   9  16
ATOM     16  C   UNL     1       5.465   3.933  16.855  0.00  0.00    +0.000 C 
ATOM     17  O   UNL     1       6.706   4.422  17.435  0.00  0.00    +0.000 OA
ATOM     18  C   UNL     1       7.260   5.429  16.569  0.00  0.00    +0.000 C 
ATOM     19  C   UNL     1       6.224   5.729  15.492  0.00  0.00    +0.000 C 
ATOM     20  C   UNL     1       5.465   4.425  15.402  0.00  0.00    +0.000 C 
BRANCH  20  21
ATOM     21  O   UNL     1       6.174   3.526  14.536  0.00  0.00    +0.000 OA
ATOM     22  H   UNL     1       7.098   3.822  14.467  0.00  0.00    +0.000 HD
ENDBRANCH  20  21
BRANCH  18  23
ATOM     23  C   UNL     1       7.666   6.668  17.365  0.00  0.00    +0.000 C 
BRANCH  23  24
ATOM     24  O   UNL     1       6.942   7.806  16.914  0.00  0.00    +0.000 OA
ATOM     25  H   UNL     1       6.567   7.581  16.045  0.00  0.00    +0.000 HD
ENDBRANCH  23  24
ENDBRANCH  18  23
ENDBRANCH   9  16
BRANCH   1  26
ATOM     26  N   UNL     1       0.365   4.341  20.174  0.00  0.00    +0.000 N 
ATOM     27  H   UNL     1      -0.064   5.006  19.542  0.00  0.00    +0.000 HD
ATOM     28  H   UNL     1      -0.256   3.726  20.681  0.00  0.00    +0.000 HD
ENDBRANCH   1  26
TORSDOF 6
ENDMDL
MODEL 7
REMARK VINA RESULT:      -7.1      2.560      4.662
REMARK  Name = 
REMARK  6 active torsions:
REMARK  status: ('A' for Active; 'I' for Inactive)
REMARK    1  A    between atoms: N_1  and  C_2
REMARK    2  A    between atoms: C_8  and  C_9
REMARK    3  A    between atoms: N_16  and  C_17
REMARK    4  A    between atoms: C_19  and  C_20
REMARK    5  A    between atoms: C_20  and  O_21
REMARK    6  A    between atoms: C_23  and  O_24
REMARK                            x       y       z     vdW  Elec       q    Type
REMARK                         _______ _______ _______ _____ _____    ______ ____
ROOT
ATOM      1  C   UNL     1       5.641   7.014  17.224  0.00  0.00    +0.000 A 
ATOM      2  N   UNL     1       6.725   6.506  16.604  0.00  0.00    +0.000 NA
ATOM      3  C   UNL     1       6.749   5.186  16.340  0.00  0.00    +0.000 A 
ATOM      4  N   UNL     1       5.817   4.262  16.630  0.00  0.00    +0.000 NA
ATOM      5  C   UNL     1       4.751   4.809  17.235  0.00  0.00    +0.000 A 
ATOM      6  C   UNL     1       4.578   6.155  17.543  0.00  0.00    +0.000 A 
ATOM      7  C   UNL     1       3.279   6.271  18.111  0.00  0.00    +0.000 A 
ATOM      8  C   UNL     1       2.718   5.014  18.157  0.00  0.00    +0.000 A 
ATOM      9  N   UNL     1       3.644   4.119  17.675  0.00  0.00    +0.000 N 
ENDROOT
BRANCH   7  10
ATOM     10  C   UNL     1       2.608   7.459  18.520  0.00  0.00    +0.000 C 
ATOM     11  C   UNL     1       2.156   7.644  19.771  0.00  0.00    +0.000 C 
ATOM     12  C   UNL     1       1.391   8.862  20.201  0.00  0.00    +0.000 C 
ATOM     13  C   UNL     1       0.883   9.687  19.018  0.00  0.00    +0.000 C 
ATOM     14  C   UNL     1       1.962   9.842  17.951  0.00  0.00    +0.000 C 
ATOM     15  C   UNL     1       2.422   8.479  17.420  0.00  0.00    +0.000 C 
ENDBRANCH   7  10
BRANCH   9  16
ATOM     16  C   UNL     1       3.500   2.667  17.591  0.00  0.00    +0.000 C 
ATOM     17  O   UNL     1       2.092   2.331  17.454  0.00  0.00    +0.000 OA
ATOM     18  C   UNL     1       1.634   1.735  18.682  0.00  0.00    +0.000 C 
ATOM     19  C   UNL     1       2.752   1.878  19.707  0.00  0.00    +0.000 C 
ATOM     20  C   UNL     1       3.986   1.913  18.836  0.00  0.00    +0.000 C 
BRANCH  20  21
ATOM     21  O   UNL     1       4.382   0.569  18.523  0.00  0.00    +0.000 OA
ATOM     22  H   UNL     1       4.765   0.556  17.629  0.00  0.00    +0.000 HD
ENDBRANCH  20  21
BRANCH  18  23
ATOM     23  C   UNL     1       0.322   2.369  19.139  0.00  0.00    +0.000 C 
BRANCH  23  24
ATOM     24  O   UNL     1       0.533   3.159  20.304  0.00  0.00    +0.000 OA
ATOM     25  H   UNL     1       0.955   2.584  20.967  0.00  0.00    +0.000 HD
ENDBRANCH  23  24
ENDBRANCH  18  23
ENDBRANCH   9  16
BRANCH   1  26
ATOM     26  N   UNL     1       5.651   8.373  17.503  0.00  0.00    +0.000 N 
ATOM     27  H   UNL     1       5.130   8.577  18.348  0.00  0.00    +0.000 HD
ATOM     28  H   UNL     1       6.554   8.817  17.405  0.00  0.00    +0.000 HD
ENDBRANCH   1  26
TORSDOF 6
ENDMDL
MODEL 8
REMARK VINA RESULT:      -7.1      2.568      4.785
REMARK  Name = 
REMARK  6 active torsions:
REMARK  status: ('A' for Active; 'I' for Inactive)
REMARK    1  A    between atoms: N_1  and  C_2
REMARK    2  A    between atoms: C_8  and  C_9
REMARK    3  A    between atoms: N_16  and  C_17
REMARK    4  A    between atoms: C_19  and  C_20
REMARK    5  A    between atoms: C_20  and  O_21
REMARK    6  A    between atoms: C_23  and  O_24
REMARK                            x       y       z     vdW  Elec       q    Type
REMARK                         _______ _______ _______ _____ _____    ______ ____
ROOT
ATOM      1  C   UNL     1       5.714   6.997  17.217  0.00  0.00    +0.000 A 
ATOM      2  N   UNL     1       6.822   6.468  16.660  0.00  0.00    +0.000 NA
ATOM      3  C   UNL     1       6.850   5.142  16.430  0.00  0.00    +0.000 A 
ATOM      4  N   UNL     1       5.900   4.230  16.698  0.00  0.00    +0.000 NA
ATOM      5  C   UNL     1       4.810   4.798  17.240  0.00  0.00    +0.000 A 
ATOM      6  C   UNL     1       4.632   6.152  17.506  0.00  0.00    +0.000 A 
ATOM      7  C   UNL     1       3.309   6.288  18.010  0.00  0.00    +0.000 A 
ATOM      8  C   UNL     1       2.738   5.036  18.060  0.00  0.00    +0.000 A 
ATOM      9  N   UNL     1       3.680   4.125  17.644  0.00  0.00    +0.000 N 
ENDROOT
BRANCH   7  10
ATOM     10  C   UNL     1       2.627   7.490  18.359  0.00  0.00    +0.000 C 
ATOM     11  C   UNL     1       2.409   8.482  17.481  0.00  0.00    +0.000 C 
ATOM     12  C   UNL     1       1.749   9.780  17.849  0.00  0.00    +0.000 C 
ATOM     13  C   UNL     1       1.672   9.994  19.362  0.00  0.00    +0.000 C 
ATOM     14  C   UNL     1       1.229   8.721  20.076  0.00  0.00    +0.000 C 
ATOM     15  C   UNL     1       2.197   7.564  19.806  0.00  0.00    +0.000 C 
ENDBRANCH   7  10
BRANCH   9  16
ATOM     16  C   UNL     1       3.530   2.671  17.589  0.00  0.00    +0.000 C 
ATOM     17  O   UNL     1       2.124   2.339  17.429  0.00  0.00    +0.000 OA
ATOM     18  C   UNL     1       1.637   1.772  18.659  0.00  0.00    +0.000 C 
ATOM     19  C   UNL     1       2.734   1.932  19.705  0.00  0.00    +0.000 C 
ATOM     20  C   UNL     1       3.987   1.943  18.860  0.00  0.00    +0.000 C 
BRANCH  20  21
ATOM     21  O   UNL     1       4.382   0.591  18.585  0.00  0.00    +0.000 OA
ATOM     22  H   UNL     1       3.678   0.158  18.072  0.00  0.00    +0.000 HD
ENDBRANCH  20  21
BRANCH  18  23
ATOM     23  C   UNL     1       0.319   2.422  19.074  0.00  0.00    +0.000 C 
BRANCH  23  24
ATOM     24  O   UNL     1       0.499   3.200  20.252  0.00  0.00    +0.000 OA
ATOM     25  H   UNL     1       0.787   4.085  19.969  0.00  0.00    +0.000 HD
ENDBRANCH  23  24
ENDBRANCH  18  23
ENDBRANCH   9  16
BRANCH   1  26
ATOM     26  N   UNL     1       5.720   8.362  17.462  0.00  0.00    +0.000 N 
ATOM     27  H   UNL     1       6.616   8.664  17.827  0.00  0.00    +0.000 HD
ATOM     28  H   UNL     1       5.313   8.924  16.728  0.00  0.00    +0.000 HD
ENDBRANCH   1  26
TORSDOF 6
ENDMDL
MODEL 9
REMARK VINA RESULT:      -7.0      2.579      4.540
REMARK  Name = 
REMARK  6 active torsions:
REMARK  status: ('A' for Active; 'I' for Inactive)
REMARK    1  A    between atoms: N_1  and  C_2
REMARK    2  A    between atoms: C_8  and  C_9
REMARK    3  A    between atoms: N_16  and  C_17
REMARK    4  A    between atoms: C_19  and  C_20
REMARK    5  A    between atoms: C_20  and  O_21
REMARK    6  A    between atoms: C_23  and  O_24
REMARK                            x       y       z     vdW  Elec       q    Type
REMARK                         _______ _______ _______ _____ _____    ______ ____
ROOT
ATOM      1  C   UNL     1       5.113   6.897  17.030  0.00  0.00    +0.000 A 
ATOM      2  N   UNL     1       6.111   6.262  16.384  0.00  0.00    +0.000 NA
ATOM      3  C   UNL     1       6.052   4.921  16.279  0.00  0.00    +0.000 A 
ATOM      4  N   UNL     1       5.110   4.090  16.755  0.00  0.00    +0.000 NA
ATOM      5  C   UNL     1       4.129   4.761  17.380  0.00  0.00    +0.000 A 
ATOM      6  C   UNL     1       4.046   6.141  17.539  0.00  0.00    +0.000 A 
ATOM      7  C   UNL     1       2.811   6.392  18.198  0.00  0.00    +0.000 A 
ATOM      8  C   UNL     1       2.200   5.182  18.441  0.00  0.00    +0.000 A 
ATOM      9  N   UNL     1       3.037   4.188  17.992  0.00  0.00    +0.000 N 
ENDROOT
BRANCH   7  10
ATOM     10  C   UNL     1       2.234   7.655  18.519  0.00  0.00    +0.000 C 
ATOM     11  C   UNL     1       1.985   8.597  17.594  0.00  0.00    +0.000 C 
ATOM     12  C   UNL     1       1.437   9.955  17.924  0.00  0.00    +0.000 C 
ATOM     13  C   UNL     1       1.522  10.277  19.417  0.00  0.00    +0.000 C 
ATOM     14  C   UNL     1       1.081   9.087  20.263  0.00  0.00    +0.000 C 
ATOM     15  C   UNL     1       1.953   7.855  19.990  0.00  0.00    +0.000 C 
ENDBRANCH   7  10
BRANCH   9  16
ATOM     16  C   UNL     1       2.821   2.746  18.095  0.00  0.00    +0.000 C 
ATOM     17  O   UNL     1       1.616   2.495  18.869  0.00  0.00    +0.000 OA
ATOM     18  C   UNL     1       1.991   1.955  20.150  0.00  0.00    +0.000 C 
ATOM     19  C   UNL     1       3.507   2.051  20.264  0.00  0.00    +0.000 C 
ATOM     20  C   UNL     1       3.944   1.992  18.818  0.00  0.00    +0.000 C 
BRANCH  20  21
ATOM     21  O   UNL     1       4.016   0.619  18.404  0.00  0.00    +0.000 OA
ATOM     22  H   UNL     1       3.702   0.553  17.485  0.00  0.00    +0.000 HD
ENDBRANCH  20  21
BRANCH  18  23
ATOM     23  C   UNL     1       1.262   2.679  21.280  0.00  0.00    +0.000 C 
BRANCH  23  24
ATOM     24  O   UNL     1       2.197   3.245  22.190  0.00  0.00    +0.000 OA
ATOM     25  H   UNL     1       1.695   3.814  22.800  0.00  0.00    +0.000 HD
ENDBRANCH  23  24
ENDBRANCH  18  23
ENDBRANCH   9  16
BRANCH   1  26
ATOM     26  N   UNL     1       5.209   8.276  17.143  0.00  0.00    +0.000 N 
ATOM     27  H   UNL     1       5.927   8.644  16.528  0.00  0.00    +0.000 HD
ATOM     28  H   UNL     1       4.323   8.762  17.152  0.00  0.00    +0.000 HD
ENDBRANCH   1  26
TORSDOF 6
ENDMDL
