MODEL 1
REMARK VINA RESULT:      -7.8      0.000      0.000
REMARK  Name = 
REMARK  3 active torsions:
REMARK  status: ('A' for Active; 'I' for Inactive)
REMARK    1  A    between atoms: C_1  and  C_2
REMARK    2  A    between atoms: C_12  and  N_13
REMARK    3  A    between atoms: N_16  and  C_17
REMARK                            x       y       z     vdW  Elec       q    Type
REMARK                         _______ _______ _______ _____ _____    ______ ____
ROOT
ATOM      1  N   UNL     1       2.706   7.333  19.275  0.00  0.00    +0.000 N 
ATOM      2  C   UNL     1       1.862   8.158  18.548  0.00  0.00    +0.000 C 
ATOM      3  O   UNL     1       1.251   7.847  17.537  0.00  0.00    +0.000 OA
ATOM      4  N   UNL     1       1.795   9.419  19.106  0.00  0.00    +0.000 N 
ATOM      5  H   UNL     1       2.735   7.551  20.256  0.00  0.00    +0.000 HD
ATOM      6  H   UNL     1       2.142   9.542  20.043  0.00  0.00    +0.000 HD
ENDROOT
BRANCH   1  18
ATOM      7  C   UNL     1       1.301   5.134  20.697  0.00  0.00    +0.000 C 
ATOM      8  C   UNL     1       2.333   4.918  19.622  0.00  0.00    +0.000 A 
ATOM      9  C   UNL     1       2.597   3.599  19.239  0.00  0.00    +0.000 A 
ATOM     10  C   UNL     1       3.429   3.313  18.161  0.00  0.00    +0.000 A 
ATOM     11 CL   UNL     1       3.644   1.631  17.778  0.00  0.00    +0.000 Cl
ATOM     12  C   UNL     1       4.045   4.340  17.417  0.00  0.00    +0.000 A 
ATOM     13  C   UNL     1       4.870   4.079  16.297  0.00  0.00    +0.000 A 
ATOM     14  C   UNL     1       5.490   5.098  15.579  0.00  0.00    +0.000 A 
ATOM     15  C   UNL     1       5.312   6.410  15.974  0.00  0.00    +0.000 A 
ATOM     16  C   UNL     1       4.504   6.699  17.074  0.00  0.00    +0.000 A 
ATOM     17  C   UNL     1       3.824   5.694  17.812  0.00  0.00    +0.000 A 
ATOM     18  C   UNL     1       2.975   5.974  18.935  0.00  0.00    +0.000 A 
ENDBRANCH   1  18
BRANCH   4  19
ATOM     19  C   UNL     1       0.997  10.508  18.530  0.00  0.00    +0.000 C 
ATOM     20  C   UNL     1      -0.465  10.478  19.011  0.00  0.00    +0.000 C 
ATOM     21  C   UNL     1      -0.728  11.836  19.673  0.00  0.00    +0.000 C 
ATOM     22  N   UNL     1       0.290  12.705  19.096  0.00  0.00    +0.000 NA
ATOM     23  C   UNL     1       0.556  13.933  19.845  0.00  0.00    +0.000 C 
ATOM     24  C   UNL     1       1.666  14.746  19.155  0.00  0.00    +0.000 C 
ATOM     25  C   UNL     1       2.895  13.901  18.791  0.00  0.00    +0.000 C 
ATOM     26  C   UNL     1       2.488  12.595  18.101  0.00  0.00    +0.000 C 
ATOM     27  C   UNL     1       1.498  11.877  19.009  0.00  0.00    +0.000 C 
ENDBRANCH   4  19
TORSDOF 2
ENDMDL
MODEL 2
REMARK VINA RESULT:      -7.6      3.382      8.348
REMARK  Name = 
REMARK  3 active torsions:
REMARK  status: ('A' for Active; 'I' for Inactive)
REMARK    1  A    between atoms: C_1  and  C_2
REMARK    2  A    between atoms: C_12  and  N_13
REMARK    3  A    between atoms: N_16  and  C_17
REMARK                            x       y       z     vdW  Elec       q    Type
REMARK                         _______ _______ _______ _____ _____    ______ ____
ROOT
ATOM      1  N   UNL     1       0.862  10.042  18.142  0.00  0.00    +0.000 N 
ATOM      2  C   UNL     1       1.487   9.033  18.858  0.00  0.00    +0.000 C 
ATOM      3  O   UNL     1       1.361   8.817  20.054  0.00  0.00    +0.000 OA
ATOM      4  N   UNL     1       2.307   8.278  18.043  0.00  0.00    +0.000 N 
ATOM      5  H   UNL     1       0.689   9.806  17.181  0.00  0.00    +0.000 HD
ATOM      6  H   UNL     1       2.197   8.368  17.046  0.00  0.00    +0.000 HD
ENDROOT
BRANCH   1  18
ATOM      7  C   UNL     1       1.909  12.350  19.694  0.00  0.00    +0.000 C 
ATOM      8  C   UNL     1       0.444  12.071  19.483  0.00  0.00    +0.000 A 
ATOM      9  C   UNL     1      -0.468  12.993  20.007  0.00  0.00    +0.000 A 
ATOM     10  C   UNL     1      -1.830  12.891  19.742  0.00  0.00    +0.000 A 
ATOM     11 CL   UNL     1      -2.845  14.122  20.433  0.00  0.00    +0.000 Cl
ATOM     12  C   UNL     1      -2.345  11.852  18.940  0.00  0.00    +0.000 A 
ATOM     13  C   UNL     1      -3.722  11.743  18.628  0.00  0.00    +0.000 A 
ATOM     14  C   UNL     1      -4.226  10.703  17.851  0.00  0.00    +0.000 A 
ATOM     15  C   UNL     1      -3.364   9.732  17.378  0.00  0.00    +0.000 A 
ATOM     16  C   UNL     1      -2.001   9.813  17.669  0.00  0.00    +0.000 A 
ATOM     17  C   UNL     1      -1.441  10.875  18.426  0.00  0.00    +0.000 A 
ATOM     18  C   UNL     1      -0.040  10.984  18.720  0.00  0.00    +0.000 A 
ENDBRANCH   1  18
BRANCH   4  19
ATOM     19  C   UNL     1       3.113   7.156  18.538  0.00  0.00    +0.000 C 
ATOM     20  C   UNL     1       2.261   6.093  19.254  0.00  0.00    +0.000 C 
ATOM     21  C   UNL     1       2.503   4.774  18.510  0.00  0.00    +0.000 C 
ATOM     22  N   UNL     1       3.781   4.984  17.841  0.00  0.00    +0.000 NA
ATOM     23  C   UNL     1       4.057   4.074  16.729  0.00  0.00    +0.000 C 
ATOM     24  C   UNL     1       5.414   4.415  16.089  0.00  0.00    +0.000 C 
ATOM     25  C   UNL     1       5.582   5.912  15.791  0.00  0.00    +0.000 C 
ATOM     26  C   UNL     1       5.169   6.768  16.992  0.00  0.00    +0.000 C 
ATOM     27  C   UNL     1       3.749   6.376  17.379  0.00  0.00    +0.000 C 
ENDBRANCH   4  19
TORSDOF 2
ENDMDL
MODEL 3
REMARK VINA RESULT:      -7.3      3.101      8.169
REMARK  Name = 
REMARK  3 active torsions:
REMARK  status: ('A' for Active; 'I' for Inactive)
REMARK    1  A    between atoms: C_1  and  C_2
REMARK    2  A    between atoms: C_12  and  N_13
REMARK    3  A    between atoms: N_16  and  C_17
REMARK                            x       y       z     vdW  Elec       q    Type
REMARK                         _______ _______ _______ _____ _____    ______ ____
ROOT
ATOM      1  N   UNL     1       1.767   9.163  19.849  0.00  0.00    +0.000 N 
ATOM      2  C   UNL     1       1.843   8.434  18.672  0.00  0.00    +0.000 C 
ATOM      3  O   UNL     1       1.137   8.585  17.687  0.00  0.00    +0.000 OA
ATOM      4  N   UNL     1       2.834   7.474  18.743  0.00  0.00    +0.000 N 
ATOM      5  H   UNL     1       2.649   9.253  20.324  0.00  0.00    +0.000 HD
ATOM      6  H   UNL     1       3.512   7.547  19.484  0.00  0.00    +0.000 HD
ENDROOT
BRANCH   1  18
ATOM      7  C   UNL     1      -0.518   8.769  21.707  0.00  0.00    +0.000 C 
ATOM      8  C   UNL     1      -0.272  10.036  20.930  0.00  0.00    +0.000 A 
ATOM      9  C   UNL     1      -1.148  11.105  21.147  0.00  0.00    +0.000 A 
ATOM     10  C   UNL     1      -0.916  12.354  20.581  0.00  0.00    +0.000 A 
ATOM     11 CL   UNL     1      -2.069  13.599  20.960  0.00  0.00    +0.000 Cl
ATOM     12  C   UNL     1       0.206  12.591  19.761  0.00  0.00    +0.000 A 
ATOM     13  C   UNL     1       0.483  13.861  19.199  0.00  0.00    +0.000 A 
ATOM     14  C   UNL     1       1.583  14.082  18.375  0.00  0.00    +0.000 A 
ATOM     15  C   UNL     1       2.429  13.031  18.077  0.00  0.00    +0.000 A 
ATOM     16  C   UNL     1       2.182  11.768  18.617  0.00  0.00    +0.000 A 
ATOM     17  C   UNL     1       1.094  11.507  19.491  0.00  0.00    +0.000 A 
ATOM     18  C   UNL     1       0.834  10.220  20.069  0.00  0.00    +0.000 A 
ENDBRANCH   1  18
BRANCH   4  19
ATOM     19  C   UNL     1       3.121   6.538  17.650  0.00  0.00    +0.000 C 
ATOM     20  C   UNL     1       4.612   6.528  17.265  0.00  0.00    +0.000 C 
ATOM     21  C   UNL     1       5.090   5.082  17.434  0.00  0.00    +0.000 C 
ATOM     22  N   UNL     1       3.864   4.299  17.356  0.00  0.00    +0.000 NA
ATOM     23  C   UNL     1       3.953   2.946  17.904  0.00  0.00    +0.000 C 
ATOM     24  C   UNL     1       2.592   2.237  17.792  0.00  0.00    +0.000 C 
ATOM     25  C   UNL     1       1.422   3.091  18.300  0.00  0.00    +0.000 C 
ATOM     26  C   UNL     1       1.488   4.515  17.738  0.00  0.00    +0.000 C 
ATOM     27  C   UNL     1       2.858   5.088  18.078  0.00  0.00    +0.000 C 
ENDBRANCH   4  19
TORSDOF 2
ENDMDL
MODEL 4
REMARK VINA RESULT:      -7.3      0.636      2.799
REMARK  Name = 
REMARK  3 active torsions:
REMARK  status: ('A' for Active; 'I' for Inactive)
REMARK    1  A    between atoms: C_1  and  C_2
REMARK    2  A    between atoms: C_12  and  N_13
REMARK    3  A    between atoms: N_16  and  C_17
REMARK                            x       y       z     vdW  Elec       q    Type
REMARK                         _______ _______ _______ _____ _____    ______ ____
ROOT
ATOM      1  N   UNL     1       2.765   7.331  19.071  0.00  0.00    +0.000 N 
ATOM      2  C   UNL     1       1.894   8.198  18.431  0.00  0.00    +0.000 C 
ATOM      3  O   UNL     1       1.286   7.971  17.396  0.00  0.00    +0.000 OA
ATOM      4  N   UNL     1       1.796   9.397  19.110  0.00  0.00    +0.000 N 
ATOM      5  H   UNL     1       2.793   7.453  20.069  0.00  0.00    +0.000 HD
ATOM      6  H   UNL     1       2.145   9.437  20.053  0.00  0.00    +0.000 HD
ENDROOT
BRANCH   1  18
ATOM      7  C   UNL     1       4.734   6.956  16.878  0.00  0.00    +0.000 C 
ATOM      8  C   UNL     1       3.984   5.830  17.538  0.00  0.00    +0.000 A 
ATOM      9  C   UNL     1       4.282   4.527  17.123  0.00  0.00    +0.000 A 
ATOM     10  C   UNL     1       3.743   3.421  17.772  0.00  0.00    +0.000 A 
ATOM     11 CL   UNL     1       4.223   1.863  17.170  0.00  0.00    +0.000 Cl
ATOM     12  C   UNL     1       2.869   3.569  18.869  0.00  0.00    +0.000 A 
ATOM     13  C   UNL     1       2.332   2.462  19.568  0.00  0.00    +0.000 A 
ATOM     14  C   UNL     1       1.454   2.615  20.639  0.00  0.00    +0.000 A 
ATOM     15  C   UNL     1       1.078   3.886  21.029  0.00  0.00    +0.000 A 
ATOM     16  C   UNL     1       1.592   4.998  20.359  0.00  0.00    +0.000 A 
ATOM     17  C   UNL     1       2.517   4.887  19.288  0.00  0.00    +0.000 A 
ATOM     18  C   UNL     1       3.069   6.019  18.599  0.00  0.00    +0.000 A 
ENDBRANCH   1  18
BRANCH   4  19
ATOM     19  C   UNL     1       0.965  10.514  18.646  0.00  0.00    +0.000 C 
ATOM     20  C   UNL     1      -0.447  10.487  19.260  0.00  0.00    +0.000 C 
ATOM     21  C   UNL     1      -0.625  11.826  19.986  0.00  0.00    +0.000 C 
ATOM     22  N   UNL     1       0.348  12.700  19.345  0.00  0.00    +0.000 NA
ATOM     23  C   UNL     1       0.702  13.900  20.103  0.00  0.00    +0.000 C 
ATOM     24  C   UNL     1       1.755  14.721  19.339  0.00  0.00    +0.000 C 
ATOM     25  C   UNL     1       2.932  13.873  18.835  0.00  0.00    +0.000 C 
ATOM     26  C   UNL     1       2.442  12.595  18.145  0.00  0.00    +0.000 C 
ATOM     27  C   UNL     1       1.529  11.860  19.118  0.00  0.00    +0.000 C 
ENDBRANCH   4  19
TORSDOF 2
ENDMDL
MODEL 5
REMARK VINA RESULT:      -7.2      1.237      2.678
REMARK  Name = 
REMARK  3 active torsions:
REMARK  status: ('A' for Active; 'I' for Inactive)
REMARK    1  A    between atoms: C_1  and  C_2
REMARK    2  A    between atoms: C_12  and  N_13
REMARK    3  A    between atoms: N_16  and  C_17
REMARK                            x       y       z     vdW  Elec       q    Type
REMARK                         _______ _______ _______ _____ _____    ______ ____
ROOT
ATOM      1  N   UNL     1       2.750   7.183  19.074  0.00  0.00    +0.000 N 
ATOM      2  C   UNL     1       1.927   8.209  18.635  0.00  0.00    +0.000 C 
ATOM      3  O   UNL     1       1.638   8.450  17.473  0.00  0.00    +0.000 OA
ATOM      4  N   UNL     1       1.463   8.963  19.695  0.00  0.00    +0.000 N 
ATOM      5  H   UNL     1       2.512   6.840  19.988  0.00  0.00    +0.000 HD
ATOM      6  H   UNL     1       1.558   8.585  20.623  0.00  0.00    +0.000 HD
ENDROOT
BRANCH   1  18
ATOM      7  C   UNL     1       5.192   7.952  17.566  0.00  0.00    +0.000 C 
ATOM      8  C   UNL     1       4.526   6.605  17.461  0.00  0.00    +0.000 A 
ATOM      9  C   UNL     1       5.135   5.648  16.644  0.00  0.00    +0.000 A 
ATOM     10  C   UNL     1       4.670   4.338  16.596  0.00  0.00    +0.000 A 
ATOM     11 CL   UNL     1       5.541   3.247  15.560  0.00  0.00    +0.000 Cl
ATOM     12  C   UNL     1       3.562   3.924  17.364  0.00  0.00    +0.000 A 
ATOM     13  C   UNL     1       3.088   2.591  17.359  0.00  0.00    +0.000 A 
ATOM     14  C   UNL     1       1.981   2.195  18.106  0.00  0.00    +0.000 A 
ATOM     15  C   UNL     1       1.308   3.130  18.868  0.00  0.00    +0.000 A 
ATOM     16  C   UNL     1       1.752   4.453  18.893  0.00  0.00    +0.000 A 
ATOM     17  C   UNL     1       2.897   4.891  18.176  0.00  0.00    +0.000 A 
ATOM     18  C   UNL     1       3.379   6.243  18.204  0.00  0.00    +0.000 A 
ENDBRANCH   1  18
BRANCH   4  19
ATOM     19  C   UNL     1       0.592  10.132  19.525  0.00  0.00    +0.000 C 
ATOM     20  C   UNL     1      -0.441  10.263  20.659  0.00  0.00    +0.000 C 
ATOM     21  C   UNL     1      -0.215  11.641  21.290  0.00  0.00    +0.000 C 
ATOM     22  N   UNL     1       0.467  12.394  20.245  0.00  0.00    +0.000 NA
ATOM     23  C   UNL     1       1.181  13.585  20.702  0.00  0.00    +0.000 C 
ATOM     24  C   UNL     1       1.881  14.272  19.516  0.00  0.00    +0.000 C 
ATOM     25  C   UNL     1       2.687  13.298  18.644  0.00  0.00    +0.000 C 
ATOM     26  C   UNL     1       1.872  12.044  18.312  0.00  0.00    +0.000 C 
ATOM     27  C   UNL     1       1.391  11.438  19.624  0.00  0.00    +0.000 C 
ENDBRANCH   4  19
TORSDOF 2
ENDMDL
MODEL 6
REMARK VINA RESULT:      -7.1      1.914      2.435
REMARK  Name = 
REMARK  3 active torsions:
REMARK  status: ('A' for Active; 'I' for Inactive)
REMARK    1  A    between atoms: C_1  and  C_2
REMARK    2  A    between atoms: C_12  and  N_13
REMARK    3  A    between atoms: N_16  and  C_17
REMARK                            x       y       z     vdW  Elec       q    Type
REMARK                         _______ _______ _______ _____ _____    ______ ____
ROOT
ATOM      1  N   UNL     1       2.819   6.161  20.484  0.00  0.00    +0.000 N 
ATOM      2  C   UNL     1       1.514   6.627  20.523  0.00  0.00    +0.000 C 
ATOM      3  O   UNL     1       0.537   6.066  20.053  0.00  0.00    +0.000 OA
ATOM      4  N   UNL     1       1.441   7.847  21.166  0.00  0.00    +0.000 N 
ATOM      5  H   UNL     1       3.375   6.453  21.269  0.00  0.00    +0.000 HD
ATOM      6  H   UNL     1       2.232   8.143  21.713  0.00  0.00    +0.000 HD
ENDROOT
BRANCH   1  18
ATOM      7  C   UNL     1       2.076   3.581  21.758  0.00  0.00    +0.000 C 
ATOM      8  C   UNL     1       2.879   3.694  20.489  0.00  0.00    +0.000 A 
ATOM      9  C   UNL     1       3.243   2.504  19.850  0.00  0.00    +0.000 A 
ATOM     10  C   UNL     1       3.862   2.513  18.604  0.00  0.00    +0.000 A 
ATOM     11 CL   UNL     1       4.231   0.961  17.914  0.00  0.00    +0.000 Cl
ATOM     12  C   UNL     1       4.153   3.722  17.939  0.00  0.00    +0.000 A 
ATOM     13  C   UNL     1       4.752   3.761  16.657  0.00  0.00    +0.000 A 
ATOM     14  C   UNL     1       5.054   4.959  16.015  0.00  0.00    +0.000 A 
ATOM     15  C   UNL     1       4.777   6.155  16.648  0.00  0.00    +0.000 A 
ATOM     16  C   UNL     1       4.185   6.149  17.913  0.00  0.00    +0.000 A 
ATOM     17  C   UNL     1       3.828   4.952  18.587  0.00  0.00    +0.000 A 
ATOM     18  C   UNL     1       3.203   4.927  19.879  0.00  0.00    +0.000 A 
ENDBRANCH   1  18
BRANCH   4  19
ATOM     19  C   UNL     1       0.186   8.590  21.332  0.00  0.00    +0.000 C 
ATOM     20  C   UNL     1      -0.109   8.921  22.806  0.00  0.00    +0.000 C 
ATOM     21  C   UNL     1      -0.236  10.447  22.888  0.00  0.00    +0.000 C 
ATOM     22  N   UNL     1      -0.554  10.841  21.521  0.00  0.00    +0.000 NA
ATOM     23  C   UNL     1      -0.313  12.249  21.209  0.00  0.00    +0.000 C 
ATOM     24  C   UNL     1      -0.656  12.532  19.736  0.00  0.00    +0.000 C 
ATOM     25  C   UNL     1      -0.038  11.515  18.766  0.00  0.00    +0.000 C 
ATOM     26  C   UNL     1      -0.267  10.078  19.247  0.00  0.00    +0.000 C 
ATOM     27  C   UNL     1       0.267   9.972  20.670  0.00  0.00    +0.000 C 
ENDBRANCH   4  19
TORSDOF 2
ENDMDL
MODEL 7
REMARK VINA RESULT:      -7.1      3.175      8.192
REMARK  Name = 
REMARK  3 active torsions:
REMARK  status: ('A' for Active; 'I' for Inactive)
REMARK    1  A    between atoms: C_1  and  C_2
REMARK    2  A    between atoms: C_12  and  N_13
REMARK    3  A    between atoms: N_16  and  C_17
REMARK                            x       y       z     vdW  Elec       q    Type
REMARK                         _______ _______ _______ _____ _____    ______ ____
ROOT
ATOM      1  N   UNL     1       1.143  10.121  17.801  0.00  0.00    +0.000 N 
ATOM      2  C   UNL     1       1.671   9.102  18.579  0.00  0.00    +0.000 C 
ATOM      3  O   UNL     1       1.628   9.033  19.798  0.00  0.00    +0.000 OA
ATOM      4  N   UNL     1       2.285   8.144  17.796  0.00  0.00    +0.000 N 
ATOM      5  H   UNL     1       0.845   9.818  16.890  0.00  0.00    +0.000 HD
ATOM      6  H   UNL     1       2.096   8.148  16.807  0.00  0.00    +0.000 HD
ENDROOT
BRANCH   1  18
ATOM      7  C   UNL     1      -1.704   9.884  18.615  0.00  0.00    +0.000 C 
ATOM      8  C   UNL     1      -0.907  11.159  18.700  0.00  0.00    +0.000 A 
ATOM      9  C   UNL     1      -1.540  12.279  19.250  0.00  0.00    +0.000 A 
ATOM     10  C   UNL     1      -0.840  13.455  19.496  0.00  0.00    +0.000 A 
ATOM     11 CL   UNL     1      -1.744  14.756  20.211  0.00  0.00    +0.000 Cl
ATOM     12  C   UNL     1       0.533  13.568  19.195  0.00  0.00    +0.000 A 
ATOM     13  C   UNL     1       1.277  14.742  19.465  0.00  0.00    +0.000 A 
ATOM     14  C   UNL     1       2.628  14.853  19.147  0.00  0.00    +0.000 A 
ATOM     15  C   UNL     1       3.269  13.794  18.534  0.00  0.00    +0.000 A 
ATOM     16  C   UNL     1       2.562  12.623  18.256  0.00  0.00    +0.000 A 
ATOM     17  C   UNL     1       1.194  12.454  18.596  0.00  0.00    +0.000 A 
ATOM     18  C   UNL     1       0.455  11.252  18.334  0.00  0.00    +0.000 A 
ENDBRANCH   1  18
BRANCH   4  19
ATOM     19  C   UNL     1       2.953   6.963  18.353  0.00  0.00    +0.000 C 
ATOM     20  C   UNL     1       1.966   5.823  18.664  0.00  0.00    +0.000 C 
ATOM     21  C   UNL     1       2.444   4.608  17.860  0.00  0.00    +0.000 C 
ATOM     22  N   UNL     1       3.851   4.892  17.608  0.00  0.00    +0.000 NA
ATOM     23  C   UNL     1       4.452   4.130  16.514  0.00  0.00    +0.000 C 
ATOM     24  C   UNL     1       5.924   4.539  16.328  0.00  0.00    +0.000 C 
ATOM     25  C   UNL     1       6.125   6.061  16.276  0.00  0.00    +0.000 C 
ATOM     26  C   UNL     1       5.369   6.760  17.410  0.00  0.00    +0.000 C 
ATOM     27  C   UNL     1       3.909   6.332  17.332  0.00  0.00    +0.000 C 
ENDBRANCH   4  19
TORSDOF 2
ENDMDL
MODEL 8
REMARK VINA RESULT:      -7.0      3.516      8.552
REMARK  Name = 
REMARK  3 active torsions:
REMARK  status: ('A' for Active; 'I' for Inactive)
REMARK    1  A    between atoms: C_1  and  C_2
REMARK    2  A    between atoms: C_12  and  N_13
REMARK    3  A    between atoms: N_16  and  C_17
REMARK                            x       y       z     vdW  Elec       q    Type
REMARK                         _______ _______ _______ _____ _____    ______ ____
ROOT
ATOM      1  N   UNL     1       1.200  10.140  21.094  0.00  0.00    +0.000 N 
ATOM      2  C   UNL     1       1.042   9.226  20.064  0.00  0.00    +0.000 C 
ATOM      3  O   UNL     1       0.240   9.310  19.146  0.00  0.00    +0.000 OA
ATOM      4  N   UNL     1       1.915   8.164  20.200  0.00  0.00    +0.000 N 
ATOM      5  H   UNL     1       2.139  10.185  21.451  0.00  0.00    +0.000 HD
ATOM      6  H   UNL     1       2.685   8.264  20.841  0.00  0.00    +0.000 HD
ENDROOT
BRANCH   1  18
ATOM      7  C   UNL     1      -0.918  10.339  23.168  0.00  0.00    +0.000 C 
ATOM      8  C   UNL     1      -0.596  11.433  22.184  0.00  0.00    +0.000 A 
ATOM      9  C   UNL     1      -1.307  12.632  22.300  0.00  0.00    +0.000 A 
ATOM     10  C   UNL     1      -0.981  13.742  21.528  0.00  0.00    +0.000 A 
ATOM     11 CL   UNL     1      -1.928  15.175  21.798  0.00  0.00    +0.000 Cl
ATOM     12  C   UNL     1       0.074  13.701  20.593  0.00  0.00    +0.000 A 
ATOM     13  C   UNL     1       0.448  14.824  19.818  0.00  0.00    +0.000 A 
ATOM     14  C   UNL     1       1.478  14.770  18.883  0.00  0.00    +0.000 A 
ATOM     15  C   UNL     1       2.154  13.581  18.687  0.00  0.00    +0.000 A 
ATOM     16  C   UNL     1       1.808  12.456  19.437  0.00  0.00    +0.000 A 
ATOM     17  C   UNL     1       0.789  12.477  20.426  0.00  0.00    +0.000 A 
ATOM     18  C   UNL     1       0.432  11.335  21.219  0.00  0.00    +0.000 A 
ENDBRANCH   1  18
BRANCH   4  19
ATOM     19  C   UNL     1       1.952   7.033  19.266  0.00  0.00    +0.000 C 
ATOM     20  C   UNL     1       2.952   7.255  18.117  0.00  0.00    +0.000 C 
ATOM     21  C   UNL     1       3.941   6.084  18.176  0.00  0.00    +0.000 C 
ATOM     22  N   UNL     1       3.212   5.051  18.901  0.00  0.00    +0.000 NA
ATOM     23  C   UNL     1       4.041   3.992  19.475  0.00  0.00    +0.000 C 
ATOM     24  C   UNL     1       3.163   2.984  20.237  0.00  0.00    +0.000 C 
ATOM     25  C   UNL     1       2.170   3.655  21.197  0.00  0.00    +0.000 C 
ATOM     26  C   UNL     1       1.432   4.812  20.515  0.00  0.00    +0.000 C 
ATOM     27  C   UNL     1       2.478   5.765  19.952  0.00  0.00    +0.000 C 
ENDBRANCH   4  19
TORSDOF 2
ENDMDL
MODEL 9
REMARK VINA RESULT:      -7.0      1.822      2.630
REMARK  Name = 
REMARK  3 active torsions:
REMARK  status: ('A' for Active; 'I' for Inactive)
REMARK    1  A    between atoms: C_1  and  C_2
REMARK    2  A    between atoms: C_12  and  N_13
REMARK    3  A    between atoms: N_16  and  C_17
REMARK                            x       y       z     vdW  Elec       q    Type
REMARK                         _______ _______ _______ _____ _____    ______ ____
ROOT
ATOM      1  N   UNL     1       1.937   6.486  18.263  0.00  0.00    +0.000 N 
ATOM      2  C   UNL     1       2.196   7.498  19.175  0.00  0.00    +0.000 C 
ATOM      3  O   UNL     1       2.939   7.421  20.141  0.00  0.00    +0.000 OA
ATOM      4  N   UNL     1       1.485   8.641  18.865  0.00  0.00    +0.000 N 
ATOM      5  H   UNL     1       1.723   6.822  17.340  0.00  0.00    +0.000 HD
ATOM      6  H   UNL     1       1.070   8.709  17.950  0.00  0.00    +0.000 HD
ENDROOT
BRANCH   1  18
ATOM      7  C   UNL     1       0.681   4.364  19.920  0.00  0.00    +0.000 C 
ATOM      8  C   UNL     1       1.953   4.178  19.135  0.00  0.00    +0.000 A 
ATOM      9  C   UNL     1       2.539   2.908  19.150  0.00  0.00    +0.000 A 
ATOM     10  C   UNL     1       3.633   2.608  18.345  0.00  0.00    +0.000 A 
ATOM     11 CL   UNL     1       4.240   0.982  18.443  0.00  0.00    +0.000 Cl
ATOM     12  C   UNL     1       4.199   3.573  17.488  0.00  0.00    +0.000 A 
ATOM     13  C   UNL     1       5.292   3.287  16.635  0.00  0.00    +0.000 A 
ATOM     14  C   UNL     1       5.858   4.251  15.805  0.00  0.00    +0.000 A 
ATOM     15  C   UNL     1       5.353   5.537  15.818  0.00  0.00    +0.000 A 
ATOM     16  C   UNL     1       4.275   5.850  16.649  0.00  0.00    +0.000 A 
ATOM     17  C   UNL     1       3.646   4.889  17.483  0.00  0.00    +0.000 A 
ATOM     18  C   UNL     1       2.526   5.188  18.330  0.00  0.00    +0.000 A 
ENDBRANCH   1  18
BRANCH   4  19
ATOM     19  C   UNL     1       1.544   9.864  19.675  0.00  0.00    +0.000 C 
ATOM     20  C   UNL     1       1.241  11.128  18.849  0.00  0.00    +0.000 C 
ATOM     21  C   UNL     1       0.044  11.807  19.526  0.00  0.00    +0.000 C 
ATOM     22  N   UNL     1       0.073  11.285  20.886  0.00  0.00    +0.000 NA
ATOM     23  C   UNL     1      -1.179  11.419  21.630  0.00  0.00    +0.000 C 
ATOM     24  C   UNL     1      -1.031  10.807  23.034  0.00  0.00    +0.000 C 
ATOM     25  C   UNL     1      -0.407   9.404  23.017  0.00  0.00    +0.000 C 
ATOM     26  C   UNL     1       0.840   9.360  22.127  0.00  0.00    +0.000 C 
ATOM     27  C   UNL     1       0.447   9.873  20.748  0.00  0.00    +0.000 C 
ENDBRANCH   4  19
TORSDOF 2
ENDMDL
