MODEL 1
REMARK VINA RESULT:      -7.9      0.000      0.000
REMARK  Name = 
REMARK  6 active torsions:
REMARK  status: ('A' for Active; 'I' for Inactive)
REMARK    1  A    between atoms: N_10  and  C_11
REMARK    2  A    between atoms: N_14  and  C_15
REMARK    3  A    between atoms: C_15  and  C_16
REMARK    4  A    between atoms: C_16  and  C_17
REMARK    5  A    between atoms: C_17  and  O_18
REMARK    6  A    between atoms: O_18  and  C_19
REMARK                            x       y       z     vdW  Elec       q    Type
REMARK                         _______ _______ _______ _____ _____    ______ ____
ROOT
ATOM      1  C   UNL     1       5.339   5.258  18.169  0.00  0.00    +0.000 C 
ATOM      2  C   UNL     1       6.822   4.936  18.043  0.00  0.00    +0.000 C 
ATOM      3  C   UNL     1       7.595   6.253  18.194  0.00  0.00    +0.000 C 
ATOM      4  N   UNL     1       7.181   7.294  17.230  0.00  0.00    +0.000 NA
ATOM      5  C   UNL     1       5.723   7.495  17.182  0.00  0.00    +0.000 C 
ATOM      6  C   UNL     1       4.958   6.187  17.019  0.00  0.00    +0.000 C 
ENDROOT
BRANCH   1  16
ATOM      7  O   UNL     1       4.878   2.888  16.302  0.00  0.00    +0.000 OA
ATOM      8  C   UNL     1       4.196   3.158  17.276  0.00  0.00    +0.000 A 
ATOM      9  N   UNL     1       2.953   2.570  17.583  0.00  0.00    +0.000 N 
ATOM     10  C   UNL     1       2.405   3.212  18.686  0.00  0.00    +0.000 A 
ATOM     11  C   UNL     1       1.164   3.064  19.263  0.00  0.00    +0.000 A 
ATOM     12  C   UNL     1       0.860   3.901  20.343  0.00  0.00    +0.000 A 
ATOM     13  C   UNL     1       1.793   4.846  20.817  0.00  0.00    +0.000 A 
ATOM     14  C   UNL     1       3.039   4.988  20.207  0.00  0.00    +0.000 A 
ATOM     15  C   UNL     1       3.318   4.163  19.131  0.00  0.00    +0.000 A 
ATOM     16  N   UNL     1       4.434   4.131  18.272  0.00  0.00    +0.000 N 
ATOM     17  H   UNL     1       2.512   1.876  17.003  0.00  0.00    +0.000 HD
ENDBRANCH   1  16
BRANCH   4  18
ATOM     18  C   UNL     1       7.839   8.587  17.510  0.00  0.00    +0.000 C 
BRANCH  18  19
ATOM     19  C   UNL     1       8.755   8.577  18.735  0.00  0.00    +0.000 C 
BRANCH  19  20
ATOM     20  C   UNL     1       9.136   9.989  19.152  0.00  0.00    +0.000 C 
BRANCH  20  21
ATOM     21  O   UNL     1       9.654  10.687  18.019  0.00  0.00    +0.000 OA
BRANCH  21  22
ATOM     22  C   UNL     1      10.344  11.836  18.306  0.00  0.00    +0.000 A 
ATOM     23  C   UNL     1      10.989  12.649  17.366  0.00  0.00    +0.000 A 
ATOM     24  C   UNL     1      11.661  13.798  17.777  0.00  0.00    +0.000 A 
ATOM     25  C   UNL     1      11.688  14.130  19.123  0.00  0.00    +0.000 A 
ATOM     26  F   UNL     1      12.333  15.235  19.514  0.00  0.00    +0.000 F 
ATOM     27  C   UNL     1      11.055  13.334  20.071  0.00  0.00    +0.000 A 
ATOM     28  C   UNL     1      10.379  12.184  19.659  0.00  0.00    +0.000 A 
ENDBRANCH  21  22
ENDBRANCH  20  21
ENDBRANCH  19  20
ENDBRANCH  18  19
ENDBRANCH   4  18
TORSDOF 6
ENDMDL
MODEL 2
REMARK VINA RESULT:      -7.8      6.510      9.037
REMARK  Name = 
REMARK  6 active torsions:
REMARK  status: ('A' for Active; 'I' for Inactive)
REMARK    1  A    between atoms: N_10  and  C_11
REMARK    2  A    between atoms: N_14  and  C_15
REMARK    3  A    between atoms: C_15  and  C_16
REMARK    4  A    between atoms: C_16  and  C_17
REMARK    5  A    between atoms: C_17  and  O_18
REMARK    6  A    between atoms: O_18  and  C_19
REMARK                            x       y       z     vdW  Elec       q    Type
REMARK                         _______ _______ _______ _____ _____    ______ ____
ROOT
ATOM      1  C   UNL     1       3.111   6.643  19.249  0.00  0.00    +0.000 C 
ATOM      2  C   UNL     1       2.651   7.054  17.857  0.00  0.00    +0.000 C 
ATOM      3  C   UNL     1       2.333   8.555  17.901  0.00  0.00    +0.000 C 
ATOM      4  N   UNL     1       1.339   8.919  18.932  0.00  0.00    +0.000 NA
ATOM      5  C   UNL     1       1.651   8.367  20.261  0.00  0.00    +0.000 C 
ATOM      6  C   UNL     1       1.953   6.873  20.218  0.00  0.00    +0.000 C 
ENDROOT
BRANCH   1  16
ATOM      7  O   UNL     1       5.999   5.663  19.125  0.00  0.00    +0.000 OA
ATOM      8  C   UNL     1       5.014   4.944  19.167  0.00  0.00    +0.000 A 
ATOM      9  N   UNL     1       5.015   3.554  18.936  0.00  0.00    +0.000 N 
ATOM     10  C   UNL     1       3.706   3.092  18.934  0.00  0.00    +0.000 A 
ATOM     11  C   UNL     1       3.215   1.842  18.630  0.00  0.00    +0.000 A 
ATOM     12  C   UNL     1       1.824   1.681  18.653  0.00  0.00    +0.000 A 
ATOM     13  C   UNL     1       0.972   2.756  18.980  0.00  0.00    +0.000 A 
ATOM     14  C   UNL     1       1.492   4.017  19.269  0.00  0.00    +0.000 A 
ATOM     15  C   UNL     1       2.868   4.163  19.228  0.00  0.00    +0.000 A 
ATOM     16  N   UNL     1       3.668   5.312  19.385  0.00  0.00    +0.000 N 
ATOM     17  H   UNL     1       5.843   3.034  18.699  0.00  0.00    +0.000 HD
ENDBRANCH   1  16
BRANCH   4  18
ATOM     18  C   UNL     1       1.179  10.383  19.041  0.00  0.00    +0.000 C 
BRANCH  18  19
ATOM     19  C   UNL     1       0.160  10.830  20.091  0.00  0.00    +0.000 C 
BRANCH  19  20
ATOM     20  C   UNL     1      -1.262  10.530  19.644  0.00  0.00    +0.000 C 
BRANCH  20  21
ATOM     21  O   UNL     1      -1.728  11.598  18.817  0.00  0.00    +0.000 OA
BRANCH  21  22
ATOM     22  C   UNL     1      -2.449  11.213  17.718  0.00  0.00    +0.000 A 
ATOM     23  C   UNL     1      -3.741  11.652  17.402  0.00  0.00    +0.000 A 
ATOM     24  C   UNL     1      -4.377  11.191  16.251  0.00  0.00    +0.000 A 
ATOM     25  C   UNL     1      -3.723  10.294  15.421  0.00  0.00    +0.000 A 
ATOM     26  F   UNL     1      -4.336   9.855  14.316  0.00  0.00    +0.000 F 
ATOM     27  C   UNL     1      -2.440   9.846  15.718  0.00  0.00    +0.000 A 
ATOM     28  C   UNL     1      -1.802  10.310  16.869  0.00  0.00    +0.000 A 
ENDBRANCH  21  22
ENDBRANCH  20  21
ENDBRANCH  19  20
ENDBRANCH  18  19
ENDBRANCH   4  18
TORSDOF 6
ENDMDL
MODEL 3
REMARK VINA RESULT:      -7.8      6.532      9.874
REMARK  Name = 
REMARK  6 active torsions:
REMARK  status: ('A' for Active; 'I' for Inactive)
REMARK    1  A    between atoms: N_10  and  C_11
REMARK    2  A    between atoms: N_14  and  C_15
REMARK    3  A    between atoms: C_15  and  C_16
REMARK    4  A    between atoms: C_16  and  C_17
REMARK    5  A    between atoms: C_17  and  O_18
REMARK    6  A    between atoms: O_18  and  C_19
REMARK                            x       y       z     vdW  Elec       q    Type
REMARK                         _______ _______ _______ _____ _____    ______ ____
ROOT
ATOM      1  C   UNL     1       1.309   9.688  19.276  0.00  0.00    +0.000 C 
ATOM      2  C   UNL     1       0.945   8.460  20.099  0.00  0.00    +0.000 C 
ATOM      3  C   UNL     1       2.129   7.487  20.023  0.00  0.00    +0.000 C 
ATOM      4  N   UNL     1       2.507   7.123  18.641  0.00  0.00    +0.000 NA
ATOM      5  C   UNL     1       2.674   8.289  17.758  0.00  0.00    +0.000 C 
ATOM      6  C   UNL     1       1.492   9.248  17.826  0.00  0.00    +0.000 C 
ENDROOT
BRANCH   1  16
ATOM      7  O   UNL     1       1.265  12.003  21.265  0.00  0.00    +0.000 OA
ATOM      8  C   UNL     1       0.402  11.774  20.434  0.00  0.00    +0.000 A 
ATOM      9  N   UNL     1      -0.865  12.389  20.392  0.00  0.00    +0.000 N 
ATOM     10  C   UNL     1      -1.629  11.790  19.399  0.00  0.00    +0.000 A 
ATOM     11  C   UNL     1      -2.955  11.973  19.078  0.00  0.00    +0.000 A 
ATOM     12  C   UNL     1      -3.479  11.175  18.054  0.00  0.00    +0.000 A 
ATOM     13  C   UNL     1      -2.674  10.233  17.381  0.00  0.00    +0.000 A 
ATOM     14  C   UNL     1      -1.337  10.055  17.733  0.00  0.00    +0.000 A 
ATOM     15  C   UNL     1      -0.839  10.841  18.758  0.00  0.00    +0.000 A 
ATOM     16  N   UNL     1       0.424  10.830  19.384  0.00  0.00    +0.000 N 
ATOM     17  H   UNL     1      -1.172  13.069  21.067  0.00  0.00    +0.000 HD
ENDBRANCH   1  16
BRANCH   4  18
ATOM     18  C   UNL     1       3.740   6.310  18.610  0.00  0.00    +0.000 C 
BRANCH  18  19
ATOM     19  C   UNL     1       3.879   5.421  17.372  0.00  0.00    +0.000 C 
BRANCH  19  20
ATOM     20  C   UNL     1       4.700   4.177  17.675  0.00  0.00    +0.000 C 
BRANCH  20  21
ATOM     21  O   UNL     1       3.837   3.039  17.684  0.00  0.00    +0.000 OA
BRANCH  21  22
ATOM     22  C   UNL     1       3.007   2.944  18.771  0.00  0.00    +0.000 A 
ATOM     23  C   UNL     1       1.609   3.026  18.733  0.00  0.00    +0.000 A 
ATOM     24  C   UNL     1       0.869   2.913  19.907  0.00  0.00    +0.000 A 
ATOM     25  C   UNL     1       1.524   2.721  21.114  0.00  0.00    +0.000 A 
ATOM     26  F   UNL     1       0.809   2.611  22.239  0.00  0.00    +0.000 F 
ATOM     27  C   UNL     1       2.911   2.639  21.172  0.00  0.00    +0.000 A 
ATOM     28  C   UNL     1       3.653   2.749  19.995  0.00  0.00    +0.000 A 
ENDBRANCH  21  22
ENDBRANCH  20  21
ENDBRANCH  19  20
ENDBRANCH  18  19
ENDBRANCH   4  18
TORSDOF 6
ENDMDL
MODEL 4
REMARK VINA RESULT:      -7.7      1.077      1.279
REMARK  Name = 
REMARK  6 active torsions:
REMARK  status: ('A' for Active; 'I' for Inactive)
REMARK    1  A    between atoms: N_10  and  C_11
REMARK    2  A    between atoms: N_14  and  C_15
REMARK    3  A    between atoms: C_15  and  C_16
REMARK    4  A    between atoms: C_16  and  C_17
REMARK    5  A    between atoms: C_17  and  O_18
REMARK    6  A    between atoms: O_18  and  C_19
REMARK                            x       y       z     vdW  Elec       q    Type
REMARK                         _______ _______ _______ _____ _____    ______ ____
ROOT
ATOM      1  C   UNL     1       5.544   5.356  18.309  0.00  0.00    +0.000 C 
ATOM      2  C   UNL     1       6.960   4.808  18.423  0.00  0.00    +0.000 C 
ATOM      3  C   UNL     1       7.864   5.959  18.886  0.00  0.00    +0.000 C 
ATOM      4  N   UNL     1       7.808   7.145  18.005  0.00  0.00    +0.000 NA
ATOM      5  C   UNL     1       6.435   7.586  17.710  0.00  0.00    +0.000 C 
ATOM      6  C   UNL     1       5.542   6.444  17.238  0.00  0.00    +0.000 C 
ENDROOT
BRANCH   1  16
ATOM      7  O   UNL     1       4.748   3.789  15.814  0.00  0.00    +0.000 OA
ATOM      8  C   UNL     1       4.111   3.824  16.854  0.00  0.00    +0.000 A 
ATOM      9  N   UNL     1       2.797   3.344  17.017  0.00  0.00    +0.000 N 
ATOM     10  C   UNL     1       2.347   3.670  18.289  0.00  0.00    +0.000 A 
ATOM     11  C   UNL     1       1.097   3.517  18.846  0.00  0.00    +0.000 A 
ATOM     12  C   UNL     1       0.916   4.000  20.148  0.00  0.00    +0.000 A 
ATOM     13  C   UNL     1       1.975   4.609  20.852  0.00  0.00    +0.000 A 
ATOM     14  C   UNL     1       3.228   4.768  20.261  0.00  0.00    +0.000 A 
ATOM     15  C   UNL     1       3.386   4.297  18.969  0.00  0.00    +0.000 A 
ATOM     16  N   UNL     1       4.487   4.389  18.094  0.00  0.00    +0.000 N 
ATOM     17  H   UNL     1       2.261   2.938  16.268  0.00  0.00    +0.000 HD
ENDBRANCH   1  16
BRANCH   4  18
ATOM     18  C   UNL     1       8.571   8.278  18.568  0.00  0.00    +0.000 C 
BRANCH  18  19
ATOM     19  C   UNL     1       8.266   9.629  17.918  0.00  0.00    +0.000 C 
BRANCH  19  20
ATOM     20  C   UNL     1       9.087  10.743  18.549  0.00  0.00    +0.000 C 
BRANCH  20  21
ATOM     21  O   UNL     1      10.164  11.082  17.674  0.00  0.00    +0.000 OA
BRANCH  21  22
ATOM     22  C   UNL     1      10.506  12.408  17.655  0.00  0.00    +0.000 A 
ATOM     23  C   UNL     1       9.618  13.477  17.829  0.00  0.00    +0.000 A 
ATOM     24  C   UNL     1      10.084  14.789  17.791  0.00  0.00    +0.000 A 
ATOM     25  C   UNL     1      11.433  15.031  17.578  0.00  0.00    +0.000 A 
ATOM     26  F   UNL     1      11.877  16.292  17.544  0.00  0.00    +0.000 F 
ATOM     27  C   UNL     1      12.330  13.983  17.401  0.00  0.00    +0.000 A 
ATOM     28  C   UNL     1      11.863  12.668  17.443  0.00  0.00    +0.000 A 
ENDBRANCH  21  22
ENDBRANCH  20  21
ENDBRANCH  19  20
ENDBRANCH  18  19
ENDBRANCH   4  18
TORSDOF 6
ENDMDL
MODEL 5
REMARK VINA RESULT:      -7.6      6.632     10.222
REMARK  Name = 
REMARK  6 active torsions:
REMARK  status: ('A' for Active; 'I' for Inactive)
REMARK    1  A    between atoms: N_10  and  C_11
REMARK    2  A    between atoms: N_14  and  C_15
REMARK    3  A    between atoms: C_15  and  C_16
REMARK    4  A    between atoms: C_16  and  C_17
REMARK    5  A    between atoms: C_17  and  O_18
REMARK    6  A    between atoms: O_18  and  C_19
REMARK                            x       y       z     vdW  Elec       q    Type
REMARK                         _______ _______ _______ _____ _____    ______ ____
ROOT
ATOM      1  C   UNL     1       1.086  10.080  19.259  0.00  0.00    +0.000 C 
ATOM      2  C   UNL     1       0.746   8.932  20.200  0.00  0.00    +0.000 C 
ATOM      3  C   UNL     1       1.921   7.944  20.165  0.00  0.00    +0.000 C 
ATOM      4  N   UNL     1       2.242   7.457  18.807  0.00  0.00    +0.000 NA
ATOM      5  C   UNL     1       2.382   8.540  17.818  0.00  0.00    +0.000 C 
ATOM      6  C   UNL     1       1.209   9.513  17.847  0.00  0.00    +0.000 C 
ENDROOT
BRANCH   1  16
ATOM      7  O   UNL     1      -1.881  10.365  18.600  0.00  0.00    +0.000 OA
ATOM      8  C   UNL     1      -1.121  11.290  18.834  0.00  0.00    +0.000 A 
ATOM      9  N   UNL     1      -1.413  12.652  18.621  0.00  0.00    +0.000 N 
ATOM     10  C   UNL     1      -0.274  13.406  18.870  0.00  0.00    +0.000 A 
ATOM     11  C   UNL     1      -0.049  14.751  18.678  0.00  0.00    +0.000 A 
ATOM     12  C   UNL     1       1.235  15.230  18.964  0.00  0.00    +0.000 A 
ATOM     13  C   UNL     1       2.245  14.367  19.436  0.00  0.00    +0.000 A 
ATOM     14  C   UNL     1       1.999  13.006  19.609  0.00  0.00    +0.000 A 
ATOM     15  C   UNL     1       0.728  12.546  19.308  0.00  0.00    +0.000 A 
ATOM     16  N   UNL     1       0.212  11.235  19.299  0.00  0.00    +0.000 N 
ATOM     17  H   UNL     1      -2.284  12.977  18.237  0.00  0.00    +0.000 HD
ENDBRANCH   1  16
BRANCH   4  18
ATOM     18  C   UNL     1       3.468   6.633  18.800  0.00  0.00    +0.000 C 
BRANCH  18  19
ATOM     19  C   UNL     1       3.673   5.817  17.522  0.00  0.00    +0.000 C 
BRANCH  19  20
ATOM     20  C   UNL     1       4.518   4.580  17.786  0.00  0.00    +0.000 C 
BRANCH  20  21
ATOM     21  O   UNL     1       3.685   3.422  17.711  0.00  0.00    +0.000 OA
BRANCH  21  22
ATOM     22  C   UNL     1       2.891   3.202  18.806  0.00  0.00    +0.000 A 
ATOM     23  C   UNL     1       1.491   3.238  18.811  0.00  0.00    +0.000 A 
ATOM     24  C   UNL     1       0.788   2.996  19.989  0.00  0.00    +0.000 A 
ATOM     25  C   UNL     1       1.483   2.721  21.157  0.00  0.00    +0.000 A 
ATOM     26  F   UNL     1       0.805   2.487  22.286  0.00  0.00    +0.000 F 
ATOM     27  C   UNL     1       2.873   2.682  21.172  0.00  0.00    +0.000 A 
ATOM     28  C   UNL     1       3.578   2.922  19.991  0.00  0.00    +0.000 A 
ENDBRANCH  21  22
ENDBRANCH  20  21
ENDBRANCH  19  20
ENDBRANCH  18  19
ENDBRANCH   4  18
TORSDOF 6
ENDMDL
MODEL 6
REMARK VINA RESULT:      -7.6      5.903      8.724
REMARK  Name = 
REMARK  6 active torsions:
REMARK  status: ('A' for Active; 'I' for Inactive)
REMARK    1  A    between atoms: N_10  and  C_11
REMARK    2  A    between atoms: N_14  and  C_15
REMARK    3  A    between atoms: C_15  and  C_16
REMARK    4  A    between atoms: C_16  and  C_17
REMARK    5  A    between atoms: C_17  and  O_18
REMARK    6  A    between atoms: O_18  and  C_19
REMARK                            x       y       z     vdW  Elec       q    Type
REMARK                         _______ _______ _______ _____ _____    ______ ____
ROOT
ATOM      1  C   UNL     1       0.851   9.154  19.213  0.00  0.00    +0.000 C 
ATOM      2  C   UNL     1       2.053   9.083  18.281  0.00  0.00    +0.000 C 
ATOM      3  C   UNL     1       2.470   7.609  18.180  0.00  0.00    +0.000 C 
ATOM      4  N   UNL     1       2.759   6.986  19.488  0.00  0.00    +0.000 NA
ATOM      5  C   UNL     1       1.697   7.206  20.484  0.00  0.00    +0.000 C 
ATOM      6  C   UNL     1       1.292   8.672  20.593  0.00  0.00    +0.000 C 
ENDROOT
BRANCH   1  16
ATOM      7  O   UNL     1       1.174  11.502  21.137  0.00  0.00    +0.000 OA
ATOM      8  C   UNL     1       0.285  11.389  20.309  0.00  0.00    +0.000 A 
ATOM      9  N   UNL     1      -0.868  12.195  20.245  0.00  0.00    +0.000 N 
ATOM     10  C   UNL     1      -1.718  11.697  19.266  0.00  0.00    +0.000 A 
ATOM     11  C   UNL     1      -2.998  12.078  18.935  0.00  0.00    +0.000 A 
ATOM     12  C   UNL     1      -3.643  11.345  17.932  0.00  0.00    +0.000 A 
ATOM     13  C   UNL     1      -2.997  10.269  17.288  0.00  0.00    +0.000 A 
ATOM     14  C   UNL     1      -1.705   9.891  17.651  0.00  0.00    +0.000 A 
ATOM     15  C   UNL     1      -1.088  10.618  18.654  0.00  0.00    +0.000 A 
ATOM     16  N   UNL     1       0.157  10.424  19.285  0.00  0.00    +0.000 N 
ATOM     17  H   UNL     1      -1.063  12.934  20.899  0.00  0.00    +0.000 HD
ENDBRANCH   1  16
BRANCH   4  18
ATOM     18  C   UNL     1       3.006   5.535  19.357  0.00  0.00    +0.000 C 
BRANCH  18  19
ATOM     19  C   UNL     1       2.219   4.860  18.232  0.00  0.00    +0.000 C 
BRANCH  19  20
ATOM     20  C   UNL     1       3.060   3.813  17.520  0.00  0.00    +0.000 C 
BRANCH  20  21
ATOM     21  O   UNL     1       4.418   3.934  17.948  0.00  0.00    +0.000 OA
BRANCH  21  22
ATOM     22  C   UNL     1       5.315   4.255  16.963  0.00  0.00    +0.000 A 
ATOM     23  C   UNL     1       6.672   4.537  17.163  0.00  0.00    +0.000 A 
ATOM     24  C   UNL     1       7.490   4.850  16.080  0.00  0.00    +0.000 A 
ATOM     25  C   UNL     1       6.952   4.882  14.802  0.00  0.00    +0.000 A 
ATOM     26  F   UNL     1       7.741   5.181  13.765  0.00  0.00    +0.000 F 
ATOM     27  C   UNL     1       5.606   4.606  14.584  0.00  0.00    +0.000 A 
ATOM     28  C   UNL     1       4.787   4.289  15.669  0.00  0.00    +0.000 A 
ENDBRANCH  21  22
ENDBRANCH  20  21
ENDBRANCH  19  20
ENDBRANCH  18  19
ENDBRANCH   4  18
TORSDOF 6
ENDMDL
MODEL 7
REMARK VINA RESULT:      -7.6      6.570      8.968
REMARK  Name = 
REMARK  6 active torsions:
REMARK  status: ('A' for Active; 'I' for Inactive)
REMARK    1  A    between atoms: N_10  and  C_11
REMARK    2  A    between atoms: N_14  and  C_15
REMARK    3  A    between atoms: C_15  and  C_16
REMARK    4  A    between atoms: C_16  and  C_17
REMARK    5  A    between atoms: C_17  and  O_18
REMARK    6  A    between atoms: O_18  and  C_19
REMARK                            x       y       z     vdW  Elec       q    Type
REMARK                         _______ _______ _______ _____ _____    ______ ____
ROOT
ATOM      1  C   UNL     1       3.230   6.556  19.277  0.00  0.00    +0.000 C 
ATOM      2  C   UNL     1       2.849   6.978  17.864  0.00  0.00    +0.000 C 
ATOM      3  C   UNL     1       2.516   8.476  17.905  0.00  0.00    +0.000 C 
ATOM      4  N   UNL     1       1.459   8.819  18.880  0.00  0.00    +0.000 NA
ATOM      5  C   UNL     1       1.697   8.255  20.219  0.00  0.00    +0.000 C 
ATOM      6  C   UNL     1       2.015   6.765  20.177  0.00  0.00    +0.000 C 
ENDROOT
BRANCH   1  16
ATOM      7  O   UNL     1       6.130   5.611  19.388  0.00  0.00    +0.000 OA
ATOM      8  C   UNL     1       5.155   4.880  19.325  0.00  0.00    +0.000 A 
ATOM      9  N   UNL     1       5.195   3.497  19.064  0.00  0.00    +0.000 N 
ATOM     10  C   UNL     1       3.897   3.020  18.934  0.00  0.00    +0.000 A 
ATOM     11  C   UNL     1       3.452   1.772  18.559  0.00  0.00    +0.000 A 
ATOM     12  C   UNL     1       2.067   1.596  18.454  0.00  0.00    +0.000 A 
ATOM     13  C   UNL     1       1.175   2.652  18.729  0.00  0.00    +0.000 A 
ATOM     14  C   UNL     1       1.650   3.912  19.092  0.00  0.00    +0.000 A 
ATOM     15  C   UNL     1       3.022   4.074  19.177  0.00  0.00    +0.000 A 
ATOM     16  N   UNL     1       3.790   5.228  19.431  0.00  0.00    +0.000 N 
ATOM     17  H   UNL     1       6.048   2.992  18.890  0.00  0.00    +0.000 HD
ENDBRANCH   1  16
BRANCH   4  18
ATOM     18  C   UNL     1       1.279  10.281  18.995  0.00  0.00    +0.000 C 
BRANCH  18  19
ATOM     19  C   UNL     1       0.610  10.734  20.294  0.00  0.00    +0.000 C 
BRANCH  19  20
ATOM     20  C   UNL     1      -0.232  11.982  20.077  0.00  0.00    +0.000 C 
BRANCH  20  21
ATOM     21  O   UNL     1      -0.628  12.044  18.706  0.00  0.00    +0.000 OA
BRANCH  21  22
ATOM     22  C   UNL     1      -1.962  11.829  18.473  0.00  0.00    +0.000 A 
ATOM     23  C   UNL     1      -3.005  12.209  19.327  0.00  0.00    +0.000 A 
ATOM     24  C   UNL     1      -4.327  11.937  18.982  0.00  0.00    +0.000 A 
ATOM     25  C   UNL     1      -4.604  11.286  17.789  0.00  0.00    +0.000 A 
ATOM     26  F   UNL     1      -5.875  11.028  17.461  0.00  0.00    +0.000 F 
ATOM     27  C   UNL     1      -3.581  10.899  16.930  0.00  0.00    +0.000 A 
ATOM     28  C   UNL     1      -2.257  11.175  17.273  0.00  0.00    +0.000 A 
ENDBRANCH  21  22
ENDBRANCH  20  21
ENDBRANCH  19  20
ENDBRANCH  18  19
ENDBRANCH   4  18
TORSDOF 6
ENDMDL
MODEL 8
REMARK VINA RESULT:      -7.5      6.492      9.245
REMARK  Name = 
REMARK  6 active torsions:
REMARK  status: ('A' for Active; 'I' for Inactive)
REMARK    1  A    between atoms: N_10  and  C_11
REMARK    2  A    between atoms: N_14  and  C_15
REMARK    3  A    between atoms: C_15  and  C_16
REMARK    4  A    between atoms: C_16  and  C_17
REMARK    5  A    between atoms: C_17  and  O_18
REMARK    6  A    between atoms: O_18  and  C_19
REMARK                            x       y       z     vdW  Elec       q    Type
REMARK                         _______ _______ _______ _____ _____    ______ ____
ROOT
ATOM      1  C   UNL     1       2.285   6.634  18.299  0.00  0.00    +0.000 C 
ATOM      2  C   UNL     1       2.537   6.685  19.800  0.00  0.00    +0.000 C 
ATOM      3  C   UNL     1       1.504   7.643  20.408  0.00  0.00    +0.000 C 
ATOM      4  N   UNL     1       1.525   8.993  19.807  0.00  0.00    +0.000 NA
ATOM      5  C   UNL     1       1.483   8.976  18.335  0.00  0.00    +0.000 C 
ATOM      6  C   UNL     1       2.518   8.033  17.733  0.00  0.00    +0.000 C 
ENDROOT
BRANCH   1  16
ATOM      7  O   UNL     1       1.564   3.745  17.629  0.00  0.00    +0.000 OA
ATOM      8  C   UNL     1       2.647   4.265  17.420  0.00  0.00    +0.000 A 
ATOM      9  N   UNL     1       3.818   3.576  17.049  0.00  0.00    +0.000 N 
ATOM     10  C   UNL     1       4.883   4.467  17.028  0.00  0.00    +0.000 A 
ATOM     11  C   UNL     1       6.227   4.228  16.844  0.00  0.00    +0.000 A 
ATOM     12  C   UNL     1       7.088   5.328  16.936  0.00  0.00    +0.000 A 
ATOM     13  C   UNL     1       6.592   6.621  17.199  0.00  0.00    +0.000 A 
ATOM     14  C   UNL     1       5.228   6.837  17.397  0.00  0.00    +0.000 A 
ATOM     15  C   UNL     1       4.392   5.736  17.317  0.00  0.00    +0.000 A 
ATOM     16  N   UNL     1       3.007   5.625  17.551  0.00  0.00    +0.000 N 
ATOM     17  H   UNL     1       3.860   2.577  16.939  0.00  0.00    +0.000 HD
ENDBRANCH   1  16
BRANCH   4  18
ATOM     18  C   UNL     1       0.419   9.832  20.313  0.00  0.00    +0.000 C 
BRANCH  18  19
ATOM     19  C   UNL     1       0.580  11.327  20.032  0.00  0.00    +0.000 C 
BRANCH  19  20
ATOM     20  C   UNL     1      -0.418  11.804  18.988  0.00  0.00    +0.000 C 
BRANCH  20  21
ATOM     21  O   UNL     1      -1.655  11.115  19.177  0.00  0.00    +0.000 OA
BRANCH  21  22
ATOM     22  C   UNL     1      -2.399  10.928  18.041  0.00  0.00    +0.000 A 
ATOM     23  C   UNL     1      -3.647  11.510  17.785  0.00  0.00    +0.000 A 
ATOM     24  C   UNL     1      -4.310  11.246  16.589  0.00  0.00    +0.000 A 
ATOM     25  C   UNL     1      -3.729  10.402  15.655  0.00  0.00    +0.000 A 
ATOM     26  F   UNL     1      -4.368  10.152  14.506  0.00  0.00    +0.000 F 
ATOM     27  C   UNL     1      -2.491   9.814  15.892  0.00  0.00    +0.000 A 
ATOM     28  C   UNL     1      -1.824  10.081  17.089  0.00  0.00    +0.000 A 
ENDBRANCH  21  22
ENDBRANCH  20  21
ENDBRANCH  19  20
ENDBRANCH  18  19
ENDBRANCH   4  18
TORSDOF 6
ENDMDL
MODEL 9
REMARK VINA RESULT:      -7.5      7.059      9.596
REMARK  Name = 
REMARK  6 active torsions:
REMARK  status: ('A' for Active; 'I' for Inactive)
REMARK    1  A    between atoms: N_10  and  C_11
REMARK    2  A    between atoms: N_14  and  C_15
REMARK    3  A    between atoms: C_15  and  C_16
REMARK    4  A    between atoms: C_16  and  C_17
REMARK    5  A    between atoms: C_17  and  O_18
REMARK    6  A    between atoms: O_18  and  C_19
REMARK                            x       y       z     vdW  Elec       q    Type
REMARK                         _______ _______ _______ _____ _____    ______ ____
ROOT
ATOM      1  C   UNL     1       3.098   6.513  19.466  0.00  0.00    +0.000 C 
ATOM      2  C   UNL     1       2.637   6.982  18.093  0.00  0.00    +0.000 C 
ATOM      3  C   UNL     1       2.299   8.475  18.206  0.00  0.00    +0.000 C 
ATOM      4  N   UNL     1       1.296   8.777  19.249  0.00  0.00    +0.000 NA
ATOM      5  C   UNL     1       1.612   8.167  20.552  0.00  0.00    +0.000 C 
ATOM      6  C   UNL     1       1.934   6.682  20.440  0.00  0.00    +0.000 C 
ENDROOT
BRANCH   1  16
ATOM      7  O   UNL     1       6.008   5.595  19.549  0.00  0.00    +0.000 OA
ATOM      8  C   UNL     1       5.043   4.859  19.429  0.00  0.00    +0.000 A 
ATOM      9  N   UNL     1       5.101   3.496  19.081  0.00  0.00    +0.000 N 
ATOM     10  C   UNL     1       3.811   3.014  18.906  0.00  0.00    +0.000 A 
ATOM     11  C   UNL     1       3.384   1.788  18.448  0.00  0.00    +0.000 A 
ATOM     12  C   UNL     1       2.002   1.602  18.317  0.00  0.00    +0.000 A 
ATOM     13  C   UNL     1       1.095   2.629  18.649  0.00  0.00    +0.000 A 
ATOM     14  C   UNL     1       1.552   3.869  19.096  0.00  0.00    +0.000 A 
ATOM     15  C   UNL     1       2.921   4.040  19.207  0.00  0.00    +0.000 A 
ATOM     16  N   UNL     1       3.672   5.184  19.541  0.00  0.00    +0.000 N 
ATOM     17  H   UNL     1       5.962   3.013  18.884  0.00  0.00    +0.000 HD
ENDBRANCH   1  16
BRANCH   4  18
ATOM     18  C   UNL     1       1.116  10.232  19.426  0.00  0.00    +0.000 C 
BRANCH  18  19
ATOM     19  C   UNL     1       0.074  10.857  18.496  0.00  0.00    +0.000 C 
BRANCH  19  20
ATOM     20  C   UNL     1      -1.333  10.419  18.869  0.00  0.00    +0.000 C 
BRANCH  20  21
ATOM     21  O   UNL     1      -2.083  11.562  19.285  0.00  0.00    +0.000 OA
BRANCH  21  22
ATOM     22  C   UNL     1      -3.296  11.721  18.667  0.00  0.00    +0.000 A 
ATOM     23  C   UNL     1      -3.580  11.381  17.339  0.00  0.00    +0.000 A 
ATOM     24  C   UNL     1      -4.856  11.587  16.820  0.00  0.00    +0.000 A 
ATOM     25  C   UNL     1      -5.843  12.133  17.626  0.00  0.00    +0.000 A 
ATOM     26  F   UNL     1      -7.068  12.328  17.125  0.00  0.00    +0.000 F 
ATOM     27  C   UNL     1      -5.580  12.478  18.948  0.00  0.00    +0.000 A 
ATOM     28  C   UNL     1      -4.302  12.268  19.469  0.00  0.00    +0.000 A 
ENDBRANCH  21  22
ENDBRANCH  20  21
ENDBRANCH  19  20
ENDBRANCH  18  19
ENDBRANCH   4  18
TORSDOF 6
ENDMDL
