MODEL 1
REMARK VINA RESULT:      -7.4      0.000      0.000
REMARK  Name = 
REMARK  11 active torsions:
REMARK  status: ('A' for Active; 'I' for Inactive)
REMARK    1  A    between atoms: C_1  and  O_2
REMARK    2  A    between atoms: O_2  and  C_3
REMARK    3  A    between atoms: C_3  and  C_5
REMARK    4  A    between atoms: C_6  and  C_7
REMARK    5  A    between atoms: C_19  and  N_20
REMARK    6  A    between atoms: C_21  and  C_23
REMARK    7  A    between atoms: C_23  and  C_24
REMARK    8  A    between atoms: C_27  and  O_28
REMARK    9  A    between atoms: O_28  and  C_29
REMARK   10  A    between atoms: C_30  and  O_31
REMARK   11  A    between atoms: O_31  and  C_32
REMARK                            x       y       z     vdW  Elec       q    Type
REMARK                         _______ _______ _______ _____ _____    ______ ____
ROOT
ATOM      1  C   UNL     1       1.549   8.715  19.413  0.00  0.00    +0.000 A 
ATOM      2  C   UNL     1       0.623   9.716  19.956  0.00  0.00    +0.000 A 
ATOM      3  C   UNL     1       0.312   9.421  21.274  0.00  0.00    +0.000 A 
ATOM      4  S   UNL     1       0.842   7.869  21.750  0.00  0.00    +0.000 S 
ATOM      5  C   UNL     1       1.783   7.726  20.349  0.00  0.00    +0.000 A 
ENDROOT
BRANCH   2   6
ATOM      6  C   UNL     1       0.130  10.951  19.300  0.00  0.00    +0.000 A 
ATOM      7  C   UNL     1      -1.037  10.843  18.516  0.00  0.00    +0.000 A 
ATOM      8  C   UNL     1      -1.651  11.962  17.966  0.00  0.00    +0.000 A 
ATOM      9  C   UNL     1      -1.074  13.212  18.130  0.00  0.00    +0.000 A 
ATOM     10  C   UNL     1       0.123  13.364  18.840  0.00  0.00    +0.000 A 
ATOM     11  C   UNL     1       0.686  14.647  18.944  0.00  0.00    +0.000 A 
ATOM     12  C   UNL     1       1.874  14.860  19.638  0.00  0.00    +0.000 A 
ATOM     13  C   UNL     1       2.497  13.794  20.263  0.00  0.00    +0.000 A 
ATOM     14  C   UNL     1       1.930  12.517  20.193  0.00  0.00    +0.000 A 
ATOM     15  C   UNL     1       0.745  12.241  19.456  0.00  0.00    +0.000 A 
ENDBRANCH   2   6
BRANCH   5  16
ATOM     16  N   UNL     1       2.596   6.607  20.353  0.00  0.00    +0.000 N 
ATOM     17  C   UNL     1       1.967   5.368  20.340  0.00  0.00    +0.000 C 
ATOM     18  O   UNL     1       0.749   5.180  20.263  0.00  0.00    +0.000 OA
ATOM     19  H   UNL     1       3.394   6.657  19.732  0.00  0.00    +0.000 HD
BRANCH  17  20
ATOM     20  C   UNL     1       2.942   4.209  20.367  0.00  0.00    +0.000 C 
BRANCH  20  21
ATOM     21  C   UNL     1       3.847   4.174  19.163  0.00  0.00    +0.000 A 
ATOM     22  C   UNL     1       3.358   3.786  17.912  0.00  0.00    +0.000 A 
ATOM     23  C   UNL     1       4.221   3.702  16.822  0.00  0.00    +0.000 A 
ATOM     24  C   UNL     1       5.580   4.011  16.951  0.00  0.00    +0.000 A 
ATOM     25  C   UNL     1       6.088   4.400  18.202  0.00  0.00    +0.000 A 
ATOM     26  C   UNL     1       5.210   4.476  19.297  0.00  0.00    +0.000 A 
BRANCH  24  27
ATOM     27  O   UNL     1       6.281   3.819  15.789  0.00  0.00    +0.000 OA
ATOM     28  C   UNL     1       6.007   4.709  14.716  0.00  0.00    +0.000 C 
ENDBRANCH  24  27
BRANCH  25  29
ATOM     29  O   UNL     1       7.431   4.652  18.305  0.00  0.00    +0.000 OA
ATOM     30  C   UNL     1       7.840   5.852  18.947  0.00  0.00    +0.000 C 
ENDBRANCH  25  29
ENDBRANCH  20  21
ENDBRANCH  17  20
ENDBRANCH   5  16
BRANCH   1  31
ATOM     31  C   UNL     1       2.103   8.716  18.051  0.00  0.00    +0.000 C 
ATOM     32  O   UNL     1       2.191   9.721  17.356  0.00  0.00    +0.000 OA
BRANCH  31  34
ATOM     33  C   UNL     1       3.925   7.433  17.278  0.00  0.00    +0.000 C 
ATOM     34  O   UNL     1       2.552   7.496  17.652  0.00  0.00    +0.000 OA
ENDBRANCH  31  34
ENDBRANCH   1  31
TORSDOF 8
ENDMDL
MODEL 2
REMARK VINA RESULT:      -7.4      0.861      2.396
REMARK  Name = 
REMARK  11 active torsions:
REMARK  status: ('A' for Active; 'I' for Inactive)
REMARK    1  A    between atoms: C_1  and  O_2
REMARK    2  A    between atoms: O_2  and  C_3
REMARK    3  A    between atoms: C_3  and  C_5
REMARK    4  A    between atoms: C_6  and  C_7
REMARK    5  A    between atoms: C_19  and  N_20
REMARK    6  A    between atoms: C_21  and  C_23
REMARK    7  A    between atoms: C_23  and  C_24
REMARK    8  A    between atoms: C_27  and  O_28
REMARK    9  A    between atoms: O_28  and  C_29
REMARK   10  A    between atoms: C_30  and  O_31
REMARK   11  A    between atoms: O_31  and  C_32
REMARK                            x       y       z     vdW  Elec       q    Type
REMARK                         _______ _______ _______ _____ _____    ______ ____
ROOT
ATOM      1  C   UNL     1       1.608   8.520  19.341  0.00  0.00    +0.000 A 
ATOM      2  C   UNL     1       0.635   9.449  19.928  0.00  0.00    +0.000 A 
ATOM      3  C   UNL     1       0.374   9.106  21.245  0.00  0.00    +0.000 A 
ATOM      4  S   UNL     1       1.009   7.579  21.672  0.00  0.00    +0.000 S 
ATOM      5  C   UNL     1       1.924   7.526  20.248  0.00  0.00    +0.000 A 
ENDROOT
BRANCH   2   6
ATOM      6  C   UNL     1       0.052  10.665  19.312  0.00  0.00    +0.000 A 
ATOM      7  C   UNL     1       0.730  11.883  19.523  0.00  0.00    +0.000 A 
ATOM      8  C   UNL     1       0.339  13.054  18.884  0.00  0.00    +0.000 A 
ATOM      9  C   UNL     1      -0.785  13.050  18.071  0.00  0.00    +0.000 A 
ATOM     10  C   UNL     1      -1.535  11.883  17.886  0.00  0.00    +0.000 A 
ATOM     11  C   UNL     1      -2.686  11.942  17.084  0.00  0.00    +0.000 A 
ATOM     12  C   UNL     1      -3.470  10.814  16.862  0.00  0.00    +0.000 A 
ATOM     13  C   UNL     1      -3.094   9.604  17.417  0.00  0.00    +0.000 A 
ATOM     14  C   UNL     1      -1.933   9.525  18.193  0.00  0.00    +0.000 A 
ATOM     15  C   UNL     1      -1.126  10.659  18.488  0.00  0.00    +0.000 A 
ENDBRANCH   2   6
BRANCH   5  16
ATOM     16  N   UNL     1       2.804   6.460  20.208  0.00  0.00    +0.000 N 
ATOM     17  C   UNL     1       2.252   5.187  20.117  0.00  0.00    +0.000 C 
ATOM     18  O   UNL     1       1.049   4.930  20.008  0.00  0.00    +0.000 OA
ATOM     19  H   UNL     1       3.606   6.591  19.605  0.00  0.00    +0.000 HD
BRANCH  17  20
ATOM     20  C   UNL     1       3.296   4.090  20.101  0.00  0.00    +0.000 C 
BRANCH  20  21
ATOM     21  C   UNL     1       4.260   4.212  18.950  0.00  0.00    +0.000 A 
ATOM     22  C   UNL     1       3.908   3.770  17.672  0.00  0.00    +0.000 A 
ATOM     23  C   UNL     1       4.832   3.836  16.632  0.00  0.00    +0.000 A 
ATOM     24  C   UNL     1       6.116   4.352  16.839  0.00  0.00    +0.000 A 
ATOM     25  C   UNL     1       6.487   4.799  18.119  0.00  0.00    +0.000 A 
ATOM     26  C   UNL     1       5.549   4.722  19.162  0.00  0.00    +0.000 A 
BRANCH  24  27
ATOM     27  O   UNL     1       6.902   4.287  15.718  0.00  0.00    +0.000 OA
ATOM     28  C   UNL     1       6.253   3.975  14.493  0.00  0.00    +0.000 C 
ENDBRANCH  24  27
BRANCH  25  29
ATOM     29  O   UNL     1       7.766   5.256  18.298  0.00  0.00    +0.000 OA
ATOM     30  C   UNL     1       7.954   6.644  18.534  0.00  0.00    +0.000 C 
ENDBRANCH  25  29
ENDBRANCH  20  21
ENDBRANCH  17  20
ENDBRANCH   5  16
BRANCH   1  31
ATOM     31  C   UNL     1       2.129   8.585  17.968  0.00  0.00    +0.000 C 
ATOM     32  O   UNL     1       2.107   9.600  17.283  0.00  0.00    +0.000 OA
BRANCH  31  34
ATOM     33  C   UNL     1       4.055   7.479  17.173  0.00  0.00    +0.000 C 
ATOM     34  O   UNL     1       2.682   7.416  17.546  0.00  0.00    +0.000 OA
ENDBRANCH  31  34
ENDBRANCH   1  31
TORSDOF 8
ENDMDL
MODEL 3
REMARK VINA RESULT:      -7.3      3.547      5.029
REMARK  Name = 
REMARK  11 active torsions:
REMARK  status: ('A' for Active; 'I' for Inactive)
REMARK    1  A    between atoms: C_1  and  O_2
REMARK    2  A    between atoms: O_2  and  C_3
REMARK    3  A    between atoms: C_3  and  C_5
REMARK    4  A    between atoms: C_6  and  C_7
REMARK    5  A    between atoms: C_19  and  N_20
REMARK    6  A    between atoms: C_21  and  C_23
REMARK    7  A    between atoms: C_23  and  C_24
REMARK    8  A    between atoms: C_27  and  O_28
REMARK    9  A    between atoms: O_28  and  C_29
REMARK   10  A    between atoms: C_30  and  O_31
REMARK   11  A    between atoms: O_31  and  C_32
REMARK                            x       y       z     vdW  Elec       q    Type
REMARK                         _______ _______ _______ _____ _____    ______ ____
ROOT
ATOM      1  C   UNL     1      -0.244  11.506  20.263  0.00  0.00    +0.000 A 
ATOM      2  C   UNL     1      -1.086  12.707  20.213  0.00  0.00    +0.000 A 
ATOM      3  C   UNL     1      -0.676  13.542  19.185  0.00  0.00    +0.000 A 
ATOM      4  S   UNL     1       0.822  13.076  18.510  0.00  0.00    +0.000 S 
ATOM      5  C   UNL     1       0.761  11.590  19.319  0.00  0.00    +0.000 A 
ENDROOT
BRANCH   2   6
ATOM      6  C   UNL     1      -2.285  13.013  21.030  0.00  0.00    +0.000 A 
ATOM      7  C   UNL     1      -3.535  12.618  20.512  0.00  0.00    +0.000 A 
ATOM      8  C   UNL     1      -4.703  12.742  21.256  0.00  0.00    +0.000 A 
ATOM      9  C   UNL     1      -4.659  13.329  22.512  0.00  0.00    +0.000 A 
ATOM     10  C   UNL     1      -3.453  13.804  23.041  0.00  0.00    +0.000 A 
ATOM     11  C   UNL     1      -3.469  14.425  24.301  0.00  0.00    +0.000 A 
ATOM     12  C   UNL     1      -2.302  14.915  24.879  0.00  0.00    +0.000 A 
ATOM     13  C   UNL     1      -1.097  14.761  24.215  0.00  0.00    +0.000 A 
ATOM     14  C   UNL     1      -1.063  14.116  22.975  0.00  0.00    +0.000 A 
ATOM     15  C   UNL     1      -2.235  13.642  22.322  0.00  0.00    +0.000 A 
ENDBRANCH   2   6
BRANCH   5  16
ATOM     16  N   UNL     1       1.766  10.721  18.934  0.00  0.00    +0.000 N 
ATOM     17  C   UNL     1       1.401   9.647  18.132  0.00  0.00    +0.000 C 
ATOM     18  O   UNL     1       0.270   9.435  17.683  0.00  0.00    +0.000 OA
ATOM     19  H   UNL     1       2.626  11.165  18.639  0.00  0.00    +0.000 HD
BRANCH  17  20
ATOM     20  C   UNL     1       2.567   8.744  17.784  0.00  0.00    +0.000 C 
BRANCH  20  21
ATOM     21  C   UNL     1       2.510   7.413  18.488  0.00  0.00    +0.000 A 
ATOM     22  C   UNL     1       2.072   7.322  19.812  0.00  0.00    +0.000 A 
ATOM     23  C   UNL     1       2.081   6.093  20.466  0.00  0.00    +0.000 A 
ATOM     24  C   UNL     1       2.514   4.931  19.816  0.00  0.00    +0.000 A 
ATOM     25  C   UNL     1       2.959   5.006  18.485  0.00  0.00    +0.000 A 
ATOM     26  C   UNL     1       2.952   6.252  17.836  0.00  0.00    +0.000 A 
BRANCH  24  27
ATOM     27  O   UNL     1       2.504   3.830  20.632  0.00  0.00    +0.000 OA
ATOM     28  C   UNL     1       1.275   3.129  20.755  0.00  0.00    +0.000 C 
ENDBRANCH  24  27
BRANCH  25  29
ATOM     29  O   UNL     1       3.419   3.860  17.892  0.00  0.00    +0.000 OA
ATOM     30  C   UNL     1       4.379   3.983  16.851  0.00  0.00    +0.000 C 
ENDBRANCH  25  29
ENDBRANCH  20  21
ENDBRANCH  17  20
ENDBRANCH   5  16
BRANCH   1  31
ATOM     31  C   UNL     1      -0.396  10.397  21.216  0.00  0.00    +0.000 C 
ATOM     32  O   UNL     1      -0.712   9.260  20.888  0.00  0.00    +0.000 OA
BRANCH  31  34
ATOM     33  C   UNL     1      -0.131   9.687  23.450  0.00  0.00    +0.000 C 
ATOM     34  O   UNL     1      -0.107  10.746  22.499  0.00  0.00    +0.000 OA
ENDBRANCH  31  34
ENDBRANCH   1  31
TORSDOF 8
ENDMDL
MODEL 4
REMARK VINA RESULT:      -7.2      2.217      3.743
REMARK  Name = 
REMARK  11 active torsions:
REMARK  status: ('A' for Active; 'I' for Inactive)
REMARK    1  A    between atoms: C_1  and  O_2
REMARK    2  A    between atoms: O_2  and  C_3
REMARK    3  A    between atoms: C_3  and  C_5
REMARK    4  A    between atoms: C_6  and  C_7
REMARK    5  A    between atoms: C_19  and  N_20
REMARK    6  A    between atoms: C_21  and  C_23
REMARK    7  A    between atoms: C_23  and  C_24
REMARK    8  A    between atoms: C_27  and  O_28
REMARK    9  A    between atoms: O_28  and  C_29
REMARK   10  A    between atoms: C_30  and  O_31
REMARK   11  A    between atoms: O_31  and  C_32
REMARK                            x       y       z     vdW  Elec       q    Type
REMARK                         _______ _______ _______ _____ _____    ______ ____
ROOT
ATOM      1  C   UNL     1       0.617   9.181  20.032  0.00  0.00    +0.000 A 
ATOM      2  C   UNL     1       0.043  10.333  19.327  0.00  0.00    +0.000 A 
ATOM      3  C   UNL     1       0.701  10.539  18.124  0.00  0.00    +0.000 A 
ATOM      4  S   UNL     1       2.127   9.610  17.980  0.00  0.00    +0.000 S 
ATOM      5  C   UNL     1       1.697   8.682  19.329  0.00  0.00    +0.000 A 
ENDROOT
BRANCH   2   6
ATOM      6  C   UNL     1      -1.136  11.144  19.715  0.00  0.00    +0.000 A 
ATOM      7  C   UNL     1      -0.999  11.982  20.840  0.00  0.00    +0.000 A 
ATOM      8  C   UNL     1      -1.998  12.875  21.209  0.00  0.00    +0.000 A 
ATOM      9  C   UNL     1      -3.190  12.903  20.500  0.00  0.00    +0.000 A 
ATOM     10  C   UNL     1      -3.403  12.040  19.418  0.00  0.00    +0.000 A 
ATOM     11  C   UNL     1      -4.642  12.082  18.757  0.00  0.00    +0.000 A 
ATOM     12  C   UNL     1      -4.912  11.250  17.675  0.00  0.00    +0.000 A 
ATOM     13  C   UNL     1      -3.931  10.386  17.220  0.00  0.00    +0.000 A 
ATOM     14  C   UNL     1      -2.682  10.356  17.850  0.00  0.00    +0.000 A 
ATOM     15  C   UNL     1      -2.376  11.152  18.989  0.00  0.00    +0.000 A 
ENDBRANCH   2   6
BRANCH   5  16
ATOM     16  N   UNL     1       2.535   7.601  19.534  0.00  0.00    +0.000 N 
ATOM     17  C   UNL     1       2.359   6.498  18.707  0.00  0.00    +0.000 C 
ATOM     18  O   UNL     1       1.561   6.423  17.767  0.00  0.00    +0.000 OA
ATOM     19  H   UNL     1       3.508   7.837  19.683  0.00  0.00    +0.000 HD
BRANCH  17  20
ATOM     20  C   UNL     1       3.309   5.362  19.025  0.00  0.00    +0.000 C 
BRANCH  20  21
ATOM     21  C   UNL     1       4.424   5.230  18.021  0.00  0.00    +0.000 A 
ATOM     22  C   UNL     1       4.351   4.289  16.990  0.00  0.00    +0.000 A 
ATOM     23  C   UNL     1       5.417   4.140  16.106  0.00  0.00    +0.000 A 
ATOM     24  C   UNL     1       6.567   4.928  16.222  0.00  0.00    +0.000 A 
ATOM     25  C   UNL     1       6.658   5.877  17.253  0.00  0.00    +0.000 A 
ATOM     26  C   UNL     1       5.579   6.016  18.144  0.00  0.00    +0.000 A 
BRANCH  24  27
ATOM     27  O   UNL     1       7.528   4.603  15.300  0.00  0.00    +0.000 OA
ATOM     28  C   UNL     1       7.192   4.771  13.930  0.00  0.00    +0.000 C 
ENDBRANCH  24  27
BRANCH  25  29
ATOM     29  O   UNL     1       7.815   6.601  17.367  0.00  0.00    +0.000 OA
ATOM     30  C   UNL     1       7.711   8.000  17.593  0.00  0.00    +0.000 C 
ENDBRANCH  25  29
ENDBRANCH  20  21
ENDBRANCH  17  20
ENDBRANCH   5  16
BRANCH   1  31
ATOM     31  C   UNL     1       0.163   8.664  21.331  0.00  0.00    +0.000 C 
ATOM     32  O   UNL     1      -0.694   7.797  21.452  0.00  0.00    +0.000 OA
BRANCH  31  34
ATOM     33  C   UNL     1       0.008   9.592  23.494  0.00  0.00    +0.000 C 
ATOM     34  O   UNL     1       0.821   9.211  22.388  0.00  0.00    +0.000 OA
ENDBRANCH  31  34
ENDBRANCH   1  31
TORSDOF 8
ENDMDL
MODEL 5
REMARK VINA RESULT:      -7.2      3.330      5.326
REMARK  Name = 
REMARK  11 active torsions:
REMARK  status: ('A' for Active; 'I' for Inactive)
REMARK    1  A    between atoms: C_1  and  O_2
REMARK    2  A    between atoms: O_2  and  C_3
REMARK    3  A    between atoms: C_3  and  C_5
REMARK    4  A    between atoms: C_6  and  C_7
REMARK    5  A    between atoms: C_19  and  N_20
REMARK    6  A    between atoms: C_21  and  C_23
REMARK    7  A    between atoms: C_23  and  C_24
REMARK    8  A    between atoms: C_27  and  O_28
REMARK    9  A    between atoms: O_28  and  C_29
REMARK   10  A    between atoms: C_30  and  O_31
REMARK   11  A    between atoms: O_31  and  C_32
REMARK                            x       y       z     vdW  Elec       q    Type
REMARK                         _______ _______ _______ _____ _____    ______ ____
ROOT
ATOM      1  C   UNL     1      -0.243  11.397  20.331  0.00  0.00    +0.000 A 
ATOM      2  C   UNL     1      -1.148  12.553  20.327  0.00  0.00    +0.000 A 
ATOM      3  C   UNL     1      -0.816  13.423  19.300  0.00  0.00    +0.000 A 
ATOM      4  S   UNL     1       0.682  13.048  18.571  0.00  0.00    +0.000 S 
ATOM      5  C   UNL     1       0.726  11.549  19.358  0.00  0.00    +0.000 A 
ENDROOT
BRANCH   2   6
ATOM      6  C   UNL     1      -2.335  12.782  21.185  0.00  0.00    +0.000 A 
ATOM      7  C   UNL     1      -2.102  13.229  22.501  0.00  0.00    +0.000 A 
ATOM      8  C   UNL     1      -3.147  13.596  23.341  0.00  0.00    +0.000 A 
ATOM      9  C   UNL     1      -4.457  13.459  22.908  0.00  0.00    +0.000 A 
ATOM     10  C   UNL     1      -4.744  12.952  21.635  0.00  0.00    +0.000 A 
ATOM     11  C   UNL     1      -6.088  12.798  21.259  0.00  0.00    +0.000 A 
ATOM     12  C   UNL     1      -6.435  12.300  20.006  0.00  0.00    +0.000 A 
ATOM     13  C   UNL     1      -5.438  11.980  19.101  0.00  0.00    +0.000 A 
ATOM     14  C   UNL     1      -4.096  12.159  19.452  0.00  0.00    +0.000 A 
ATOM     15  C   UNL     1      -3.691  12.618  20.736  0.00  0.00    +0.000 A 
ENDBRANCH   2   6
BRANCH   5  16
ATOM     16  N   UNL     1       1.763  10.741  18.928  0.00  0.00    +0.000 N 
ATOM     17  C   UNL     1       1.430   9.663  18.117  0.00  0.00    +0.000 C 
ATOM     18  O   UNL     1       0.299   9.400  17.697  0.00  0.00    +0.000 OA
ATOM     19  H   UNL     1       2.589  11.235  18.616  0.00  0.00    +0.000 HD
BRANCH  17  20
ATOM     20  C   UNL     1       2.631   8.828  17.719  0.00  0.00    +0.000 C 
BRANCH  20  21
ATOM     21  C   UNL     1       2.614   7.449  18.323  0.00  0.00    +0.000 A 
ATOM     22  C   UNL     1       2.150   7.244  19.626  0.00  0.00    +0.000 A 
ATOM     23  C   UNL     1       2.197   5.972  20.190  0.00  0.00    +0.000 A 
ATOM     24  C   UNL     1       2.693   4.880  19.470  0.00  0.00    +0.000 A 
ATOM     25  C   UNL     1       3.166   5.068  18.160  0.00  0.00    +0.000 A 
ATOM     26  C   UNL     1       3.120   6.357  17.602  0.00  0.00    +0.000 A 
BRANCH  24  27
ATOM     27  O   UNL     1       2.712   3.723  20.205  0.00  0.00    +0.000 OA
ATOM     28  C   UNL     1       2.189   3.788  21.524  0.00  0.00    +0.000 C 
ENDBRANCH  24  27
BRANCH  25  29
ATOM     29  O   UNL     1       3.688   3.988  17.499  0.00  0.00    +0.000 OA
ATOM     30  C   UNL     1       4.692   4.223  16.521  0.00  0.00    +0.000 C 
ENDBRANCH  25  29
ENDBRANCH  20  21
ENDBRANCH  17  20
ENDBRANCH   5  16
BRANCH   1  31
ATOM     31  C   UNL     1      -0.305  10.269  21.270  0.00  0.00    +0.000 C 
ATOM     32  O   UNL     1      -0.588   9.125  20.937  0.00  0.00    +0.000 OA
BRANCH  31  34
ATOM     33  C   UNL     1       0.057   9.541  23.485  0.00  0.00    +0.000 C 
ATOM     34  O   UNL     1       0.029  10.610  22.544  0.00  0.00    +0.000 OA
ENDBRANCH  31  34
ENDBRANCH   1  31
TORSDOF 8
ENDMDL
MODEL 6
REMARK VINA RESULT:      -7.1      3.641      9.572
REMARK  Name = 
REMARK  11 active torsions:
REMARK  status: ('A' for Active; 'I' for Inactive)
REMARK    1  A    between atoms: C_1  and  O_2
REMARK    2  A    between atoms: O_2  and  C_3
REMARK    3  A    between atoms: C_3  and  C_5
REMARK    4  A    between atoms: C_6  and  C_7
REMARK    5  A    between atoms: C_19  and  N_20
REMARK    6  A    between atoms: C_21  and  C_23
REMARK    7  A    between atoms: C_23  and  C_24
REMARK    8  A    between atoms: C_27  and  O_28
REMARK    9  A    between atoms: O_28  and  C_29
REMARK   10  A    between atoms: C_30  and  O_31
REMARK   11  A    between atoms: O_31  and  C_32
REMARK                            x       y       z     vdW  Elec       q    Type
REMARK                         _______ _______ _______ _____ _____    ______ ____
ROOT
ATOM      1  C   UNL     1       1.122   9.251  19.571  0.00  0.00    +0.000 A 
ATOM      2  C   UNL     1       1.767   8.014  20.027  0.00  0.00    +0.000 A 
ATOM      3  C   UNL     1       1.647   7.885  21.402  0.00  0.00    +0.000 A 
ATOM      4  S   UNL     1       1.073   9.307  22.154  0.00  0.00    +0.000 S 
ATOM      5  C   UNL     1       0.649   9.968  20.654  0.00  0.00    +0.000 A 
ENDROOT
BRANCH   2   6
ATOM      6  C   UNL     1       2.382   6.949  19.199  0.00  0.00    +0.000 A 
ATOM      7  C   UNL     1       3.282   7.353  18.193  0.00  0.00    +0.000 A 
ATOM      8  C   UNL     1       4.008   6.429  17.451  0.00  0.00    +0.000 A 
ATOM      9  C   UNL     1       3.798   5.072  17.649  0.00  0.00    +0.000 A 
ATOM     10  C   UNL     1       2.862   4.619  18.587  0.00  0.00    +0.000 A 
ATOM     11  C   UNL     1       2.660   3.235  18.722  0.00  0.00    +0.000 A 
ATOM     12  C   UNL     1       1.745   2.725  19.638  0.00  0.00    +0.000 A 
ATOM     13  C   UNL     1       1.041   3.595  20.452  0.00  0.00    +0.000 A 
ATOM     14  C   UNL     1       1.255   4.973  20.349  0.00  0.00    +0.000 A 
ATOM     15  C   UNL     1       2.144   5.544  19.396  0.00  0.00    +0.000 A 
ENDBRANCH   2   6
BRANCH   5  16
ATOM     16  N   UNL     1      -0.062  11.149  20.762  0.00  0.00    +0.000 N 
ATOM     17  C   UNL     1       0.673  12.314  20.950  0.00  0.00    +0.000 C 
ATOM     18  O   UNL     1       1.905  12.393  20.967  0.00  0.00    +0.000 OA
ATOM     19  H   UNL     1      -0.816  11.257  20.096  0.00  0.00    +0.000 HD
BRANCH  17  20
ATOM     20  C   UNL     1      -0.196  13.548  21.078  0.00  0.00    +0.000 C 
BRANCH  20  21
ATOM     21  C   UNL     1      -1.547  13.256  21.677  0.00  0.00    +0.000 A 
ATOM     22  C   UNL     1      -1.685  13.004  23.045  0.00  0.00    +0.000 A 
ATOM     23  C   UNL     1      -2.932  12.677  23.572  0.00  0.00    +0.000 A 
ATOM     24  C   UNL     1      -4.065  12.606  22.754  0.00  0.00    +0.000 A 
ATOM     25  C   UNL     1      -3.945  12.855  21.376  0.00  0.00    +0.000 A 
ATOM     26  C   UNL     1      -2.681  13.177  20.853  0.00  0.00    +0.000 A 
BRANCH  24  27
ATOM     27  O   UNL     1      -5.189  12.219  23.437  0.00  0.00    +0.000 OA
ATOM     28  C   UNL     1      -6.081  13.246  23.847  0.00  0.00    +0.000 C 
ENDBRANCH  24  27
BRANCH  25  29
ATOM     29  O   UNL     1      -5.064  12.732  20.597  0.00  0.00    +0.000 OA
ATOM     30  C   UNL     1      -4.905  12.264  19.264  0.00  0.00    +0.000 C 
ENDBRANCH  25  29
ENDBRANCH  20  21
ENDBRANCH  17  20
ENDBRANCH   5  16
BRANCH   1  31
ATOM     31  C   UNL     1       1.043   9.707  18.176  0.00  0.00    +0.000 C 
ATOM     32  O   UNL     1       1.921  10.358  17.625  0.00  0.00    +0.000 OA
BRANCH  31  34
ATOM     33  C   UNL     1      -1.202  10.176  17.622  0.00  0.00    +0.000 C 
ATOM     34  O   UNL     1      -0.086   9.294  17.539  0.00  0.00    +0.000 OA
ENDBRANCH  31  34
ENDBRANCH   1  31
TORSDOF 8
ENDMDL
MODEL 7
REMARK VINA RESULT:      -7.1      2.802      4.670
REMARK  Name = 
REMARK  11 active torsions:
REMARK  status: ('A' for Active; 'I' for Inactive)
REMARK    1  A    between atoms: C_1  and  O_2
REMARK    2  A    between atoms: O_2  and  C_3
REMARK    3  A    between atoms: C_3  and  C_5
REMARK    4  A    between atoms: C_6  and  C_7
REMARK    5  A    between atoms: C_19  and  N_20
REMARK    6  A    between atoms: C_21  and  C_23
REMARK    7  A    between atoms: C_23  and  C_24
REMARK    8  A    between atoms: C_27  and  O_28
REMARK    9  A    between atoms: O_28  and  C_29
REMARK   10  A    between atoms: C_30  and  O_31
REMARK   11  A    between atoms: O_31  and  C_32
REMARK                            x       y       z     vdW  Elec       q    Type
REMARK                         _______ _______ _______ _____ _____    ______ ____
ROOT
ATOM      1  C   UNL     1      -0.090  11.092  19.672  0.00  0.00    +0.000 A 
ATOM      2  C   UNL     1      -1.301  11.885  19.427  0.00  0.00    +0.000 A 
ATOM      3  C   UNL     1      -2.082  11.284  18.452  0.00  0.00    +0.000 A 
ATOM      4  S   UNL     1      -1.275  10.014  17.645  0.00  0.00    +0.000 S 
ATOM      5  C   UNL     1      -0.041  10.017  18.805  0.00  0.00    +0.000 A 
ENDROOT
BRANCH   2   6
ATOM      6  C   UNL     1      -1.756  13.098  20.147  0.00  0.00    +0.000 A 
ATOM      7  C   UNL     1      -2.680  12.917  21.196  0.00  0.00    +0.000 A 
ATOM      8  C   UNL     1      -3.068  13.972  22.014  0.00  0.00    +0.000 A 
ATOM      9  C   UNL     1      -2.593  15.250  21.759  0.00  0.00    +0.000 A 
ATOM     10  C   UNL     1      -1.730  15.495  20.685  0.00  0.00    +0.000 A 
ATOM     11  C   UNL     1      -1.308  16.814  20.447  0.00  0.00    +0.000 A 
ATOM     12  C   UNL     1      -0.449  17.119  19.396  0.00  0.00    +0.000 A 
ATOM     13  C   UNL     1       0.025  16.100  18.587  0.00  0.00    +0.000 A 
ATOM     14  C   UNL     1      -0.363  14.779  18.832  0.00  0.00    +0.000 A 
ATOM     15  C   UNL     1      -1.276  14.424  19.863  0.00  0.00    +0.000 A 
ENDBRANCH   2   6
BRANCH   5  16
ATOM     16  N   UNL     1       0.845   8.966  18.659  0.00  0.00    +0.000 N 
ATOM     17  C   UNL     1       2.018   9.220  17.959  0.00  0.00    +0.000 C 
ATOM     18  O   UNL     1       2.366  10.317  17.511  0.00  0.00    +0.000 OA
ATOM     19  H   UNL     1       0.990   8.410  19.491  0.00  0.00    +0.000 HD
BRANCH  17  20
ATOM     20  C   UNL     1       2.910   8.002  17.835  0.00  0.00    +0.000 C 
BRANCH  20  21
ATOM     21  C   UNL     1       2.382   6.808  18.587  0.00  0.00    +0.000 A 
ATOM     22  C   UNL     1       2.222   6.850  19.975  0.00  0.00    +0.000 A 
ATOM     23  C   UNL     1       1.788   5.719  20.661  0.00  0.00    +0.000 A 
ATOM     24  C   UNL     1       1.495   4.530  19.982  0.00  0.00    +0.000 A 
ATOM     25  C   UNL     1       1.652   4.470  18.587  0.00  0.00    +0.000 A 
ATOM     26  C   UNL     1       2.096   5.616  17.905  0.00  0.00    +0.000 A 
BRANCH  24  27
ATOM     27  O   UNL     1       1.136   3.511  20.826  0.00  0.00    +0.000 OA
ATOM     28  C   UNL     1       2.173   2.914  21.593  0.00  0.00    +0.000 C 
ENDBRANCH  24  27
BRANCH  25  29
ATOM     29  O   UNL     1       1.401   3.279  17.959  0.00  0.00    +0.000 OA
ATOM     30  C   UNL     1       2.510   2.471  17.587  0.00  0.00    +0.000 C 
ENDBRANCH  25  29
ENDBRANCH  20  21
ENDBRANCH  17  20
ENDBRANCH   5  16
BRANCH   1  31
ATOM     31  C   UNL     1       0.959  11.418  20.648  0.00  0.00    +0.000 C 
ATOM     32  O   UNL     1       1.023  10.922  21.766  0.00  0.00    +0.000 OA
BRANCH  31  34
ATOM     33  C   UNL     1       2.131  13.439  20.982  0.00  0.00    +0.000 C 
ATOM     34  O   UNL     1       1.885  12.294  20.171  0.00  0.00    +0.000 OA
ENDBRANCH  31  34
ENDBRANCH   1  31
TORSDOF 8
ENDMDL
MODEL 8
REMARK VINA RESULT:      -7.0      3.780      9.548
REMARK  Name = 
REMARK  11 active torsions:
REMARK  status: ('A' for Active; 'I' for Inactive)
REMARK    1  A    between atoms: C_1  and  O_2
REMARK    2  A    between atoms: O_2  and  C_3
REMARK    3  A    between atoms: C_3  and  C_5
REMARK    4  A    between atoms: C_6  and  C_7
REMARK    5  A    between atoms: C_19  and  N_20
REMARK    6  A    between atoms: C_21  and  C_23
REMARK    7  A    between atoms: C_23  and  C_24
REMARK    8  A    between atoms: C_27  and  O_28
REMARK    9  A    between atoms: O_28  and  C_29
REMARK   10  A    between atoms: C_30  and  O_31
REMARK   11  A    between atoms: O_31  and  C_32
REMARK                            x       y       z     vdW  Elec       q    Type
REMARK                         _______ _______ _______ _____ _____    ______ ____
ROOT
ATOM      1  C   UNL     1       0.908   9.435  19.818  0.00  0.00    +0.000 A 
ATOM      2  C   UNL     1       1.598   8.189  20.172  0.00  0.00    +0.000 A 
ATOM      3  C   UNL     1       1.449   7.922  21.524  0.00  0.00    +0.000 A 
ATOM      4  S   UNL     1       0.791   9.238  22.391  0.00  0.00    +0.000 S 
ATOM      5  C   UNL     1       0.374  10.022  20.950  0.00  0.00    +0.000 A 
ENDROOT
BRANCH   2   6
ATOM      6  C   UNL     1       2.281   7.237  19.264  0.00  0.00    +0.000 A 
ATOM      7  C   UNL     1       3.119   7.783  18.270  0.00  0.00    +0.000 A 
ATOM      8  C   UNL     1       3.903   6.975  17.455  0.00  0.00    +0.000 A 
ATOM      9  C   UNL     1       3.816   5.595  17.567  0.00  0.00    +0.000 A 
ATOM     10  C   UNL     1       2.945   5.003  18.490  0.00  0.00    +0.000 A 
ATOM     11  C   UNL     1       2.867   3.601  18.537  0.00  0.00    +0.000 A 
ATOM     12  C   UNL     1       2.021   2.955  19.433  0.00  0.00    +0.000 A 
ATOM     13  C   UNL     1       1.265   3.705  20.317  0.00  0.00    +0.000 A 
ATOM     14  C   UNL     1       1.357   5.101  20.301  0.00  0.00    +0.000 A 
ATOM     15  C   UNL     1       2.170   5.807  19.372  0.00  0.00    +0.000 A 
ENDBRANCH   2   6
BRANCH   5  16
ATOM     16  N   UNL     1      -0.392  11.156  21.150  0.00  0.00    +0.000 N 
ATOM     17  C   UNL     1       0.285  12.361  21.290  0.00  0.00    +0.000 C 
ATOM     18  O   UNL     1       1.506  12.516  21.191  0.00  0.00    +0.000 OA
ATOM     19  H   UNL     1      -1.213  11.226  20.562  0.00  0.00    +0.000 HD
BRANCH  17  20
ATOM     20  C   UNL     1      -0.640  13.536  21.527  0.00  0.00    +0.000 C 
BRANCH  20  21
ATOM     21  C   UNL     1      -2.097  13.169  21.413  0.00  0.00    +0.000 A 
ATOM     22  C   UNL     1      -2.700  13.012  20.162  0.00  0.00    +0.000 A 
ATOM     23  C   UNL     1      -4.061  12.731  20.075  0.00  0.00    +0.000 A 
ATOM     24  C   UNL     1      -4.845  12.589  21.226  0.00  0.00    +0.000 A 
ATOM     25  C   UNL     1      -4.255  12.746  22.492  0.00  0.00    +0.000 A 
ATOM     26  C   UNL     1      -2.882  13.036  22.569  0.00  0.00    +0.000 A 
BRANCH  24  27
ATOM     27  O   UNL     1      -6.168  12.368  20.944  0.00  0.00    +0.000 OA
ATOM     28  C   UNL     1      -6.973  13.512  20.693  0.00  0.00    +0.000 C 
ENDBRANCH  24  27
BRANCH  25  29
ATOM     29  O   UNL     1      -5.058  12.646  23.597  0.00  0.00    +0.000 OA
ATOM     30  C   UNL     1      -4.445  12.367  24.848  0.00  0.00    +0.000 C 
ENDBRANCH  25  29
ENDBRANCH  20  21
ENDBRANCH  17  20
ENDBRANCH   5  16
BRANCH   1  31
ATOM     31  C   UNL     1       0.842  10.021  18.471  0.00  0.00    +0.000 C 
ATOM     32  O   UNL     1       1.625  10.869  18.062  0.00  0.00    +0.000 OA
BRANCH  31  34
ATOM     33  C   UNL     1      -1.378  10.212  17.698  0.00  0.00    +0.000 C 
ATOM     34  O   UNL     1      -0.149   9.493  17.703  0.00  0.00    +0.000 OA
ENDBRANCH  31  34
ENDBRANCH   1  31
TORSDOF 8
ENDMDL
MODEL 9
REMARK VINA RESULT:      -7.0      3.313      4.513
REMARK  Name = 
REMARK  11 active torsions:
REMARK  status: ('A' for Active; 'I' for Inactive)
REMARK    1  A    between atoms: C_1  and  O_2
REMARK    2  A    between atoms: O_2  and  C_3
REMARK    3  A    between atoms: C_3  and  C_5
REMARK    4  A    between atoms: C_6  and  C_7
REMARK    5  A    between atoms: C_19  and  N_20
REMARK    6  A    between atoms: C_21  and  C_23
REMARK    7  A    between atoms: C_23  and  C_24
REMARK    8  A    between atoms: C_27  and  O_28
REMARK    9  A    between atoms: O_28  and  C_29
REMARK   10  A    between atoms: C_30  and  O_31
REMARK   11  A    between atoms: O_31  and  C_32
REMARK                            x       y       z     vdW  Elec       q    Type
REMARK                         _______ _______ _______ _____ _____    ______ ____
ROOT
ATOM      1  C   UNL     1      -1.217  10.749  18.634  0.00  0.00    +0.000 A 
ATOM      2  C   UNL     1      -1.647  11.739  19.630  0.00  0.00    +0.000 A 
ATOM      3  C   UNL     1      -0.546  12.328  20.231  0.00  0.00    +0.000 A 
ATOM      4  S   UNL     1       0.918  11.531  19.861  0.00  0.00    +0.000 S 
ATOM      5  C   UNL     1       0.160  10.637  18.639  0.00  0.00    +0.000 A 
ENDROOT
BRANCH   2   6
ATOM      6  C   UNL     1      -3.028  12.184  19.933  0.00  0.00    +0.000 A 
ATOM      7  C   UNL     1      -3.912  12.331  18.844  0.00  0.00    +0.000 A 
ATOM      8  C   UNL     1      -5.258  12.618  19.034  0.00  0.00    +0.000 A 
ATOM      9  C   UNL     1      -5.742  12.834  20.316  0.00  0.00    +0.000 A 
ATOM     10  C   UNL     1      -4.890  12.769  21.425  0.00  0.00    +0.000 A 
ATOM     11  C   UNL     1      -5.421  13.033  22.698  0.00  0.00    +0.000 A 
ATOM     12  C   UNL     1      -4.624  12.983  23.838  0.00  0.00    +0.000 A 
ATOM     13  C   UNL     1      -3.289  12.637  23.720  0.00  0.00    +0.000 A 
ATOM     14  C   UNL     1      -2.755  12.342  22.461  0.00  0.00    +0.000 A 
ATOM     15  C   UNL     1      -3.517  12.427  21.263  0.00  0.00    +0.000 A 
ENDBRANCH   2   6
BRANCH   5  16
ATOM     16  N   UNL     1       1.047   9.898  17.877  0.00  0.00    +0.000 N 
ATOM     17  C   UNL     1       1.733   8.875  18.520  0.00  0.00    +0.000 C 
ATOM     18  O   UNL     1       1.575   8.529  19.695  0.00  0.00    +0.000 OA
ATOM     19  H   UNL     1       0.707   9.636  16.960  0.00  0.00    +0.000 HD
BRANCH  17  20
ATOM     20  C   UNL     1       2.693   8.141  17.607  0.00  0.00    +0.000 C 
BRANCH  20  21
ATOM     21  C   UNL     1       2.906   6.705  18.010  0.00  0.00    +0.000 A 
ATOM     22  C   UNL     1       1.834   5.810  18.062  0.00  0.00    +0.000 A 
ATOM     23  C   UNL     1       2.038   4.502  18.493  0.00  0.00    +0.000 A 
ATOM     24  C   UNL     1       3.310   4.055  18.869  0.00  0.00    +0.000 A 
ATOM     25  C   UNL     1       4.399   4.943  18.825  0.00  0.00    +0.000 A 
ATOM     26  C   UNL     1       4.181   6.263  18.394  0.00  0.00    +0.000 A 
BRANCH  24  27
ATOM     27  O   UNL     1       3.307   2.759  19.315  0.00  0.00    +0.000 OA
ATOM     28  C   UNL     1       3.468   1.740  18.339  0.00  0.00    +0.000 C 
ENDBRANCH  24  27
BRANCH  25  29
ATOM     29  O   UNL     1       5.621   4.487  19.242  0.00  0.00    +0.000 OA
ATOM     30  C   UNL     1       6.696   5.415  19.303  0.00  0.00    +0.000 C 
ENDBRANCH  25  29
ENDBRANCH  20  21
ENDBRANCH  17  20
ENDBRANCH   5  16
BRANCH   1  31
ATOM     31  C   UNL     1      -2.112   9.941  17.794  0.00  0.00    +0.000 C 
ATOM     32  O   UNL     1      -3.040   9.276  18.237  0.00  0.00    +0.000 OA
BRANCH  31  34
ATOM     33  C   UNL     1      -2.964  10.203  15.610  0.00  0.00    +0.000 C 
ATOM     34  O   UNL     1      -1.837  10.038  16.465  0.00  0.00    +0.000 OA
ENDBRANCH  31  34
ENDBRANCH   1  31
TORSDOF 8
ENDMDL
