MODEL 1
REMARK VINA RESULT:      -6.5      0.000      0.000
REMARK  Name = 
REMARK  4 active torsions:
REMARK  status: ('A' for Active; 'I' for Inactive)
REMARK    1  A    between atoms: C_1  and  C_2
REMARK    2  A    between atoms: C_2  and  C_3
REMARK    3  A    between atoms: C_2  and  N_4
REMARK    4  A    between atoms: C_8  and  C_9
REMARK                            x       y       z     vdW  Elec       q    Type
REMARK                         _______ _______ _______ _____ _____    ______ ____
ROOT
ATOM      1  N   UNL     1       5.143   4.388  14.893  0.00  0.00    +0.000 N 
ATOM      2  C   UNL     1       5.109   4.302  16.240  0.00  0.00    +0.000 A 
ATOM      3  N   UNL     1       6.103   4.378  17.091  0.00  0.00    +0.000 NA
ATOM      4  C   UNL     1       5.543   4.205  18.330  0.00  0.00    +0.000 A 
ATOM      5  C   UNL     1       4.180   3.988  18.248  0.00  0.00    +0.000 A 
ATOM      6  N   UNL     1       3.926   4.086  16.898  0.00  0.00    +0.000 N 
ATOM      7  H   UNL     1       4.303   4.225  14.350  0.00  0.00    +0.000 HD
ATOM      8  H   UNL     1       3.035   3.951  16.450  0.00  0.00    +0.000 HD
ENDROOT
BRANCH   5   9
ATOM      9  C   UNL     1       3.178   3.692  19.271  0.00  0.00    +0.000 A 
ATOM     10  C   UNL     1       1.876   4.204  19.194  0.00  0.00    +0.000 A 
ATOM     11  C   UNL     1       0.930   3.909  20.181  0.00  0.00    +0.000 A 
ATOM     12  C   UNL     1       1.277   3.098  21.263  0.00  0.00    +0.000 A 
ATOM     13  C   UNL     1       2.570   2.585  21.356  0.00  0.00    +0.000 A 
ATOM     14  C   UNL     1       3.512   2.880  20.369  0.00  0.00    +0.000 A 
ENDBRANCH   5   9
BRANCH   1  16
ATOM     15  C   UNL     1       6.030   3.467  12.819  0.00  0.00    +0.000 C 
ATOM     16  C   UNL     1       6.377   3.993  14.212  0.00  0.00    +0.000 C 
ATOM     17  C   UNL     1       7.311   5.195  14.102  0.00  0.00    +0.000 C 
ENDBRANCH   1  16
TORSDOF 2
ENDMDL
MODEL 2
REMARK VINA RESULT:      -6.5      0.130      1.252
REMARK  Name = 
REMARK  4 active torsions:
REMARK  status: ('A' for Active; 'I' for Inactive)
REMARK    1  A    between atoms: C_1  and  C_2
REMARK    2  A    between atoms: C_2  and  C_3
REMARK    3  A    between atoms: C_2  and  N_4
REMARK    4  A    between atoms: C_8  and  C_9
REMARK                            x       y       z     vdW  Elec       q    Type
REMARK                         _______ _______ _______ _____ _____    ______ ____
ROOT
ATOM      1  N   UNL     1       5.171   4.377  14.777  0.00  0.00    +0.000 N 
ATOM      2  C   UNL     1       5.151   4.296  16.125  0.00  0.00    +0.000 A 
ATOM      3  N   UNL     1       6.155   4.373  16.965  0.00  0.00    +0.000 NA
ATOM      4  C   UNL     1       5.609   4.206  18.210  0.00  0.00    +0.000 A 
ATOM      5  C   UNL     1       4.244   3.994  18.145  0.00  0.00    +0.000 A 
ATOM      6  N   UNL     1       3.976   4.087  16.797  0.00  0.00    +0.000 N 
ATOM      7  H   UNL     1       4.324   4.214  14.245  0.00  0.00    +0.000 HD
ATOM      8  H   UNL     1       3.079   3.953  16.360  0.00  0.00    +0.000 HD
ENDROOT
BRANCH   5   9
ATOM      9  C   UNL     1       3.253   3.705  19.181  0.00  0.00    +0.000 A 
ATOM     10  C   UNL     1       3.554   2.883  20.275  0.00  0.00    +0.000 A 
ATOM     11  C   UNL     1       2.594   2.618  21.257  0.00  0.00    +0.000 A 
ATOM     12  C   UNL     1       1.317   3.171  21.155  0.00  0.00    +0.000 A 
ATOM     13  C   UNL     1       1.002   3.987  20.070  0.00  0.00    +0.000 A 
ATOM     14  C   UNL     1       1.961   4.251  19.091  0.00  0.00    +0.000 A 
ENDBRANCH   5   9
BRANCH   1  16
ATOM     15  C   UNL     1       6.028   3.416  12.710  0.00  0.00    +0.000 C 
ATOM     16  C   UNL     1       6.395   3.975  14.085  0.00  0.00    +0.000 C 
ATOM     17  C   UNL     1       7.320   5.180  13.933  0.00  0.00    +0.000 C 
ENDBRANCH   1  16
TORSDOF 2
ENDMDL
MODEL 3
REMARK VINA RESULT:      -6.4      1.113      6.642
REMARK  Name = 
REMARK  4 active torsions:
REMARK  status: ('A' for Active; 'I' for Inactive)
REMARK    1  A    between atoms: C_1  and  C_2
REMARK    2  A    between atoms: C_2  and  C_3
REMARK    3  A    between atoms: C_2  and  N_4
REMARK    4  A    between atoms: C_8  and  C_9
REMARK                            x       y       z     vdW  Elec       q    Type
REMARK                         _______ _______ _______ _____ _____    ______ ____
ROOT
ATOM      1  N   UNL     1       3.847   3.160  18.653  0.00  0.00    +0.000 N 
ATOM      2  C   UNL     1       4.359   3.998  17.725  0.00  0.00    +0.000 A 
ATOM      3  N   UNL     1       4.334   5.308  17.703  0.00  0.00    +0.000 NA
ATOM      4  C   UNL     1       4.965   5.670  16.542  0.00  0.00    +0.000 A 
ATOM      5  C   UNL     1       5.367   4.565  15.813  0.00  0.00    +0.000 A 
ATOM      6  N   UNL     1       4.991   3.508  16.613  0.00  0.00    +0.000 N 
ATOM      7  H   UNL     1       3.865   2.158  18.500  0.00  0.00    +0.000 HD
ATOM      8  H   UNL     1       5.094   2.532  16.392  0.00  0.00    +0.000 HD
ENDROOT
BRANCH   5   9
ATOM      9  C   UNL     1       6.008   4.442  14.505  0.00  0.00    +0.000 A 
ATOM     10  C   UNL     1       7.168   5.161  14.186  0.00  0.00    +0.000 A 
ATOM     11  C   UNL     1       7.768   5.031  12.929  0.00  0.00    +0.000 A 
ATOM     12  C   UNL     1       7.212   4.180  11.973  0.00  0.00    +0.000 A 
ATOM     13  C   UNL     1       6.056   3.463  12.274  0.00  0.00    +0.000 A 
ATOM     14  C   UNL     1       5.459   3.593  13.529  0.00  0.00    +0.000 A 
ENDBRANCH   5   9
BRANCH   1  16
ATOM     15  C   UNL     1       1.434   3.482  18.590  0.00  0.00    +0.000 C 
ATOM     16  C   UNL     1       2.700   3.622  19.435  0.00  0.00    +0.000 C 
ATOM     17  C   UNL     1       2.576   2.789  20.708  0.00  0.00    +0.000 C 
ENDBRANCH   1  16
TORSDOF 2
ENDMDL
MODEL 4
REMARK VINA RESULT:      -6.3      1.102      6.552
REMARK  Name = 
REMARK  4 active torsions:
REMARK  status: ('A' for Active; 'I' for Inactive)
REMARK    1  A    between atoms: C_1  and  C_2
REMARK    2  A    between atoms: C_2  and  C_3
REMARK    3  A    between atoms: C_2  and  N_4
REMARK    4  A    between atoms: C_8  and  C_9
REMARK                            x       y       z     vdW  Elec       q    Type
REMARK                         _______ _______ _______ _____ _____    ______ ____
ROOT
ATOM      1  N   UNL     1       3.774   3.083  18.871  0.00  0.00    +0.000 N 
ATOM      2  C   UNL     1       4.387   3.906  17.994  0.00  0.00    +0.000 A 
ATOM      3  N   UNL     1       4.590   5.197  18.086  0.00  0.00    +0.000 NA
ATOM      4  C   UNL     1       5.229   5.555  16.928  0.00  0.00    +0.000 A 
ATOM      5  C   UNL     1       5.405   4.472  16.086  0.00  0.00    +0.000 A 
ATOM      6  N   UNL     1       4.881   3.423  16.810  0.00  0.00    +0.000 N 
ATOM      7  H   UNL     1       3.611   2.111  18.631  0.00  0.00    +0.000 HD
ATOM      8  H   UNL     1       4.804   2.469  16.500  0.00  0.00    +0.000 HD
ENDROOT
BRANCH   5   9
ATOM      9  C   UNL     1       5.963   4.367  14.739  0.00  0.00    +0.000 A 
ATOM     10  C   UNL     1       5.366   3.563  13.759  0.00  0.00    +0.000 A 
ATOM     11  C   UNL     1       5.914   3.474  12.474  0.00  0.00    +0.000 A 
ATOM     12  C   UNL     1       7.069   4.189  12.156  0.00  0.00    +0.000 A 
ATOM     13  C   UNL     1       7.676   4.989  13.122  0.00  0.00    +0.000 A 
ATOM     14  C   UNL     1       7.128   5.077  14.402  0.00  0.00    +0.000 A 
ENDBRANCH   5   9
BRANCH   1  16
ATOM     15  C   UNL     1       1.406   3.633  19.033  0.00  0.00    +0.000 C 
ATOM     16  C   UNL     1       2.755   3.657  19.751  0.00  0.00    +0.000 C 
ATOM     17  C   UNL     1       2.677   2.848  21.044  0.00  0.00    +0.000 C 
ENDBRANCH   1  16
TORSDOF 2
ENDMDL
MODEL 5
REMARK VINA RESULT:      -6.2      1.390      6.590
REMARK  Name = 
REMARK  4 active torsions:
REMARK  status: ('A' for Active; 'I' for Inactive)
REMARK    1  A    between atoms: C_1  and  C_2
REMARK    2  A    between atoms: C_2  and  C_3
REMARK    3  A    between atoms: C_2  and  N_4
REMARK    4  A    between atoms: C_8  and  C_9
REMARK                            x       y       z     vdW  Elec       q    Type
REMARK                         _______ _______ _______ _____ _____    ______ ____
ROOT
ATOM      1  N   UNL     1       3.234   4.483  18.537  0.00  0.00    +0.000 N 
ATOM      2  C   UNL     1       4.414   4.502  17.879  0.00  0.00    +0.000 A 
ATOM      3  N   UNL     1       5.616   4.703  18.361  0.00  0.00    +0.000 NA
ATOM      4  C   UNL     1       6.460   4.646  17.282  0.00  0.00    +0.000 A 
ATOM      5  C   UNL     1       5.769   4.434  16.104  0.00  0.00    +0.000 A 
ATOM      6  N   UNL     1       4.462   4.315  16.523  0.00  0.00    +0.000 N 
ATOM      7  H   UNL     1       2.365   4.400  18.023  0.00  0.00    +0.000 HD
ATOM      8  H   UNL     1       3.659   4.186  15.931  0.00  0.00    +0.000 HD
ENDROOT
BRANCH   5   9
ATOM      9  C   UNL     1       6.214   4.366  14.713  0.00  0.00    +0.000 A 
ATOM     10  C   UNL     1       5.571   3.545  13.776  0.00  0.00    +0.000 A 
ATOM     11  C   UNL     1       6.010   3.493  12.449  0.00  0.00    +0.000 A 
ATOM     12  C   UNL     1       7.101   4.261  12.042  0.00  0.00    +0.000 A 
ATOM     13  C   UNL     1       7.754   5.078  12.963  0.00  0.00    +0.000 A 
ATOM     14  C   UNL     1       7.314   5.130  14.287  0.00  0.00    +0.000 A 
ENDBRANCH   5   9
BRANCH   1  16
ATOM     15  C   UNL     1       2.639   6.674  19.420  0.00  0.00    +0.000 C 
ATOM     16  C   UNL     1       3.124   5.267  19.768  0.00  0.00    +0.000 C 
ATOM     17  C   UNL     1       2.140   4.592  20.721  0.00  0.00    +0.000 C 
ENDBRANCH   1  16
TORSDOF 2
ENDMDL
MODEL 6
REMARK VINA RESULT:      -6.1      1.507      6.432
REMARK  Name = 
REMARK  4 active torsions:
REMARK  status: ('A' for Active; 'I' for Inactive)
REMARK    1  A    between atoms: C_1  and  C_2
REMARK    2  A    between atoms: C_2  and  C_3
REMARK    3  A    between atoms: C_2  and  N_4
REMARK    4  A    between atoms: C_8  and  C_9
REMARK                            x       y       z     vdW  Elec       q    Type
REMARK                         _______ _______ _______ _____ _____    ______ ____
ROOT
ATOM      1  N   UNL     1       3.187   3.005  19.958  0.00  0.00    +0.000 N 
ATOM      2  C   UNL     1       3.920   3.866  19.219  0.00  0.00    +0.000 A 
ATOM      3  N   UNL     1       4.215   5.117  19.472  0.00  0.00    +0.000 NA
ATOM      4  C   UNL     1       4.955   5.546  18.402  0.00  0.00    +0.000 A 
ATOM      5  C   UNL     1       5.102   4.553  17.451  0.00  0.00    +0.000 A 
ATOM      6  N   UNL     1       4.452   3.478  18.017  0.00  0.00    +0.000 N 
ATOM      7  H   UNL     1       2.966   2.084  19.598  0.00  0.00    +0.000 HD
ATOM      8  H   UNL     1       4.322   2.574  17.594  0.00  0.00    +0.000 HD
ENDROOT
BRANCH   5   9
ATOM      9  C   UNL     1       5.738   4.552  16.135  0.00  0.00    +0.000 A 
ATOM     10  C   UNL     1       6.985   5.156  15.922  0.00  0.00    +0.000 A 
ATOM     11  C   UNL     1       7.580   5.144  14.656  0.00  0.00    +0.000 A 
ATOM     12  C   UNL     1       6.932   4.528  13.585  0.00  0.00    +0.000 A 
ATOM     13  C   UNL     1       5.690   3.927  13.780  0.00  0.00    +0.000 A 
ATOM     14  C   UNL     1       5.099   3.939  15.044  0.00  0.00    +0.000 A 
ENDBRANCH   5   9
BRANCH   1  16
ATOM     15  C   UNL     1       0.944   3.954  20.001  0.00  0.00    +0.000 C 
ATOM     16  C   UNL     1       2.160   3.562  20.840  0.00  0.00    +0.000 C 
ATOM     17  C   UNL     1       1.764   2.525  21.887  0.00  0.00    +0.000 C 
ENDBRANCH   1  16
TORSDOF 2
ENDMDL
MODEL 7
REMARK VINA RESULT:      -6.1      1.529      6.642
REMARK  Name = 
REMARK  4 active torsions:
REMARK  status: ('A' for Active; 'I' for Inactive)
REMARK    1  A    between atoms: C_1  and  C_2
REMARK    2  A    between atoms: C_2  and  C_3
REMARK    3  A    between atoms: C_2  and  N_4
REMARK    4  A    between atoms: C_8  and  C_9
REMARK                            x       y       z     vdW  Elec       q    Type
REMARK                         _______ _______ _______ _____ _____    ______ ____
ROOT
ATOM      1  N   UNL     1       3.259   4.742  18.438  0.00  0.00    +0.000 N 
ATOM      2  C   UNL     1       4.442   4.738  17.785  0.00  0.00    +0.000 A 
ATOM      3  N   UNL     1       5.641   4.966  18.262  0.00  0.00    +0.000 NA
ATOM      4  C   UNL     1       6.490   4.867  17.192  0.00  0.00    +0.000 A 
ATOM      5  C   UNL     1       5.806   4.598  16.020  0.00  0.00    +0.000 A 
ATOM      6  N   UNL     1       4.497   4.491  16.439  0.00  0.00    +0.000 N 
ATOM      7  H   UNL     1       2.393   4.631  17.923  0.00  0.00    +0.000 HD
ATOM      8  H   UNL     1       3.698   4.331  15.849  0.00  0.00    +0.000 HD
ENDROOT
BRANCH   5   9
ATOM      9  C   UNL     1       6.258   4.471  14.636  0.00  0.00    +0.000 A 
ATOM     10  C   UNL     1       7.365   5.185  14.157  0.00  0.00    +0.000 A 
ATOM     11  C   UNL     1       7.784   5.051  12.829  0.00  0.00    +0.000 A 
ATOM     12  C   UNL     1       7.098   4.201  11.962  0.00  0.00    +0.000 A 
ATOM     13  C   UNL     1       5.993   3.487  12.422  0.00  0.00    +0.000 A 
ATOM     14  C   UNL     1       5.576   3.622  13.747  0.00  0.00    +0.000 A 
ENDBRANCH   5   9
BRANCH   1  16
ATOM     15  C   UNL     1       2.601   6.950  19.226  0.00  0.00    +0.000 C 
ATOM     16  C   UNL     1       3.138   5.578  19.632  0.00  0.00    +0.000 C 
ATOM     17  C   UNL     1       2.191   4.917  20.630  0.00  0.00    +0.000 C 
ENDBRANCH   1  16
TORSDOF 2
ENDMDL
MODEL 8
REMARK VINA RESULT:      -6.1      1.474      1.668
REMARK  Name = 
REMARK  4 active torsions:
REMARK  status: ('A' for Active; 'I' for Inactive)
REMARK    1  A    between atoms: C_1  and  C_2
REMARK    2  A    between atoms: C_2  and  C_3
REMARK    3  A    between atoms: C_2  and  N_4
REMARK    4  A    between atoms: C_8  and  C_9
REMARK                            x       y       z     vdW  Elec       q    Type
REMARK                         _______ _______ _______ _____ _____    ______ ____
ROOT
ATOM      1  N   UNL     1       6.134   5.457  14.594  0.00  0.00    +0.000 N 
ATOM      2  C   UNL     1       5.963   5.177  15.904  0.00  0.00    +0.000 A 
ATOM      3  N   UNL     1       6.775   4.550  16.720  0.00  0.00    +0.000 NA
ATOM      4  C   UNL     1       6.125   4.505  17.926  0.00  0.00    +0.000 A 
ATOM      5  C   UNL     1       4.874   5.090  17.854  0.00  0.00    +0.000 A 
ATOM      6  N   UNL     1       4.811   5.538  16.552  0.00  0.00    +0.000 N 
ATOM      7  H   UNL     1       5.382   5.876  14.060  0.00  0.00    +0.000 HD
ATOM      8  H   UNL     1       4.025   5.993  16.119  0.00  0.00    +0.000 HD
ENDROOT
BRANCH   5   9
ATOM      9  C   UNL     1       3.803   5.224  18.840  0.00  0.00    +0.000 A 
ATOM     10  C   UNL     1       3.102   6.427  19.003  0.00  0.00    +0.000 A 
ATOM     11  C   UNL     1       2.080   6.537  19.952  0.00  0.00    +0.000 A 
ATOM     12  C   UNL     1       1.748   5.443  20.753  0.00  0.00    +0.000 A 
ATOM     13  C   UNL     1       2.440   4.243  20.605  0.00  0.00    +0.000 A 
ATOM     14  C   UNL     1       3.458   4.134  19.658  0.00  0.00    +0.000 A 
ENDBRANCH   5   9
BRANCH   1  16
ATOM     15  C   UNL     1       6.124   3.655  12.955  0.00  0.00    +0.000 C 
ATOM     16  C   UNL     1       6.997   4.571  13.811  0.00  0.00    +0.000 C 
ATOM     17  C   UNL     1       7.916   5.404  12.921  0.00  0.00    +0.000 C 
ENDBRANCH   1  16
TORSDOF 2
ENDMDL
MODEL 9
REMARK VINA RESULT:      -6.1      1.151      1.556
REMARK  Name = 
REMARK  4 active torsions:
REMARK  status: ('A' for Active; 'I' for Inactive)
REMARK    1  A    between atoms: C_1  and  C_2
REMARK    2  A    between atoms: C_2  and  C_3
REMARK    3  A    between atoms: C_2  and  N_4
REMARK    4  A    between atoms: C_8  and  C_9
REMARK                            x       y       z     vdW  Elec       q    Type
REMARK                         _______ _______ _______ _____ _____    ______ ____
ROOT
ATOM      1  N   UNL     1       5.984   5.345  14.668  0.00  0.00    +0.000 N 
ATOM      2  C   UNL     1       5.759   4.998  15.954  0.00  0.00    +0.000 A 
ATOM      3  N   UNL     1       6.576   4.421  16.801  0.00  0.00    +0.000 NA
ATOM      4  C   UNL     1       5.859   4.265  17.959  0.00  0.00    +0.000 A 
ATOM      5  C   UNL     1       4.563   4.728  17.823  0.00  0.00    +0.000 A 
ATOM      6  N   UNL     1       4.539   5.220  16.536  0.00  0.00    +0.000 N 
ATOM      7  H   UNL     1       5.229   5.711  14.100  0.00  0.00    +0.000 HD
ATOM      8  H   UNL     1       3.740   5.612  16.066  0.00  0.00    +0.000 HD
ENDROOT
BRANCH   5   9
ATOM      9  C   UNL     1       3.425   4.718  18.740  0.00  0.00    +0.000 A 
ATOM     10  C   UNL     1       2.613   3.585  18.889  0.00  0.00    +0.000 A 
ATOM     11  C   UNL     1       1.528   3.593  19.772  0.00  0.00    +0.000 A 
ATOM     12  C   UNL     1       1.240   4.738  20.516  0.00  0.00    +0.000 A 
ATOM     13  C   UNL     1       2.035   5.873  20.375  0.00  0.00    +0.000 A 
ATOM     14  C   UNL     1       3.117   5.863  19.494  0.00  0.00    +0.000 A 
ENDBRANCH   5   9
BRANCH   1  16
ATOM     15  C   UNL     1       6.257   3.647  12.944  0.00  0.00    +0.000 C 
ATOM     16  C   UNL     1       6.979   4.580  13.916  0.00  0.00    +0.000 C 
ATOM     17  C   UNL     1       7.890   5.535  13.149  0.00  0.00    +0.000 C 
ENDBRANCH   1  16
TORSDOF 2
ENDMDL
