MODEL 1
REMARK VINA RESULT:      -8.2      0.000      0.000
REMARK  Name = 
REMARK  5 active torsions:
REMARK  status: ('A' for Active; 'I' for Inactive)
REMARK    1  A    between atoms: C_1  and  C_2
REMARK    2  A    between atoms: N_4  and  C_5
REMARK    3  A    between atoms: C_5  and  N_6
REMARK    4  A    between atoms: C_8  and  C_9
REMARK    5  A    between atoms: C_12  and  C_13
REMARK                            x       y       z     vdW  Elec       q    Type
REMARK                         _______ _______ _______ _____ _____    ______ ____
ROOT
ATOM      1  N   UNL     1       4.951   4.791  18.039  0.00  0.00    +0.000 N 
ATOM      2  C   UNL     1       4.524   5.881  18.717  0.00  0.00    +0.000 A 
ATOM      3  C   UNL     1       3.191   5.985  18.704  0.00  0.00    +0.000 A 
ATOM      4  C   UNL     1       2.740   4.817  17.884  0.00  0.00    +0.000 A 
ATOM      5  O   UNL     1       1.590   4.512  17.612  0.00  0.00    +0.000 OA
ATOM      6  O   UNL     1       3.867   4.122  17.482  0.00  0.00    +0.000 OA
ENDROOT
BRANCH   3   7
ATOM      7  C   UNL     1       2.370   7.034  19.298  0.00  0.00    +0.000 A 
ATOM      8  C   UNL     1       2.089   8.211  18.599  0.00  0.00    +0.000 A 
ATOM      9  C   UNL     1       1.320   9.227  19.181  0.00  0.00    +0.000 A 
ATOM     10  C   UNL     1       0.784   9.098  20.473  0.00  0.00    +0.000 A 
ATOM     11  C   UNL     1       1.062   7.905  21.161  0.00  0.00    +0.000 A 
ATOM     12  C   UNL     1       1.842   6.894  20.587  0.00  0.00    +0.000 A 
BRANCH  10  13
ATOM     13  C   UNL     1      -0.043  10.162  21.076  0.00  0.00    +0.000 A 
ATOM     14  C   UNL     1      -0.369  10.175  22.440  0.00  0.00    +0.000 A 
ATOM     15  C   UNL     1      -1.139  11.201  22.980  0.00  0.00    +0.000 A 
ATOM     16  C   UNL     1      -1.571  12.210  22.140  0.00  0.00    +0.000 A 
ATOM     17  N   UNL     1      -1.296  12.251  20.822  0.00  0.00    +0.000 NA
ATOM     18  C   UNL     1      -0.549  11.230  20.328  0.00  0.00    +0.000 A 
ENDBRANCH  10  13
ENDBRANCH   3   7
BRANCH   1  19
ATOM     19  C   UNL     1       6.261   4.377  17.635  0.00  0.00    +0.000 C 
BRANCH  19  23
ATOM     20  C   UNL     1       6.416   3.946  13.914  0.00  0.00    +0.000 C 
ATOM     21  C   UNL     1       6.713   4.552  15.255  0.00  0.00    +0.000 C 
ATOM     22  O   UNL     1       7.418   5.545  15.397  0.00  0.00    +0.000 OA
ATOM     23  N   UNL     1       6.119   3.898  16.298  0.00  0.00    +0.000 N 
ATOM     24  H   UNL     1       5.571   3.062  16.163  0.00  0.00    +0.000 HD
ENDBRANCH  19  23
ENDBRANCH   1  19
TORSDOF 4
ENDMDL
MODEL 2
REMARK VINA RESULT:      -8.2      1.587      2.411
REMARK  Name = 
REMARK  5 active torsions:
REMARK  status: ('A' for Active; 'I' for Inactive)
REMARK    1  A    between atoms: C_1  and  C_2
REMARK    2  A    between atoms: N_4  and  C_5
REMARK    3  A    between atoms: C_5  and  N_6
REMARK    4  A    between atoms: C_8  and  C_9
REMARK    5  A    between atoms: C_12  and  C_13
REMARK                            x       y       z     vdW  Elec       q    Type
REMARK                         _______ _______ _______ _____ _____    ______ ____
ROOT
ATOM      1  N   UNL     1       5.802   4.726  15.752  0.00  0.00    +0.000 N 
ATOM      2  C   UNL     1       5.263   5.810  16.357  0.00  0.00    +0.000 A 
ATOM      3  C   UNL     1       4.302   5.472  17.223  0.00  0.00    +0.000 A 
ATOM      4  C   UNL     1       4.221   3.980  17.117  0.00  0.00    +0.000 A 
ATOM      5  O   UNL     1       3.476   3.240  17.738  0.00  0.00    +0.000 OA
ATOM      6  O   UNL     1       5.155   3.572  16.181  0.00  0.00    +0.000 OA
ENDROOT
BRANCH   3   7
ATOM      7  C   UNL     1       3.478   6.358  18.037  0.00  0.00    +0.000 A 
ATOM      8  C   UNL     1       3.096   5.999  19.332  0.00  0.00    +0.000 A 
ATOM      9  C   UNL     1       2.285   6.841  20.103  0.00  0.00    +0.000 A 
ATOM     10  C   UNL     1       1.843   8.083  19.619  0.00  0.00    +0.000 A 
ATOM     11  C   UNL     1       2.244   8.441  18.321  0.00  0.00    +0.000 A 
ATOM     12  C   UNL     1       3.043   7.595  17.544  0.00  0.00    +0.000 A 
BRANCH  10  13
ATOM     13  C   UNL     1       1.004   8.979  20.442  0.00  0.00    +0.000 A 
ATOM     14  C   UNL     1       0.481   8.585  21.682  0.00  0.00    +0.000 A 
ATOM     15  C   UNL     1      -0.295   9.458  22.439  0.00  0.00    +0.000 A 
ATOM     16  C   UNL     1      -0.534  10.725  21.940  0.00  0.00    +0.000 A 
ATOM     17  N   UNL     1      -0.065  11.159  20.755  0.00  0.00    +0.000 NA
ATOM     18  C   UNL     1       0.682  10.279  20.039  0.00  0.00    +0.000 A 
ENDBRANCH  10  13
ENDBRANCH   3   7
BRANCH   1  19
ATOM     19  C   UNL     1       6.704   4.606  14.648  0.00  0.00    +0.000 C 
BRANCH  19  23
ATOM     20  C   UNL     1       5.731   2.492  11.708  0.00  0.00    +0.000 C 
ATOM     21  C   UNL     1       6.450   3.571  12.466  0.00  0.00    +0.000 C 
ATOM     22  O   UNL     1       7.236   4.349  11.934  0.00  0.00    +0.000 OA
ATOM     23  N   UNL     1       6.143   3.608  13.797  0.00  0.00    +0.000 N 
ATOM     24  H   UNL     1       5.521   2.937  14.221  0.00  0.00    +0.000 HD
ENDBRANCH  19  23
ENDBRANCH   1  19
TORSDOF 4
ENDMDL
MODEL 3
REMARK VINA RESULT:      -8.1      1.172      1.484
REMARK  Name = 
REMARK  5 active torsions:
REMARK  status: ('A' for Active; 'I' for Inactive)
REMARK    1  A    between atoms: C_1  and  C_2
REMARK    2  A    between atoms: N_4  and  C_5
REMARK    3  A    between atoms: C_5  and  N_6
REMARK    4  A    between atoms: C_8  and  C_9
REMARK    5  A    between atoms: C_12  and  C_13
REMARK                            x       y       z     vdW  Elec       q    Type
REMARK                         _______ _______ _______ _____ _____    ______ ____
ROOT
ATOM      1  N   UNL     1       5.555   4.493  16.642  0.00  0.00    +0.000 N 
ATOM      2  C   UNL     1       5.137   5.564  17.355  0.00  0.00    +0.000 A 
ATOM      3  C   UNL     1       3.888   5.407  17.805  0.00  0.00    +0.000 A 
ATOM      4  C   UNL     1       3.472   4.070  17.274  0.00  0.00    +0.000 A 
ATOM      5  O   UNL     1       2.400   3.514  17.445  0.00  0.00    +0.000 OA
ATOM      6  O   UNL     1       4.532   3.556  16.547  0.00  0.00    +0.000 OA
ENDROOT
BRANCH   3   7
ATOM      7  C   UNL     1       3.090   6.350  18.581  0.00  0.00    +0.000 A 
ATOM      8  C   UNL     1       2.803   7.626  18.089  0.00  0.00    +0.000 A 
ATOM      9  C   UNL     1       2.058   8.538  18.846  0.00  0.00    +0.000 A 
ATOM     10  C   UNL     1       1.552   8.204  20.114  0.00  0.00    +0.000 A 
ATOM     11  C   UNL     1       1.836   6.914  20.593  0.00  0.00    +0.000 A 
ATOM     12  C   UNL     1       2.592   6.006  19.844  0.00  0.00    +0.000 A 
BRANCH  10  13
ATOM     13  C   UNL     1       0.749   9.161  20.902  0.00  0.00    +0.000 A 
ATOM     14  C   UNL     1       0.173   8.819  22.133  0.00  0.00    +0.000 A 
ATOM     15  C   UNL     1      -0.567   9.749  22.858  0.00  0.00    +0.000 A 
ATOM     16  C   UNL     1      -0.715  11.021  22.336  0.00  0.00    +0.000 A 
ATOM     17  N   UNL     1      -0.191  11.407  21.158  0.00  0.00    +0.000 NA
ATOM     18  C   UNL     1       0.518  10.472  20.474  0.00  0.00    +0.000 A 
ENDBRANCH  10  13
ENDBRANCH   3   7
BRANCH   1  19
ATOM     19  C   UNL     1       6.717   4.288  15.830  0.00  0.00    +0.000 C 
BRANCH  19  23
ATOM     20  C   UNL     1       6.005   3.291  12.286  0.00  0.00    +0.000 C 
ATOM     21  C   UNL     1       6.627   4.065  13.414  0.00  0.00    +0.000 C 
ATOM     22  O   UNL     1       7.394   5.005  13.235  0.00  0.00    +0.000 OA
ATOM     23  N   UNL     1       6.253   3.627  14.654  0.00  0.00    +0.000 N 
ATOM     24  H   UNL     1       5.648   2.830  14.780  0.00  0.00    +0.000 HD
ENDBRANCH  19  23
ENDBRANCH   1  19
TORSDOF 4
ENDMDL
MODEL 4
REMARK VINA RESULT:      -8.1      1.137      1.780
REMARK  Name = 
REMARK  5 active torsions:
REMARK  status: ('A' for Active; 'I' for Inactive)
REMARK    1  A    between atoms: C_1  and  C_2
REMARK    2  A    between atoms: N_4  and  C_5
REMARK    3  A    between atoms: C_5  and  N_6
REMARK    4  A    between atoms: C_8  and  C_9
REMARK    5  A    between atoms: C_12  and  C_13
REMARK                            x       y       z     vdW  Elec       q    Type
REMARK                         _______ _______ _______ _____ _____    ______ ____
ROOT
ATOM      1  N   UNL     1       5.282   4.841  17.873  0.00  0.00    +0.000 N 
ATOM      2  C   UNL     1       4.814   6.090  18.101  0.00  0.00    +0.000 A 
ATOM      3  C   UNL     1       3.512   6.087  18.403  0.00  0.00    +0.000 A 
ATOM      4  C   UNL     1       3.120   4.644  18.324  0.00  0.00    +0.000 A 
ATOM      5  O   UNL     1       2.014   4.172  18.531  0.00  0.00    +0.000 OA
ATOM      6  O   UNL     1       4.245   3.919  17.975  0.00  0.00    +0.000 OA
ENDROOT
BRANCH   3   7
ATOM      7  C   UNL     1       2.655   7.234  18.682  0.00  0.00    +0.000 A 
ATOM      8  C   UNL     1       2.132   7.448  19.960  0.00  0.00    +0.000 A 
ATOM      9  C   UNL     1       1.290   8.537  20.220  0.00  0.00    +0.000 A 
ATOM     10  C   UNL     1       0.957   9.466  19.221  0.00  0.00    +0.000 A 
ATOM     11  C   UNL     1       1.499   9.249  17.943  0.00  0.00    +0.000 A 
ATOM     12  C   UNL     1       2.329   8.154  17.677  0.00  0.00    +0.000 A 
BRANCH  10  13
ATOM     13  C   UNL     1       0.085  10.624  19.502  0.00  0.00    +0.000 A 
ATOM     14  C   UNL     1      -1.035  10.928  18.715  0.00  0.00    +0.000 A 
ATOM     15  C   UNL     1      -1.845  12.020  19.016  0.00  0.00    +0.000 A 
ATOM     16  C   UNL     1      -1.520  12.795  20.114  0.00  0.00    +0.000 A 
ATOM     17  N   UNL     1      -0.455  12.558  20.904  0.00  0.00    +0.000 NA
ATOM     18  C   UNL     1       0.317  11.490  20.577  0.00  0.00    +0.000 A 
ENDBRANCH  10  13
ENDBRANCH   3   7
BRANCH   1  19
ATOM     19  C   UNL     1       6.531   4.376  17.351  0.00  0.00    +0.000 C 
BRANCH  19  23
ATOM     20  C   UNL     1       6.276   3.826  13.651  0.00  0.00    +0.000 C 
ATOM     21  C   UNL     1       6.725   4.468  14.932  0.00  0.00    +0.000 C 
ATOM     22  O   UNL     1       7.456   5.452  14.964  0.00  0.00    +0.000 OA
ATOM     23  N   UNL     1       6.238   3.858  16.054  0.00  0.00    +0.000 N 
ATOM     24  H   UNL     1       5.666   3.029  16.006  0.00  0.00    +0.000 HD
ENDBRANCH  19  23
ENDBRANCH   1  19
TORSDOF 4
ENDMDL
MODEL 5
REMARK VINA RESULT:      -8.1      0.972      1.166
REMARK  Name = 
REMARK  5 active torsions:
REMARK  status: ('A' for Active; 'I' for Inactive)
REMARK    1  A    between atoms: C_1  and  C_2
REMARK    2  A    between atoms: N_4  and  C_5
REMARK    3  A    between atoms: C_5  and  N_6
REMARK    4  A    between atoms: C_8  and  C_9
REMARK    5  A    between atoms: C_12  and  C_13
REMARK                            x       y       z     vdW  Elec       q    Type
REMARK                         _______ _______ _______ _____ _____    ______ ____
ROOT
ATOM      1  N   UNL     1       5.236   4.862  17.774  0.00  0.00    +0.000 N 
ATOM      2  C   UNL     1       4.795   6.107  18.066  0.00  0.00    +0.000 A 
ATOM      3  C   UNL     1       3.482   6.124  18.318  0.00  0.00    +0.000 A 
ATOM      4  C   UNL     1       3.053   4.702  18.130  0.00  0.00    +0.000 A 
ATOM      5  O   UNL     1       1.928   4.251  18.265  0.00  0.00    +0.000 OA
ATOM      6  O   UNL     1       4.172   3.967  17.776  0.00  0.00    +0.000 OA
ENDROOT
BRANCH   3   7
ATOM      7  C   UNL     1       2.647   7.277  18.640  0.00  0.00    +0.000 A 
ATOM      8  C   UNL     1       2.401   8.274  17.693  0.00  0.00    +0.000 A 
ATOM      9  C   UNL     1       1.619   9.391  18.012  0.00  0.00    +0.000 A 
ATOM     10  C   UNL     1       1.035   9.545  19.280  0.00  0.00    +0.000 A 
ATOM     11  C   UNL     1       1.279   8.530  20.220  0.00  0.00    +0.000 A 
ATOM     12  C   UNL     1       2.071   7.419  19.908  0.00  0.00    +0.000 A 
BRANCH  10  13
ATOM     13  C   UNL     1       0.195  10.714  19.608  0.00  0.00    +0.000 A 
ATOM     14  C   UNL     1      -0.060  11.108  20.929  0.00  0.00    +0.000 A 
ATOM     15  C   UNL     1      -0.845  12.224  21.204  0.00  0.00    +0.000 A 
ATOM     16  C   UNL     1      -1.365  12.938  20.140  0.00  0.00    +0.000 A 
ATOM     17  N   UNL     1      -1.161  12.607  18.851  0.00  0.00    +0.000 NA
ATOM     18  C   UNL     1      -0.397  11.509  18.620  0.00  0.00    +0.000 A 
ENDBRANCH  10  13
ENDBRANCH   3   7
BRANCH   1  19
ATOM     19  C   UNL     1       6.492   4.394  17.270  0.00  0.00    +0.000 C 
BRANCH  19  23
ATOM     20  C   UNL     1       6.289   3.854  13.565  0.00  0.00    +0.000 C 
ATOM     21  C   UNL     1       6.721   4.492  14.854  0.00  0.00    +0.000 C 
ATOM     22  O   UNL     1       7.454   5.474  14.900  0.00  0.00    +0.000 OA
ATOM     23  N   UNL     1       6.217   3.880  15.967  0.00  0.00    +0.000 N 
ATOM     24  H   UNL     1       5.644   3.052  15.909  0.00  0.00    +0.000 HD
ENDBRANCH  19  23
ENDBRANCH   1  19
TORSDOF 4
ENDMDL
MODEL 6
REMARK VINA RESULT:      -8.0      0.763      1.264
REMARK  Name = 
REMARK  5 active torsions:
REMARK  status: ('A' for Active; 'I' for Inactive)
REMARK    1  A    between atoms: C_1  and  C_2
REMARK    2  A    between atoms: N_4  and  C_5
REMARK    3  A    between atoms: C_5  and  N_6
REMARK    4  A    between atoms: C_8  and  C_9
REMARK    5  A    between atoms: C_12  and  C_13
REMARK                            x       y       z     vdW  Elec       q    Type
REMARK                         _______ _______ _______ _____ _____    ______ ____
ROOT
ATOM      1  N   UNL     1       5.182   5.441  17.137  0.00  0.00    +0.000 N 
ATOM      2  C   UNL     1       4.694   6.527  17.779  0.00  0.00    +0.000 A 
ATOM      3  C   UNL     1       3.428   6.349  18.171  0.00  0.00    +0.000 A 
ATOM      4  C   UNL     1       3.082   4.978  17.679  0.00  0.00    +0.000 A 
ATOM      5  O   UNL     1       2.019   4.395  17.818  0.00  0.00    +0.000 OA
ATOM      6  O   UNL     1       4.193   4.468  17.030  0.00  0.00    +0.000 OA
ENDROOT
BRANCH   3   7
ATOM      7  C   UNL     1       2.563   7.298  18.863  0.00  0.00    +0.000 A 
ATOM      8  C   UNL     1       2.131   7.058  20.169  0.00  0.00    +0.000 A 
ATOM      9  C   UNL     1       1.281   7.959  20.823  0.00  0.00    +0.000 A 
ATOM     10  C   UNL     1       0.847   9.144  20.205  0.00  0.00    +0.000 A 
ATOM     11  C   UNL     1       1.298   9.381  18.896  0.00  0.00    +0.000 A 
ATOM     12  C   UNL     1       2.136   8.475  18.236  0.00  0.00    +0.000 A 
BRANCH  10  13
ATOM     13  C   UNL     1      -0.034  10.102  20.904  0.00  0.00    +0.000 A 
ATOM     14  C   UNL     1      -0.161  10.122  22.300  0.00  0.00    +0.000 A 
ATOM     15  C   UNL     1      -0.989  11.047  22.928  0.00  0.00    +0.000 A 
ATOM     16  C   UNL     1      -1.681  11.950  22.141  0.00  0.00    +0.000 A 
ATOM     17  N   UNL     1      -1.604  11.977  20.797  0.00  0.00    +0.000 NA
ATOM     18  C   UNL     1      -0.793  11.055  20.218  0.00  0.00    +0.000 A 
ENDBRANCH  10  13
ENDBRANCH   3   7
BRANCH   1  19
ATOM     19  C   UNL     1       6.390   5.240  16.396  0.00  0.00    +0.000 C 
BRANCH  19  23
ATOM     20  C   UNL     1       6.089   3.614  13.030  0.00  0.00    +0.000 C 
ATOM     21  C   UNL     1       6.616   4.553  14.077  0.00  0.00    +0.000 C 
ATOM     22  O   UNL     1       7.481   5.391  13.847  0.00  0.00    +0.000 OA
ATOM     23  N   UNL     1       6.036   4.391  15.304  0.00  0.00    +0.000 N 
ATOM     24  H   UNL     1       5.350   3.673  15.481  0.00  0.00    +0.000 HD
ENDBRANCH  19  23
ENDBRANCH   1  19
TORSDOF 4
ENDMDL
MODEL 7
REMARK VINA RESULT:      -8.0      1.133      1.617
REMARK  Name = 
REMARK  5 active torsions:
REMARK  status: ('A' for Active; 'I' for Inactive)
REMARK    1  A    between atoms: C_1  and  C_2
REMARK    2  A    between atoms: N_4  and  C_5
REMARK    3  A    between atoms: C_5  and  N_6
REMARK    4  A    between atoms: C_8  and  C_9
REMARK    5  A    between atoms: C_12  and  C_13
REMARK                            x       y       z     vdW  Elec       q    Type
REMARK                         _______ _______ _______ _____ _____    ______ ____
ROOT
ATOM      1  N   UNL     1       5.151   4.867  18.151  0.00  0.00    +0.000 N 
ATOM      2  C   UNL     1       4.693   6.127  18.332  0.00  0.00    +0.000 A 
ATOM      3  C   UNL     1       3.384   6.147  18.605  0.00  0.00    +0.000 A 
ATOM      4  C   UNL     1       2.977   4.708  18.559  0.00  0.00    +0.000 A 
ATOM      5  O   UNL     1       1.862   4.254  18.755  0.00  0.00    +0.000 OA
ATOM      6  O   UNL     1       4.102   3.960  18.256  0.00  0.00    +0.000 OA
ENDROOT
BRANCH   3   7
ATOM      7  C   UNL     1       2.535   7.312  18.832  0.00  0.00    +0.000 A 
ATOM      8  C   UNL     1       1.996   7.574  20.094  0.00  0.00    +0.000 A 
ATOM      9  C   UNL     1       1.161   8.680  20.304  0.00  0.00    +0.000 A 
ATOM     10  C   UNL     1       0.852   9.576  19.268  0.00  0.00    +0.000 A 
ATOM     11  C   UNL     1       1.410   9.310  18.007  0.00  0.00    +0.000 A 
ATOM     12  C   UNL     1       2.233   8.199  17.791  0.00  0.00    +0.000 A 
BRANCH  10  13
ATOM     13  C   UNL     1      -0.013  10.752  19.497  0.00  0.00    +0.000 A 
ATOM     14  C   UNL     1       0.113  11.565  20.633  0.00  0.00    +0.000 A 
ATOM     15  C   UNL     1      -0.708  12.674  20.811  0.00  0.00    +0.000 A 
ATOM     16  C   UNL     1      -1.649  12.958  19.839  0.00  0.00    +0.000 A 
ATOM     17  N   UNL     1      -1.821  12.214  18.730  0.00  0.00    +0.000 NA
ATOM     18  C   UNL     1      -1.008  11.135  18.592  0.00  0.00    +0.000 A 
ENDBRANCH  10  13
ENDBRANCH   3   7
BRANCH   1  19
ATOM     19  C   UNL     1       6.406   4.373  17.670  0.00  0.00    +0.000 C 
BRANCH  19  23
ATOM     20  C   UNL     1       6.266   3.960  13.946  0.00  0.00    +0.000 C 
ATOM     21  C   UNL     1       6.674   4.555  15.263  0.00  0.00    +0.000 C 
ATOM     22  O   UNL     1       7.402   5.537  15.354  0.00  0.00    +0.000 OA
ATOM     23  N   UNL     1       6.154   3.903  16.347  0.00  0.00    +0.000 N 
ATOM     24  H   UNL     1       5.586   3.076  16.251  0.00  0.00    +0.000 HD
ENDBRANCH  19  23
ENDBRANCH   1  19
TORSDOF 4
ENDMDL
MODEL 8
REMARK VINA RESULT:      -8.0      1.675      2.115
REMARK  Name = 
REMARK  5 active torsions:
REMARK  status: ('A' for Active; 'I' for Inactive)
REMARK    1  A    between atoms: C_1  and  C_2
REMARK    2  A    between atoms: N_4  and  C_5
REMARK    3  A    between atoms: C_5  and  N_6
REMARK    4  A    between atoms: C_8  and  C_9
REMARK    5  A    between atoms: C_12  and  C_13
REMARK                            x       y       z     vdW  Elec       q    Type
REMARK                         _______ _______ _______ _____ _____    ______ ____
ROOT
ATOM      1  N   UNL     1       5.163   4.860  16.000  0.00  0.00    +0.000 N 
ATOM      2  C   UNL     1       4.686   5.960  16.627  0.00  0.00    +0.000 A 
ATOM      3  C   UNL     1       3.757   5.651  17.537  0.00  0.00    +0.000 A 
ATOM      4  C   UNL     1       3.626   4.163  17.438  0.00  0.00    +0.000 A 
ATOM      5  O   UNL     1       2.890   3.445  18.095  0.00  0.00    +0.000 OA
ATOM      6  O   UNL     1       4.503   3.726  16.460  0.00  0.00    +0.000 OA
ENDROOT
BRANCH   3   7
ATOM      7  C   UNL     1       2.998   6.562  18.387  0.00  0.00    +0.000 A 
ATOM      8  C   UNL     1       2.580   7.808  17.914  0.00  0.00    +0.000 A 
ATOM      9  C   UNL     1       1.873   8.691  18.739  0.00  0.00    +0.000 A 
ATOM     10  C   UNL     1       1.538   8.355  20.062  0.00  0.00    +0.000 A 
ATOM     11  C   UNL     1       1.952   7.095  20.523  0.00  0.00    +0.000 A 
ATOM     12  C   UNL     1       2.671   6.216  19.704  0.00  0.00    +0.000 A 
BRANCH  10  13
ATOM     13  C   UNL     1       0.775   9.280  20.924  0.00  0.00    +0.000 A 
ATOM     14  C   UNL     1      -0.094  10.248  20.400  0.00  0.00    +0.000 A 
ATOM     15  C   UNL     1      -0.810  11.096  21.241  0.00  0.00    +0.000 A 
ATOM     16  C   UNL     1      -0.646  10.957  22.607  0.00  0.00    +0.000 A 
ATOM     17  N   UNL     1       0.177  10.051  23.170  0.00  0.00    +0.000 NA
ATOM     18  C   UNL     1       0.865   9.246  22.319  0.00  0.00    +0.000 A 
ENDBRANCH  10  13
ENDBRANCH   3   7
BRANCH   1  19
ATOM     19  C   UNL     1       6.010   4.713  14.854  0.00  0.00    +0.000 C 
BRANCH  19  23
ATOM     20  C   UNL     1       4.703   3.228  11.669  0.00  0.00    +0.000 C 
ATOM     21  C   UNL     1       5.722   3.715  12.659  0.00  0.00    +0.000 C 
ATOM     22  O   UNL     1       6.927   3.708  12.434  0.00  0.00    +0.000 OA
ATOM     23  N   UNL     1       5.179   4.170  13.828  0.00  0.00    +0.000 N 
ATOM     24  H   UNL     1       4.188   4.134  14.007  0.00  0.00    +0.000 HD
ENDBRANCH  19  23
ENDBRANCH   1  19
TORSDOF 4
ENDMDL
MODEL 9
REMARK VINA RESULT:      -7.9      2.046      3.236
REMARK  Name = 
REMARK  5 active torsions:
REMARK  status: ('A' for Active; 'I' for Inactive)
REMARK    1  A    between atoms: C_1  and  C_2
REMARK    2  A    between atoms: N_4  and  C_5
REMARK    3  A    between atoms: C_5  and  N_6
REMARK    4  A    between atoms: C_8  and  C_9
REMARK    5  A    between atoms: C_12  and  C_13
REMARK                            x       y       z     vdW  Elec       q    Type
REMARK                         _______ _______ _______ _____ _____    ______ ____
ROOT
ATOM      1  N   UNL     1       6.231   4.453  15.099  0.00  0.00    +0.000 N 
ATOM      2  C   UNL     1       5.198   5.243  15.471  0.00  0.00    +0.000 A 
ATOM      3  C   UNL     1       5.175   5.443  16.793  0.00  0.00    +0.000 A 
ATOM      4  C   UNL     1       6.334   4.647  17.306  0.00  0.00    +0.000 A 
ATOM      5  O   UNL     1       6.697   4.544  18.466  0.00  0.00    +0.000 OA
ATOM      6  O   UNL     1       6.942   4.040  16.221  0.00  0.00    +0.000 OA
ENDROOT
BRANCH   3   7
ATOM      7  C   UNL     1       4.203   6.210  17.565  0.00  0.00    +0.000 A 
ATOM      8  C   UNL     1       3.793   7.480  17.149  0.00  0.00    +0.000 A 
ATOM      9  C   UNL     1       2.878   8.224  17.904  0.00  0.00    +0.000 A 
ATOM     10  C   UNL     1       2.321   7.721  19.092  0.00  0.00    +0.000 A 
ATOM     11  C   UNL     1       2.731   6.438  19.494  0.00  0.00    +0.000 A 
ATOM     12  C   UNL     1       3.655   5.698  18.748  0.00  0.00    +0.000 A 
BRANCH  10  13
ATOM     13  C   UNL     1       1.342   8.500  19.876  0.00  0.00    +0.000 A 
ATOM     14  C   UNL     1       0.915   8.100  21.151  0.00  0.00    +0.000 A 
ATOM     15  C   UNL     1       0.000   8.864  21.870  0.00  0.00    +0.000 A 
ATOM     16  C   UNL     1      -0.473  10.031  21.298  0.00  0.00    +0.000 A 
ATOM     17  N   UNL     1      -0.105  10.464  20.078  0.00  0.00    +0.000 NA
ATOM     18  C   UNL     1       0.782   9.690  19.401  0.00  0.00    +0.000 A 
ENDBRANCH  10  13
ENDBRANCH   3   7
BRANCH   1  19
ATOM     19  C   UNL     1       6.547   3.829  13.850  0.00  0.00    +0.000 C 
BRANCH  19  23
ATOM     20  C   UNL     1       3.893   3.336  11.248  0.00  0.00    +0.000 C 
ATOM     21  C   UNL     1       5.175   3.087  11.988  0.00  0.00    +0.000 C 
ATOM     22  O   UNL     1       5.986   2.232  11.649  0.00  0.00    +0.000 OA
ATOM     23  N   UNL     1       5.355   3.905  13.069  0.00  0.00    +0.000 N 
ATOM     24  H   UNL     1       4.660   4.578  13.351  0.00  0.00    +0.000 HD
ENDBRANCH  19  23
ENDBRANCH   1  19
TORSDOF 4
ENDMDL
