MODEL 1
REMARK VINA RESULT:      -7.3      0.000      0.000
REMARK  Name = 
REMARK  3 active torsions:
REMARK  status: ('A' for Active; 'I' for Inactive)
REMARK    1  A    between atoms: C_1  and  C_2
REMARK    2  A    between atoms: C_2  and  O_3
REMARK    3  A    between atoms: O_3  and  C_4
REMARK                            x       y       z     vdW  Elec       q    Type
REMARK                         _______ _______ _______ _____ _____    ______ ____
ROOT
ATOM      1  C   UNL     1       6.206   6.059  16.416  0.00  0.00    +0.000 A 
ATOM      2  C   UNL     1       6.837   5.287  15.427  0.00  0.00    +0.000 A 
ATOM      3  C   UNL     1       6.406   4.000  15.130  0.00  0.00    +0.000 A 
ATOM      4  C   UNL     1       5.339   3.453  15.826  0.00  0.00    +0.000 A 
ATOM      5  C   UNL     1       4.706   4.197  16.835  0.00  0.00    +0.000 A 
ATOM      6  C   UNL     1       5.127   5.508  17.135  0.00  0.00    +0.000 A 
ATOM      7  C   UNL     1       4.469   6.244  18.289  0.00  0.00    +0.000 C 
ATOM      8  C   UNL     1       3.047   5.714  18.537  0.00  0.00    +0.000 C 
ATOM      9  C   UNL     1       2.295   6.466  19.659  0.00  0.00    +0.000 C 
ATOM     10  N   UNL     1       2.046   5.839  20.950  0.00  0.00    +0.000 NA
ATOM     11  C   UNL     1       2.210   4.401  21.049  0.00  0.00    +0.000 C 
ATOM     12  C   UNL     1       2.795   3.588  19.891  0.00  0.00    +0.000 C 
ATOM     13  N   UNL     1       3.038   4.262  18.633  0.00  0.00    +0.000 N 
ATOM     14  C   UNL     1       3.694   3.496  17.673  0.00  0.00    +0.000 C 
ATOM     15  O   UNL     1       3.561   2.279  17.587  0.00  0.00    +0.000 OA
ATOM     16  H   UNL     1       1.108   6.086  21.268  0.00  0.00    +0.000 HD
ENDROOT
BRANCH   1  17
ATOM     17  O   UNL     1       6.594   7.340  16.746  0.00  0.00    +0.000 OA
BRANCH  17  19
ATOM     18  C   UNL     1       8.056   8.908  17.866  0.00  0.00    +0.000 C 
ATOM     19  C   UNL     1       7.738   7.448  17.600  0.00  0.00    +0.000 C 
ENDBRANCH  17  19
ENDBRANCH   1  17
TORSDOF 2
ENDMDL
MODEL 2
REMARK VINA RESULT:      -6.9      2.192      5.130
REMARK  Name = 
REMARK  3 active torsions:
REMARK  status: ('A' for Active; 'I' for Inactive)
REMARK    1  A    between atoms: C_1  and  C_2
REMARK    2  A    between atoms: C_2  and  O_3
REMARK    3  A    between atoms: O_3  and  C_4
REMARK                            x       y       z     vdW  Elec       q    Type
REMARK                         _______ _______ _______ _____ _____    ______ ____
ROOT
ATOM      1  C   UNL     1       2.249   6.039  19.852  0.00  0.00    +0.000 A 
ATOM      2  C   UNL     1       1.230   5.247  20.405  0.00  0.00    +0.000 A 
ATOM      3  C   UNL     1       1.217   3.866  20.242  0.00  0.00    +0.000 A 
ATOM      4  C   UNL     1       2.221   3.251  19.510  0.00  0.00    +0.000 A 
ATOM      5  C   UNL     1       3.240   4.024  18.928  0.00  0.00    +0.000 A 
ATOM      6  C   UNL     1       3.268   5.422  19.099  0.00  0.00    +0.000 A 
ATOM      7  C   UNL     1       4.339   6.227  18.383  0.00  0.00    +0.000 C 
ATOM      8  C   UNL     1       5.580   5.364  18.109  0.00  0.00    +0.000 C 
ATOM      9  C   UNL     1       6.737   6.140  17.438  0.00  0.00    +0.000 C 
ATOM     10  N   UNL     1       7.084   5.918  16.041  0.00  0.00    +0.000 NA
ATOM     11  C   UNL     1       6.560   4.730  15.393  0.00  0.00    +0.000 C 
ATOM     12  C   UNL     1       5.536   3.831  16.092  0.00  0.00    +0.000 C 
ATOM     13  N   UNL     1       5.215   4.104  17.476  0.00  0.00    +0.000 N 
ATOM     14  C   UNL     1       4.180   3.336  18.002  0.00  0.00    +0.000 C 
ATOM     15  O   UNL     1       3.955   2.185  17.640  0.00  0.00    +0.000 OA
ATOM     16  H   UNL     1       8.099   5.926  15.942  0.00  0.00    +0.000 HD
ENDROOT
BRANCH   1  17
ATOM     17  O   UNL     1       2.307   7.409  19.987  0.00  0.00    +0.000 OA
BRANCH  17  19
ATOM     18  C   UNL     1       0.834   9.276  20.429  0.00  0.00    +0.000 C 
ATOM     19  C   UNL     1       1.424   7.982  20.958  0.00  0.00    +0.000 C 
ENDBRANCH  17  19
ENDBRANCH   1  17
TORSDOF 2
ENDMDL
MODEL 3
REMARK VINA RESULT:      -6.9      2.032      3.669
REMARK  Name = 
REMARK  3 active torsions:
REMARK  status: ('A' for Active; 'I' for Inactive)
REMARK    1  A    between atoms: C_1  and  C_2
REMARK    2  A    between atoms: C_2  and  O_3
REMARK    3  A    between atoms: O_3  and  C_4
REMARK                            x       y       z     vdW  Elec       q    Type
REMARK                         _______ _______ _______ _____ _____    ______ ____
ROOT
ATOM      1  C   UNL     1       6.129   4.666  16.089  0.00  0.00    +0.000 A 
ATOM      2  C   UNL     1       6.822   5.889  16.116  0.00  0.00    +0.000 A 
ATOM      3  C   UNL     1       6.574   6.839  17.099  0.00  0.00    +0.000 A 
ATOM      4  C   UNL     1       5.616   6.591  18.070  0.00  0.00    +0.000 A 
ATOM      5  C   UNL     1       4.894   5.386  18.051  0.00  0.00    +0.000 A 
ATOM      6  C   UNL     1       5.148   4.410  17.066  0.00  0.00    +0.000 A 
ATOM      7  C   UNL     1       4.287   3.160  17.033  0.00  0.00    +0.000 C 
ATOM      8  C   UNL     1       3.712   2.855  18.426  0.00  0.00    +0.000 C 
ATOM      9  C   UNL     1       2.876   1.555  18.477  0.00  0.00    +0.000 C 
ATOM     10  N   UNL     1       1.426   1.597  18.610  0.00  0.00    +0.000 NA
ATOM     11  C   UNL     1       0.819   2.845  19.030  0.00  0.00    +0.000 C 
ATOM     12  C   UNL     1       1.647   4.126  19.160  0.00  0.00    +0.000 C 
ATOM     13  N   UNL     1       3.083   4.034  19.004  0.00  0.00    +0.000 N 
ATOM     14  C   UNL     1       3.754   5.253  18.999  0.00  0.00    +0.000 C 
ATOM     15  O   UNL     1       3.368   6.228  19.638  0.00  0.00    +0.000 OA
ATOM     16  H   UNL     1       1.125   0.855  19.243  0.00  0.00    +0.000 HD
ENDROOT
BRANCH   1  17
ATOM     17  O   UNL     1       6.341   3.692  15.138  0.00  0.00    +0.000 OA
BRANCH  17  19
ATOM     18  C   UNL     1       5.589   3.472  12.849  0.00  0.00    +0.000 C 
ATOM     19  C   UNL     1       6.553   4.157  13.800  0.00  0.00    +0.000 C 
ENDBRANCH  17  19
ENDBRANCH   1  17
TORSDOF 2
ENDMDL
MODEL 4
REMARK VINA RESULT:      -6.7      1.239      1.345
REMARK  Name = 
REMARK  3 active torsions:
REMARK  status: ('A' for Active; 'I' for Inactive)
REMARK    1  A    between atoms: C_1  and  C_2
REMARK    2  A    between atoms: C_2  and  O_3
REMARK    3  A    between atoms: O_3  and  C_4
REMARK                            x       y       z     vdW  Elec       q    Type
REMARK                         _______ _______ _______ _____ _____    ______ ____
ROOT
ATOM      1  C   UNL     1       6.028   5.688  17.560  0.00  0.00    +0.000 A 
ATOM      2  C   UNL     1       6.470   5.514  16.238  0.00  0.00    +0.000 A 
ATOM      3  C   UNL     1       5.749   4.749  15.328  0.00  0.00    +0.000 A 
ATOM      4  C   UNL     1       4.575   4.130  15.729  0.00  0.00    +0.000 A 
ATOM      5  C   UNL     1       4.123   4.271  17.052  0.00  0.00    +0.000 A 
ATOM      6  C   UNL     1       4.840   5.055  17.977  0.00  0.00    +0.000 A 
ATOM      7  C   UNL     1       4.362   5.112  19.417  0.00  0.00    +0.000 C 
ATOM      8  C   UNL     1       2.852   4.835  19.503  0.00  0.00    +0.000 C 
ATOM      9  C   UNL     1       2.286   4.941  20.938  0.00  0.00    +0.000 C 
ATOM     10  N   UNL     1       1.879   3.753  21.677  0.00  0.00    +0.000 NA
ATOM     11  C   UNL     1       1.696   2.522  20.933  0.00  0.00    +0.000 C 
ATOM     12  C   UNL     1       2.085   2.421  19.456  0.00  0.00    +0.000 C 
ATOM     13  N   UNL     1       2.497   3.628  18.771  0.00  0.00    +0.000 N 
ATOM     14  C   UNL     1       2.964   3.437  17.474  0.00  0.00    +0.000 C 
ATOM     15  O   UNL     1       2.547   2.547  16.739  0.00  0.00    +0.000 OA
ATOM     16  H   UNL     1       1.023   3.956  22.194  0.00  0.00    +0.000 HD
ENDROOT
BRANCH   1  17
ATOM     17  O   UNL     1       6.705   6.438  18.496  0.00  0.00    +0.000 OA
BRANCH  17  19
ATOM     18  C   UNL     1       7.823   8.465  17.796  0.00  0.00    +0.000 C 
ATOM     19  C   UNL     1       7.962   6.981  18.076  0.00  0.00    +0.000 C 
ENDBRANCH  17  19
ENDBRANCH   1  17
TORSDOF 2
ENDMDL
MODEL 5
REMARK VINA RESULT:      -6.7      2.282      3.656
REMARK  Name = 
REMARK  3 active torsions:
REMARK  status: ('A' for Active; 'I' for Inactive)
REMARK    1  A    between atoms: C_1  and  C_2
REMARK    2  A    between atoms: C_2  and  O_3
REMARK    3  A    between atoms: O_3  and  C_4
REMARK                            x       y       z     vdW  Elec       q    Type
REMARK                         _______ _______ _______ _____ _____    ______ ____
ROOT
ATOM      1  C   UNL     1       5.679   4.261  15.137  0.00  0.00    +0.000 A 
ATOM      2  C   UNL     1       6.990   4.760  15.052  0.00  0.00    +0.000 A 
ATOM      3  C   UNL     1       7.733   5.040  16.193  0.00  0.00    +0.000 A 
ATOM      4  C   UNL     1       7.173   4.838  17.445  0.00  0.00    +0.000 A 
ATOM      5  C   UNL     1       5.857   4.362  17.556  0.00  0.00    +0.000 A 
ATOM      6  C   UNL     1       5.100   4.062  16.406  0.00  0.00    +0.000 A 
ATOM      7  C   UNL     1       3.654   3.629  16.571  0.00  0.00    +0.000 C 
ATOM      8  C   UNL     1       3.430   2.981  17.947  0.00  0.00    +0.000 C 
ATOM      9  C   UNL     1       1.991   2.459  18.156  0.00  0.00    +0.000 C 
ATOM     10  N   UNL     1       1.067   3.135  19.056  0.00  0.00    +0.000 NA
ATOM     11  C   UNL     1       1.616   4.092  19.998  0.00  0.00    +0.000 C 
ATOM     12  C   UNL     1       3.087   4.512  19.936  0.00  0.00    +0.000 C 
ATOM     13  N   UNL     1       3.961   3.818  19.014  0.00  0.00    +0.000 N 
ATOM     14  C   UNL     1       5.246   4.343  18.914  0.00  0.00    +0.000 C 
ATOM     15  O   UNL     1       5.819   4.886  19.854  0.00  0.00    +0.000 OA
ATOM     16  H   UNL     1       0.528   2.438  19.572  0.00  0.00    +0.000 HD
ENDROOT
BRANCH   1  17
ATOM     17  O   UNL     1       4.904   3.966  14.038  0.00  0.00    +0.000 OA
BRANCH  17  19
ATOM     18  C   UNL     1       4.637   3.271  11.736  0.00  0.00    +0.000 C 
ATOM     19  C   UNL     1       5.614   3.585  12.853  0.00  0.00    +0.000 C 
ENDBRANCH  17  19
ENDBRANCH   1  17
TORSDOF 2
ENDMDL
MODEL 6
REMARK VINA RESULT:      -6.7      2.961      5.340
REMARK  Name = 
REMARK  3 active torsions:
REMARK  status: ('A' for Active; 'I' for Inactive)
REMARK    1  A    between atoms: C_1  and  C_2
REMARK    2  A    between atoms: C_2  and  O_3
REMARK    3  A    between atoms: O_3  and  C_4
REMARK                            x       y       z     vdW  Elec       q    Type
REMARK                         _______ _______ _______ _____ _____    ______ ____
ROOT
ATOM      1  C   UNL     1       1.436   8.172  20.163  0.00  0.00    +0.000 A 
ATOM      2  C   UNL     1       1.510   9.307  19.338  0.00  0.00    +0.000 A 
ATOM      3  C   UNL     1       2.098   9.250  18.080  0.00  0.00    +0.000 A 
ATOM      4  C   UNL     1       2.636   8.056  17.626  0.00  0.00    +0.000 A 
ATOM      5  C   UNL     1       2.594   6.912  18.441  0.00  0.00    +0.000 A 
ATOM      6  C   UNL     1       1.988   6.957  19.712  0.00  0.00    +0.000 A 
ATOM      7  C   UNL     1       2.039   5.721  20.593  0.00  0.00    +0.000 C 
ATOM      8  C   UNL     1       2.172   4.448  19.743  0.00  0.00    +0.000 C 
ATOM      9  C   UNL     1       2.165   3.145  20.575  0.00  0.00    +0.000 C 
ATOM     10  N   UNL     1       3.379   2.360  20.757  0.00  0.00    +0.000 NA
ATOM     11  C   UNL     1       4.499   2.631  19.877  0.00  0.00    +0.000 C 
ATOM     12  C   UNL     1       4.479   3.816  18.907  0.00  0.00    +0.000 C 
ATOM     13  N   UNL     1       3.253   4.574  18.775  0.00  0.00    +0.000 N 
ATOM     14  C   UNL     1       3.349   5.714  17.982  0.00  0.00    +0.000 C 
ATOM     15  O   UNL     1       4.109   5.796  17.023  0.00  0.00    +0.000 OA
ATOM     16  H   UNL     1       3.148   1.368  20.701  0.00  0.00    +0.000 HD
ENDROOT
BRANCH   1  17
ATOM     17  O   UNL     1       0.861   8.177  21.415  0.00  0.00    +0.000 OA
BRANCH  17  19
ATOM     18  C   UNL     1      -0.094   9.546  23.166  0.00  0.00    +0.000 C 
ATOM     19  C   UNL     1       1.053   9.367  22.189  0.00  0.00    +0.000 C 
ENDBRANCH  17  19
ENDBRANCH   1  17
TORSDOF 2
ENDMDL
MODEL 7
REMARK VINA RESULT:      -6.5      1.973      3.567
REMARK  Name = 
REMARK  3 active torsions:
REMARK  status: ('A' for Active; 'I' for Inactive)
REMARK    1  A    between atoms: C_1  and  C_2
REMARK    2  A    between atoms: C_2  and  O_3
REMARK    3  A    between atoms: O_3  and  C_4
REMARK                            x       y       z     vdW  Elec       q    Type
REMARK                         _______ _______ _______ _____ _____    ______ ____
ROOT
ATOM      1  C   UNL     1       5.007   4.981  16.313  0.00  0.00    +0.000 A 
ATOM      2  C   UNL     1       5.192   6.231  15.698  0.00  0.00    +0.000 A 
ATOM      3  C   UNL     1       4.725   7.401  16.284  0.00  0.00    +0.000 A 
ATOM      4  C   UNL     1       4.051   7.344  17.493  0.00  0.00    +0.000 A 
ATOM      5  C   UNL     1       3.834   6.104  18.117  0.00  0.00    +0.000 A 
ATOM      6  C   UNL     1       4.315   4.913  17.538  0.00  0.00    +0.000 A 
ATOM      7  C   UNL     1       3.986   3.588  18.203  0.00  0.00    +0.000 C 
ATOM      8  C   UNL     1       3.735   3.779  19.708  0.00  0.00    +0.000 C 
ATOM      9  C   UNL     1       3.457   2.457  20.459  0.00  0.00    +0.000 C 
ATOM     10  N   UNL     1       2.123   2.133  20.947  0.00  0.00    +0.000 NA
ATOM     11  C   UNL     1       1.148   3.205  21.016  0.00  0.00    +0.000 C 
ATOM     12  C   UNL     1       1.447   4.589  20.434  0.00  0.00    +0.000 C 
ATOM     13  N   UNL     1       2.785   4.855  19.949  0.00  0.00    +0.000 N 
ATOM     14  C   UNL     1       2.946   6.082  19.312  0.00  0.00    +0.000 C 
ATOM     15  O   UNL     1       2.303   7.081  19.619  0.00  0.00    +0.000 OA
ATOM     16  H   UNL     1       2.197   1.696  21.866  0.00  0.00    +0.000 HD
ENDROOT
BRANCH   1  17
ATOM     17  O   UNL     1       5.453   3.794  15.774  0.00  0.00    +0.000 OA
BRANCH  17  19
ATOM     18  C   UNL     1       5.886   3.680  13.397  0.00  0.00    +0.000 C 
ATOM     19  C   UNL     1       6.476   3.903  14.777  0.00  0.00    +0.000 C 
ENDBRANCH  17  19
ENDBRANCH   1  17
TORSDOF 2
ENDMDL
MODEL 8
REMARK VINA RESULT:      -6.5      3.502      6.058
REMARK  Name = 
REMARK  3 active torsions:
REMARK  status: ('A' for Active; 'I' for Inactive)
REMARK    1  A    between atoms: C_1  and  C_2
REMARK    2  A    between atoms: C_2  and  O_3
REMARK    3  A    between atoms: O_3  and  C_4
REMARK                            x       y       z     vdW  Elec       q    Type
REMARK                         _______ _______ _______ _____ _____    ______ ____
ROOT
ATOM      1  C   UNL     1       2.466   5.627  19.969  0.00  0.00    +0.000 A 
ATOM      2  C   UNL     1       3.216   5.055  18.927  0.00  0.00    +0.000 A 
ATOM      3  C   UNL     1       3.587   5.796  17.811  0.00  0.00    +0.000 A 
ATOM      4  C   UNL     1       3.204   7.124  17.709  0.00  0.00    +0.000 A 
ATOM      5  C   UNL     1       2.435   7.713  18.727  0.00  0.00    +0.000 A 
ATOM      6  C   UNL     1       2.065   6.974  19.868  0.00  0.00    +0.000 A 
ATOM      7  C   UNL     1       1.164   7.624  20.903  0.00  0.00    +0.000 C 
ATOM      8  C   UNL     1       1.311   9.154  20.873  0.00  0.00    +0.000 C 
ATOM      9  C   UNL     1       0.467   9.876  21.948  0.00  0.00    +0.000 C 
ATOM     10  N   UNL     1      -0.719  10.641  21.587  0.00  0.00    +0.000 NA
ATOM     11  C   UNL     1      -0.899  10.993  20.191  0.00  0.00    +0.000 C 
ATOM     12  C   UNL     1       0.024  10.434  19.105  0.00  0.00    +0.000 C 
ATOM     13  N   UNL     1       1.181   9.667  19.517  0.00  0.00    +0.000 N 
ATOM     14  C   UNL     1       1.896   9.078  18.478  0.00  0.00    +0.000 C 
ATOM     15  O   UNL     1       1.982   9.580  17.361  0.00  0.00    +0.000 OA
ATOM     16  H   UNL     1      -0.753  11.493  22.148  0.00  0.00    +0.000 HD
ENDROOT
BRANCH   1  17
ATOM     17  O   UNL     1       2.077   4.936  21.095  0.00  0.00    +0.000 OA
BRANCH  17  19
ATOM     18  C   UNL     1       1.852   2.596  21.665  0.00  0.00    +0.000 C 
ATOM     19  C   UNL     1       1.291   3.760  20.869  0.00  0.00    +0.000 C 
ENDBRANCH  17  19
ENDBRANCH   1  17
TORSDOF 2
ENDMDL
MODEL 9
REMARK VINA RESULT:      -6.5      2.204      4.974
REMARK  Name = 
REMARK  3 active torsions:
REMARK  status: ('A' for Active; 'I' for Inactive)
REMARK    1  A    between atoms: C_1  and  C_2
REMARK    2  A    between atoms: C_2  and  O_3
REMARK    3  A    between atoms: O_3  and  C_4
REMARK                            x       y       z     vdW  Elec       q    Type
REMARK                         _______ _______ _______ _____ _____    ______ ____
ROOT
ATOM      1  C   UNL     1       2.505   6.584  19.324  0.00  0.00    +0.000 A 
ATOM      2  C   UNL     1       1.506   5.925  20.060  0.00  0.00    +0.000 A 
ATOM      3  C   UNL     1       1.487   4.540  20.174  0.00  0.00    +0.000 A 
ATOM      4  C   UNL     1       2.462   3.784  19.542  0.00  0.00    +0.000 A 
ATOM      5  C   UNL     1       3.458   4.419  18.782  0.00  0.00    +0.000 A 
ATOM      6  C   UNL     1       3.494   5.823  18.671  0.00  0.00    +0.000 A 
ATOM      7  C   UNL     1       4.538   6.461  17.772  0.00  0.00    +0.000 C 
ATOM      8  C   UNL     1       5.768   5.551  17.629  0.00  0.00    +0.000 C 
ATOM      9  C   UNL     1       6.899   6.170  16.776  0.00  0.00    +0.000 C 
ATOM     10  N   UNL     1       7.193   5.673  15.439  0.00  0.00    +0.000 NA
ATOM     11  C   UNL     1       6.644   4.385  15.058  0.00  0.00    +0.000 C 
ATOM     12  C   UNL     1       5.647   3.651  15.957  0.00  0.00    +0.000 C 
ATOM     13  N   UNL     1       5.378   4.194  17.272  0.00  0.00    +0.000 N 
ATOM     14  C   UNL     1       4.363   3.553  17.977  0.00  0.00    +0.000 C 
ATOM     15  O   UNL     1       4.123   2.355  17.857  0.00  0.00    +0.000 OA
ATOM     16  H   UNL     1       8.204   5.654  15.302  0.00  0.00    +0.000 HD
ENDROOT
BRANCH   1  17
ATOM     17  O   UNL     1       2.569   7.953  19.183  0.00  0.00    +0.000 OA
BRANCH  17  19
ATOM     18  C   UNL     1       1.032   9.643  18.387  0.00  0.00    +0.000 C 
ATOM     19  C   UNL     1       1.948   8.493  18.011  0.00  0.00    +0.000 C 
ENDBRANCH  17  19
ENDBRANCH   1  17
TORSDOF 2
ENDMDL
