MODEL 1
REMARK VINA RESULT:      -9.2      0.000      0.000
REMARK  Name = 
REMARK  4 active torsions:
REMARK  status: ('A' for Active; 'I' for Inactive)
REMARK    1  A    between atoms: C_4  and  C_5
REMARK    2  A    between atoms: C_9  and  C_10
REMARK    3  A    between atoms: C_19  and  C_20
REMARK    4  A    between atoms: C_21  and  C_22
REMARK                            x       y       z     vdW  Elec       q    Type
REMARK                         _______ _______ _______ _____ _____    ______ ____
ROOT
ATOM      1  O   UNL     1       0.003   9.857  23.727  0.00  0.00    +0.000 OA
ATOM      2  C   UNL     1       0.185  10.057  22.526  0.00  0.00    +0.000 C 
ATOM      3  C   UNL     1       0.041  11.419  21.919  0.00  0.00    +0.000 C 
ATOM      4  C   UNL     1      -1.084  11.434  20.923  0.00  0.00    +0.000 C 
ATOM      5  N   UNL     1      -1.015  10.788  19.798  0.00  0.00    +0.000 NA
ATOM      6  C   UNL     1       0.100   9.984  19.451  0.00  0.00    +0.000 A 
ATOM      7  C   UNL     1       0.420   9.948  18.086  0.00  0.00    +0.000 A 
ATOM      8  C   UNL     1       1.434   9.119  17.583  0.00  0.00    +0.000 A 
ATOM      9  C   UNL     1       2.134   8.272  18.438  0.00  0.00    +0.000 A 
ATOM     10  C   UNL     1       1.805   8.257  19.795  0.00  0.00    +0.000 A 
ATOM     11  C   UNL     1       0.819   9.123  20.314  0.00  0.00    +0.000 A 
ATOM     12  N   UNL     1       0.619   9.053  21.708  0.00  0.00    +0.000 N 
ATOM     13  H   UNL     1       0.918   8.221  22.203  0.00  0.00    +0.000 HD
ENDROOT
BRANCH   4  14
ATOM     14  C   UNL     1      -2.324  12.207  21.267  0.00  0.00    +0.000 A 
ATOM     15  C   UNL     1      -2.998  12.951  20.287  0.00  0.00    +0.000 A 
ATOM     16  C   UNL     1      -4.133  13.694  20.613  0.00  0.00    +0.000 A 
ATOM     17  C   UNL     1      -4.590  13.728  21.927  0.00  0.00    +0.000 A 
ATOM     18  C   UNL     1      -3.922  13.013  22.933  0.00  0.00    +0.000 A 
ATOM     19  C   UNL     1      -2.794  12.237  22.589  0.00  0.00    +0.000 A 
BRANCH  18  20
ATOM     20  C   UNL     1      -4.386  13.105  24.367  0.00  0.00    +0.000 C 
ATOM     21  F   UNL     1      -5.638  13.632  24.497  0.00  0.00    +0.000 F 
ATOM     22  F   UNL     1      -4.428  11.894  24.986  0.00  0.00    +0.000 F 
ATOM     23  F   UNL     1      -3.576  13.892  25.128  0.00  0.00    +0.000 F 
ENDBRANCH  18  20
ENDBRANCH   4  14
BRANCH   9  24
ATOM     24  C   UNL     1       3.202   7.455  17.936  0.00  0.00    +0.000 C 
ATOM     25  C   UNL     1       4.123   6.783  17.544  0.00  0.00    +0.000 C 
BRANCH  25  26
ATOM     26  C   UNL     1       5.239   5.988  17.114  0.00  0.00    +0.000 A 
ATOM     27  C   UNL     1       5.327   5.572  15.783  0.00  0.00    +0.000 A 
ATOM     28  C   UNL     1       6.391   4.762  15.366  0.00  0.00    +0.000 A 
ATOM     29  C   UNL     1       7.369   4.373  16.282  0.00  0.00    +0.000 A 
ATOM     30  C   UNL     1       7.292   4.796  17.608  0.00  0.00    +0.000 A 
ATOM     31  C   UNL     1       6.231   5.601  18.024  0.00  0.00    +0.000 A 
ENDBRANCH  25  26
ENDBRANCH   9  24
TORSDOF 4
ENDMDL
MODEL 2
REMARK VINA RESULT:      -9.1      0.122      1.124
REMARK  Name = 
REMARK  4 active torsions:
REMARK  status: ('A' for Active; 'I' for Inactive)
REMARK    1  A    between atoms: C_4  and  C_5
REMARK    2  A    between atoms: C_9  and  C_10
REMARK    3  A    between atoms: C_19  and  C_20
REMARK    4  A    between atoms: C_21  and  C_22
REMARK                            x       y       z     vdW  Elec       q    Type
REMARK                         _______ _______ _______ _____ _____    ______ ____
ROOT
ATOM      1  O   UNL     1      -0.135   9.701  23.759  0.00  0.00    +0.000 OA
ATOM      2  C   UNL     1       0.102   9.946  22.577  0.00  0.00    +0.000 C 
ATOM      3  C   UNL     1       0.045  11.339  22.029  0.00  0.00    +0.000 C 
ATOM      4  C   UNL     1      -1.039  11.452  20.994  0.00  0.00    +0.000 C 
ATOM      5  N   UNL     1      -0.956  10.854  19.843  0.00  0.00    +0.000 NA
ATOM      6  C   UNL     1       0.134  10.015  19.500  0.00  0.00    +0.000 A 
ATOM      7  C   UNL     1       0.505  10.025  18.148  0.00  0.00    +0.000 A 
ATOM      8  C   UNL     1       1.498   9.171  17.645  0.00  0.00    +0.000 A 
ATOM      9  C   UNL     1       2.125   8.255  18.484  0.00  0.00    +0.000 A 
ATOM     10  C   UNL     1       1.743   8.195  19.826  0.00  0.00    +0.000 A 
ATOM     11  C   UNL     1       0.778   9.082  20.348  0.00  0.00    +0.000 A 
ATOM     12  N   UNL     1       0.521   8.960  21.730  0.00  0.00    +0.000 N 
ATOM     13  H   UNL     1       0.762   8.094  22.196  0.00  0.00    +0.000 HD
ENDROOT
BRANCH   4  14
ATOM     14  C   UNL     1      -2.254  12.267  21.327  0.00  0.00    +0.000 A 
ATOM     15  C   UNL     1      -2.833  13.113  20.369  0.00  0.00    +0.000 A 
ATOM     16  C   UNL     1      -3.945  13.893  20.688  0.00  0.00    +0.000 A 
ATOM     17  C   UNL     1      -4.472  13.862  21.976  0.00  0.00    +0.000 A 
ATOM     18  C   UNL     1      -3.898  13.045  22.961  0.00  0.00    +0.000 A 
ATOM     19  C   UNL     1      -2.795  12.233  22.622  0.00  0.00    +0.000 A 
BRANCH  18  20
ATOM     20  C   UNL     1      -4.436  13.064  24.372  0.00  0.00    +0.000 C 
ATOM     21  F   UNL     1      -4.499  11.826  24.943  0.00  0.00    +0.000 F 
ATOM     22  F   UNL     1      -3.682  13.821  25.214  0.00  0.00    +0.000 F 
ATOM     23  F   UNL     1      -5.701  13.564  24.442  0.00  0.00    +0.000 F 
ENDBRANCH  18  20
ENDBRANCH   4  14
BRANCH   9  24
ATOM     24  C   UNL     1       3.174   7.411  17.985  0.00  0.00    +0.000 C 
ATOM     25  C   UNL     1       4.080   6.722  17.588  0.00  0.00    +0.000 C 
BRANCH  25  26
ATOM     26  C   UNL     1       5.184   5.916  17.148  0.00  0.00    +0.000 A 
ATOM     27  C   UNL     1       6.182   5.546  18.054  0.00  0.00    +0.000 A 
ATOM     28  C   UNL     1       7.282   4.795  17.624  0.00  0.00    +0.000 A 
ATOM     29  C   UNL     1       7.380   4.410  16.287  0.00  0.00    +0.000 A 
ATOM     30  C   UNL     1       6.382   4.766  15.382  0.00  0.00    +0.000 A 
ATOM     31  C   UNL     1       5.286   5.517  15.810  0.00  0.00    +0.000 A 
ENDBRANCH  25  26
ENDBRANCH   9  24
TORSDOF 4
ENDMDL
MODEL 3
REMARK VINA RESULT:      -9.1      5.859     11.401
REMARK  Name = 
REMARK  4 active torsions:
REMARK  status: ('A' for Active; 'I' for Inactive)
REMARK    1  A    between atoms: C_4  and  C_5
REMARK    2  A    between atoms: C_9  and  C_10
REMARK    3  A    between atoms: C_19  and  C_20
REMARK    4  A    between atoms: C_21  and  C_22
REMARK                            x       y       z     vdW  Elec       q    Type
REMARK                         _______ _______ _______ _____ _____    ______ ____
ROOT
ATOM      1  O   UNL     1       2.829   4.561  20.730  0.00  0.00    +0.000 OA
ATOM      2  C   UNL     1       2.587   5.492  19.963  0.00  0.00    +0.000 C 
ATOM      3  C   UNL     1       2.616   5.321  18.475  0.00  0.00    +0.000 C 
ATOM      4  C   UNL     1       3.696   6.172  17.869  0.00  0.00    +0.000 C 
ATOM      5  N   UNL     1       3.624   7.469  17.857  0.00  0.00    +0.000 NA
ATOM      6  C   UNL     1       2.550   8.175  18.456  0.00  0.00    +0.000 A 
ATOM      7  C   UNL     1       2.178   9.368  17.818  0.00  0.00    +0.000 A 
ATOM      8  C   UNL     1       1.201  10.221  18.353  0.00  0.00    +0.000 A 
ATOM      9  C   UNL     1       0.593   9.916  19.567  0.00  0.00    +0.000 A 
ATOM     10  C   UNL     1       0.977   8.757  20.244  0.00  0.00    +0.000 A 
ATOM     11  C   UNL     1       1.925   7.870  19.689  0.00  0.00    +0.000 A 
ATOM     12  N   UNL     1       2.186   6.707  20.442  0.00  0.00    +0.000 N 
ATOM     13  H   UNL     1       1.963   6.704  21.430  0.00  0.00    +0.000 HD
ENDROOT
BRANCH   4  14
ATOM     14  C   UNL     1       4.896   5.485  17.285  0.00  0.00    +0.000 A 
ATOM     15  C   UNL     1       6.046   5.272  18.058  0.00  0.00    +0.000 A 
ATOM     16  C   UNL     1       7.172   4.660  17.506  0.00  0.00    +0.000 A 
ATOM     17  C   UNL     1       7.174   4.283  16.167  0.00  0.00    +0.000 A 
ATOM     18  C   UNL     1       6.046   4.506  15.362  0.00  0.00    +0.000 A 
ATOM     19  C   UNL     1       4.899   5.094  15.937  0.00  0.00    +0.000 A 
BRANCH  18  20
ATOM     20  C   UNL     1       6.077   4.151  13.894  0.00  0.00    +0.000 C 
ATOM     21  F   UNL     1       6.456   2.862  13.658  0.00  0.00    +0.000 F 
ATOM     22  F   UNL     1       4.867   4.298  13.290  0.00  0.00    +0.000 F 
ATOM     23  F   UNL     1       6.949   4.925  13.189  0.00  0.00    +0.000 F 
ENDBRANCH  18  20
ENDBRANCH   4  14
BRANCH   9  24
ATOM     24  C   UNL     1      -0.440  10.762  20.095  0.00  0.00    +0.000 C 
ATOM     25  C   UNL     1      -1.322  11.441  20.558  0.00  0.00    +0.000 C 
BRANCH  25  26
ATOM     26  C   UNL     1      -2.379  12.220  21.139  0.00  0.00    +0.000 A 
ATOM     27  C   UNL     1      -2.479  12.332  22.529  0.00  0.00    +0.000 A 
ATOM     28  C   UNL     1      -3.531  13.055  23.104  0.00  0.00    +0.000 A 
ATOM     29  C   UNL     1      -4.481  13.669  22.287  0.00  0.00    +0.000 A 
ATOM     30  C   UNL     1      -4.379  13.569  20.900  0.00  0.00    +0.000 A 
ATOM     31  C   UNL     1      -3.331  12.847  20.327  0.00  0.00    +0.000 A 
ENDBRANCH  25  26
ENDBRANCH   9  24
TORSDOF 4
ENDMDL
MODEL 4
REMARK VINA RESULT:      -8.9      5.572     11.049
REMARK  Name = 
REMARK  4 active torsions:
REMARK  status: ('A' for Active; 'I' for Inactive)
REMARK    1  A    between atoms: C_4  and  C_5
REMARK    2  A    between atoms: C_9  and  C_10
REMARK    3  A    between atoms: C_19  and  C_20
REMARK    4  A    between atoms: C_21  and  C_22
REMARK                            x       y       z     vdW  Elec       q    Type
REMARK                         _______ _______ _______ _____ _____    ______ ____
ROOT
ATOM      1  O   UNL     1       2.235   4.339  21.470  0.00  0.00    +0.000 OA
ATOM      2  C   UNL     1       1.928   5.310  20.779  0.00  0.00    +0.000 C 
ATOM      3  C   UNL     1       1.599   5.174  19.324  0.00  0.00    +0.000 C 
ATOM      4  C   UNL     1       2.600   5.920  18.487  0.00  0.00    +0.000 C 
ATOM      5  N   UNL     1       2.669   7.218  18.492  0.00  0.00    +0.000 NA
ATOM      6  C   UNL     1       1.843   8.019  19.321  0.00  0.00    +0.000 A 
ATOM      7  C   UNL     1       1.469   9.260  18.786  0.00  0.00    +0.000 A 
ATOM      8  C   UNL     1       0.739  10.198  19.530  0.00  0.00    +0.000 A 
ATOM      9  C   UNL     1       0.393   9.929  20.851  0.00  0.00    +0.000 A 
ATOM     10  C   UNL     1       0.792   8.718  21.421  0.00  0.00    +0.000 A 
ATOM     11  C   UNL     1       1.486   7.751  20.665  0.00  0.00    +0.000 A 
ATOM     12  N   UNL     1       1.782   6.547  21.337  0.00  0.00    +0.000 N 
ATOM     13  H   UNL     1       1.790   6.544  22.350  0.00  0.00    +0.000 HD
ENDROOT
BRANCH   4  14
ATOM     14  C   UNL     1       3.552   5.124  17.643  0.00  0.00    +0.000 A 
ATOM     15  C   UNL     1       3.179   3.875  17.127  0.00  0.00    +0.000 A 
ATOM     16  C   UNL     1       4.075   3.122  16.368  0.00  0.00    +0.000 A 
ATOM     17  C   UNL     1       5.365   3.592  16.143  0.00  0.00    +0.000 A 
ATOM     18  C   UNL     1       5.775   4.828  16.668  0.00  0.00    +0.000 A 
ATOM     19  C   UNL     1       4.852   5.599  17.406  0.00  0.00    +0.000 A 
BRANCH  18  20
ATOM     20  C   UNL     1       7.195   5.304  16.472  0.00  0.00    +0.000 C 
ATOM     21  F   UNL     1       8.105   4.604  17.209  0.00  0.00    +0.000 F 
ATOM     22  F   UNL     1       7.611   5.205  15.180  0.00  0.00    +0.000 F 
ATOM     23  F   UNL     1       7.361   6.608  16.826  0.00  0.00    +0.000 F 
ENDBRANCH  18  20
ENDBRANCH   4  14
BRANCH   9  24
ATOM     24  C   UNL     1      -0.393  10.867  21.602  0.00  0.00    +0.000 C 
ATOM     25  C   UNL     1      -1.037  11.640  22.266  0.00  0.00    +0.000 C 
BRANCH  25  26
ATOM     26  C   UNL     1      -1.777  12.554  23.090  0.00  0.00    +0.000 A 
ATOM     27  C   UNL     1      -3.069  12.225  23.510  0.00  0.00    +0.000 A 
ATOM     28  C   UNL     1      -3.812  13.128  24.279  0.00  0.00    +0.000 A 
ATOM     29  C   UNL     1      -3.260  14.360  24.631  0.00  0.00    +0.000 A 
ATOM     30  C   UNL     1      -1.968  14.688  24.224  0.00  0.00    +0.000 A 
ATOM     31  C   UNL     1      -1.227  13.789  23.456  0.00  0.00    +0.000 A 
ENDBRANCH  25  26
ENDBRANCH   9  24
TORSDOF 4
ENDMDL
MODEL 5
REMARK VINA RESULT:      -8.9      5.575     11.064
REMARK  Name = 
REMARK  4 active torsions:
REMARK  status: ('A' for Active; 'I' for Inactive)
REMARK    1  A    between atoms: C_4  and  C_5
REMARK    2  A    between atoms: C_9  and  C_10
REMARK    3  A    between atoms: C_19  and  C_20
REMARK    4  A    between atoms: C_21  and  C_22
REMARK                            x       y       z     vdW  Elec       q    Type
REMARK                         _______ _______ _______ _____ _____    ______ ____
ROOT
ATOM      1  O   UNL     1       2.239   4.323  21.471  0.00  0.00    +0.000 OA
ATOM      2  C   UNL     1       1.937   5.306  20.795  0.00  0.00    +0.000 C 
ATOM      3  C   UNL     1       1.586   5.191  19.343  0.00  0.00    +0.000 C 
ATOM      4  C   UNL     1       2.586   5.930  18.500  0.00  0.00    +0.000 C 
ATOM      5  N   UNL     1       2.675   7.227  18.519  0.00  0.00    +0.000 NA
ATOM      6  C   UNL     1       1.874   8.031  19.368  0.00  0.00    +0.000 A 
ATOM      7  C   UNL     1       1.511   9.284  18.851  0.00  0.00    +0.000 A 
ATOM      8  C   UNL     1       0.805  10.225  19.615  0.00  0.00    +0.000 A 
ATOM      9  C   UNL     1       0.474   9.947  20.938  0.00  0.00    +0.000 A 
ATOM     10  C   UNL     1       0.862   8.724  21.489  0.00  0.00    +0.000 A 
ATOM     11  C   UNL     1       1.531   7.754  20.713  0.00  0.00    +0.000 A 
ATOM     12  N   UNL     1       1.817   6.539  21.368  0.00  0.00    +0.000 N 
ATOM     13  H   UNL     1       1.840   6.525  22.381  0.00  0.00    +0.000 HD
ENDROOT
BRANCH   4  14
ATOM     14  C   UNL     1       3.515   5.129  17.635  0.00  0.00    +0.000 A 
ATOM     15  C   UNL     1       3.130   3.873  17.145  0.00  0.00    +0.000 A 
ATOM     16  C   UNL     1       4.005   3.116  16.365  0.00  0.00    +0.000 A 
ATOM     17  C   UNL     1       5.285   3.589  16.093  0.00  0.00    +0.000 A 
ATOM     18  C   UNL     1       5.706   4.832  16.592  0.00  0.00    +0.000 A 
ATOM     19  C   UNL     1       4.804   5.607  17.351  0.00  0.00    +0.000 A 
BRANCH  18  20
ATOM     20  C   UNL     1       7.117   5.311  16.346  0.00  0.00    +0.000 C 
ATOM     21  F   UNL     1       7.463   5.317  15.026  0.00  0.00    +0.000 F 
ATOM     22  F   UNL     1       7.328   6.580  16.789  0.00  0.00    +0.000 F 
ATOM     23  F   UNL     1       8.047   4.533  16.966  0.00  0.00    +0.000 F 
ENDBRANCH  18  20
ENDBRANCH   4  14
BRANCH   9  24
ATOM     24  C   UNL     1      -0.287  10.888  21.709  0.00  0.00    +0.000 C 
ATOM     25  C   UNL     1      -0.960  11.664  22.341  0.00  0.00    +0.000 C 
BRANCH  25  26
ATOM     26  C   UNL     1      -1.795  12.564  23.086  0.00  0.00    +0.000 A 
ATOM     27  C   UNL     1      -1.304  13.814  23.471  0.00  0.00    +0.000 A 
ATOM     28  C   UNL     1      -2.098  14.680  24.233  0.00  0.00    +0.000 A 
ATOM     29  C   UNL     1      -3.386  14.295  24.604  0.00  0.00    +0.000 A 
ATOM     30  C   UNL     1      -3.885  13.054  24.213  0.00  0.00    +0.000 A 
ATOM     31  C   UNL     1      -3.093  12.190  23.455  0.00  0.00    +0.000 A 
ENDBRANCH  25  26
ENDBRANCH   9  24
TORSDOF 4
ENDMDL
MODEL 6
REMARK VINA RESULT:      -8.7      1.784      2.283
REMARK  Name = 
REMARK  4 active torsions:
REMARK  status: ('A' for Active; 'I' for Inactive)
REMARK    1  A    between atoms: C_4  and  C_5
REMARK    2  A    between atoms: C_9  and  C_10
REMARK    3  A    between atoms: C_19  and  C_20
REMARK    4  A    between atoms: C_21  and  C_22
REMARK                            x       y       z     vdW  Elec       q    Type
REMARK                         _______ _______ _______ _____ _____    ______ ____
ROOT
ATOM      1  O   UNL     1      -0.046   9.851  23.711  0.00  0.00    +0.000 OA
ATOM      2  C   UNL     1       0.153  10.056  22.514  0.00  0.00    +0.000 C 
ATOM      3  C   UNL     1       0.042  11.426  21.916  0.00  0.00    +0.000 C 
ATOM      4  C   UNL     1      -1.071  11.470  20.907  0.00  0.00    +0.000 C 
ATOM      5  N   UNL     1      -1.000  10.831  19.778  0.00  0.00    +0.000 NA
ATOM      6  C   UNL     1       0.104  10.009  19.437  0.00  0.00    +0.000 A 
ATOM      7  C   UNL     1       0.439   9.978  18.076  0.00  0.00    +0.000 A 
ATOM      8  C   UNL     1       1.442   9.133  17.579  0.00  0.00    +0.000 A 
ATOM      9  C   UNL     1       2.117   8.267  18.434  0.00  0.00    +0.000 A 
ATOM     10  C   UNL     1       1.771   8.248  19.787  0.00  0.00    +0.000 A 
ATOM     11  C   UNL     1       0.795   9.128  20.302  0.00  0.00    +0.000 A 
ATOM     12  N   UNL     1       0.578   9.051  21.693  0.00  0.00    +0.000 N 
ATOM     13  H   UNL     1       0.855   8.210  22.185  0.00  0.00    +0.000 HD
ENDROOT
BRANCH   4  14
ATOM     14  C   UNL     1      -2.300  12.264  21.242  0.00  0.00    +0.000 A 
ATOM     15  C   UNL     1      -2.479  12.798  22.526  0.00  0.00    +0.000 A 
ATOM     16  C   UNL     1      -3.635  13.510  22.846  0.00  0.00    +0.000 A 
ATOM     17  C   UNL     1      -4.640  13.670  21.897  0.00  0.00    +0.000 A 
ATOM     18  C   UNL     1      -4.499  13.125  20.611  0.00  0.00    +0.000 A 
ATOM     19  C   UNL     1      -3.312  12.436  20.285  0.00  0.00    +0.000 A 
BRANCH  18  20
ATOM     20  C   UNL     1      -5.620  13.249  19.606  0.00  0.00    +0.000 C 
ATOM     21  F   UNL     1      -5.970  14.541  19.343  0.00  0.00    +0.000 F 
ATOM     22  F   UNL     1      -5.311  12.697  18.401  0.00  0.00    +0.000 F 
ATOM     23  F   UNL     1      -6.763  12.636  20.022  0.00  0.00    +0.000 F 
ENDBRANCH  18  20
ENDBRANCH   4  14
BRANCH   9  24
ATOM     24  C   UNL     1       3.175   7.434  17.939  0.00  0.00    +0.000 C 
ATOM     25  C   UNL     1       4.090   6.764  17.528  0.00  0.00    +0.000 C 
BRANCH  25  26
ATOM     26  C   UNL     1       5.206   5.995  17.056  0.00  0.00    +0.000 A 
ATOM     27  C   UNL     1       5.256   5.583  15.721  0.00  0.00    +0.000 A 
ATOM     28  C   UNL     1       6.321   4.798  15.264  0.00  0.00    +0.000 A 
ATOM     29  C   UNL     1       7.339   4.428  16.143  0.00  0.00    +0.000 A 
ATOM     30  C   UNL     1       7.300   4.845  17.472  0.00  0.00    +0.000 A 
ATOM     31  C   UNL     1       6.238   5.626  17.929  0.00  0.00    +0.000 A 
ENDBRANCH  25  26
ENDBRANCH   9  24
TORSDOF 4
ENDMDL
MODEL 7
REMARK VINA RESULT:      -8.5      1.849      2.599
REMARK  Name = 
REMARK  4 active torsions:
REMARK  status: ('A' for Active; 'I' for Inactive)
REMARK    1  A    between atoms: C_4  and  C_5
REMARK    2  A    between atoms: C_9  and  C_10
REMARK    3  A    between atoms: C_19  and  C_20
REMARK    4  A    between atoms: C_21  and  C_22
REMARK                            x       y       z     vdW  Elec       q    Type
REMARK                         _______ _______ _______ _____ _____    ______ ____
ROOT
ATOM      1  O   UNL     1      -0.580  13.374  18.063  0.00  0.00    +0.000 OA
ATOM      2  C   UNL     1      -0.439  12.297  18.639  0.00  0.00    +0.000 C 
ATOM      3  C   UNL     1      -1.529  11.694  19.471  0.00  0.00    +0.000 C 
ATOM      4  C   UNL     1      -1.101  11.597  20.909  0.00  0.00    +0.000 C 
ATOM      5  N   UNL     1      -0.166  10.780  21.293  0.00  0.00    +0.000 NA
ATOM      6  C   UNL     1       0.548   9.961  20.383  0.00  0.00    +0.000 A 
ATOM      7  C   UNL     1       0.943   8.708  20.876  0.00  0.00    +0.000 A 
ATOM      8  C   UNL     1       1.742   7.834  20.124  0.00  0.00    +0.000 A 
ATOM      9  C   UNL     1       2.198   8.210  18.864  0.00  0.00    +0.000 A 
ATOM     10  C   UNL     1       1.855   9.470  18.369  0.00  0.00    +0.000 A 
ATOM     11  C   UNL     1       1.014  10.335  19.100  0.00  0.00    +0.000 A 
ATOM     12  N   UNL     1       0.695  11.555  18.467  0.00  0.00    +0.000 N 
ATOM     13  H   UNL     1       1.297  11.892  17.725  0.00  0.00    +0.000 HD
ENDROOT
BRANCH   4  14
ATOM     14  C   UNL     1      -1.770  12.493  21.910  0.00  0.00    +0.000 A 
ATOM     15  C   UNL     1      -1.010  13.226  22.833  0.00  0.00    +0.000 A 
ATOM     16  C   UNL     1      -1.634  14.035  23.783  0.00  0.00    +0.000 A 
ATOM     17  C   UNL     1      -3.023  14.097  23.843  0.00  0.00    +0.000 A 
ATOM     18  C   UNL     1      -3.809  13.356  22.948  0.00  0.00    +0.000 A 
ATOM     19  C   UNL     1      -3.170  12.566  21.968  0.00  0.00    +0.000 A 
BRANCH  18  20
ATOM     20  C   UNL     1      -5.314  13.379  23.059  0.00  0.00    +0.000 C 
ATOM     21  F   UNL     1      -5.865  14.570  22.686  0.00  0.00    +0.000 F 
ATOM     22  F   UNL     1      -5.915  12.435  22.284  0.00  0.00    +0.000 F 
ATOM     23  F   UNL     1      -5.747  13.157  24.331  0.00  0.00    +0.000 F 
ENDBRANCH  18  20
ENDBRANCH   4  14
BRANCH   9  24
ATOM     24  C   UNL     1       2.978   7.301  18.072  0.00  0.00    +0.000 C 
ATOM     25  C   UNL     1       3.666   6.550  17.427  0.00  0.00    +0.000 C 
BRANCH  25  26
ATOM     26  C   UNL     1       4.515   5.659  16.688  0.00  0.00    +0.000 A 
ATOM     27  C   UNL     1       4.558   4.302  17.019  0.00  0.00    +0.000 A 
ATOM     28  C   UNL     1       5.415   3.435  16.330  0.00  0.00    +0.000 A 
ATOM     29  C   UNL     1       6.226   3.926  15.307  0.00  0.00    +0.000 A 
ATOM     30  C   UNL     1       6.178   5.277  14.966  0.00  0.00    +0.000 A 
ATOM     31  C   UNL     1       5.326   6.142  15.653  0.00  0.00    +0.000 A 
ENDBRANCH  25  26
ENDBRANCH   9  24
TORSDOF 4
ENDMDL
MODEL 8
REMARK VINA RESULT:      -8.5      0.770      1.253
REMARK  Name = 
REMARK  4 active torsions:
REMARK  status: ('A' for Active; 'I' for Inactive)
REMARK    1  A    between atoms: C_4  and  C_5
REMARK    2  A    between atoms: C_9  and  C_10
REMARK    3  A    between atoms: C_19  and  C_20
REMARK    4  A    between atoms: C_21  and  C_22
REMARK                            x       y       z     vdW  Elec       q    Type
REMARK                         _______ _______ _______ _____ _____    ______ ____
ROOT
ATOM      1  O   UNL     1      -0.178  10.289  23.681  0.00  0.00    +0.000 OA
ATOM      2  C   UNL     1      -0.005  10.424  22.470  0.00  0.00    +0.000 C 
ATOM      3  C   UNL     1      -0.164  11.749  21.789  0.00  0.00    +0.000 C 
ATOM      4  C   UNL     1      -1.296  11.700  20.802  0.00  0.00    +0.000 C 
ATOM      5  N   UNL     1      -1.228  10.993  19.713  0.00  0.00    +0.000 NA
ATOM      6  C   UNL     1      -0.108  10.181  19.404  0.00  0.00    +0.000 A 
ATOM      7  C   UNL     1       0.204  10.072  18.040  0.00  0.00    +0.000 A 
ATOM      8  C   UNL     1       1.221   9.225  17.578  0.00  0.00    +0.000 A 
ATOM      9  C   UNL     1       1.934   8.432  18.473  0.00  0.00    +0.000 A 
ATOM     10  C   UNL     1       1.613   8.490  19.831  0.00  0.00    +0.000 A 
ATOM     11  C   UNL     1       0.623   9.374  20.308  0.00  0.00    +0.000 A 
ATOM     12  N   UNL     1       0.433   9.380  21.705  0.00  0.00    +0.000 N 
ATOM     13  H   UNL     1       0.741   8.579  22.244  0.00  0.00    +0.000 HD
ENDROOT
BRANCH   4  14
ATOM     14  C   UNL     1      -2.540  12.481  21.110  0.00  0.00    +0.000 A 
ATOM     15  C   UNL     1      -3.578  12.572  20.171  0.00  0.00    +0.000 A 
ATOM     16  C   UNL     1      -4.722  13.323  20.447  0.00  0.00    +0.000 A 
ATOM     17  C   UNL     1      -4.828  14.017  21.648  0.00  0.00    +0.000 A 
ATOM     18  C   UNL     1      -3.794  13.963  22.596  0.00  0.00    +0.000 A 
ATOM     19  C   UNL     1      -2.656  13.175  22.324  0.00  0.00    +0.000 A 
BRANCH  18  20
ATOM     20  C   UNL     1      -3.889  14.769  23.870  0.00  0.00    +0.000 C 
ATOM     21  F   UNL     1      -5.171  14.954  24.297  0.00  0.00    +0.000 F 
ATOM     22  F   UNL     1      -3.232  14.188  24.911  0.00  0.00    +0.000 F 
ATOM     23  F   UNL     1      -3.361  16.017  23.738  0.00  0.00    +0.000 F 
ENDBRANCH  18  20
ENDBRANCH   4  14
BRANCH   9  24
ATOM     24  C   UNL     1       3.006   7.598  18.010  0.00  0.00    +0.000 C 
ATOM     25  C   UNL     1       3.926   6.902  17.656  0.00  0.00    +0.000 C 
BRANCH  25  26
ATOM     26  C   UNL     1       5.032   6.070  17.276  0.00  0.00    +0.000 A 
ATOM     27  C   UNL     1       5.892   5.564  18.254  0.00  0.00    +0.000 A 
ATOM     28  C   UNL     1       6.997   4.786  17.888  0.00  0.00    +0.000 A 
ATOM     29  C   UNL     1       7.238   4.511  16.542  0.00  0.00    +0.000 A 
ATOM     30  C   UNL     1       6.376   5.004  15.563  0.00  0.00    +0.000 A 
ATOM     31  C   UNL     1       5.276   5.781  15.928  0.00  0.00    +0.000 A 
ENDBRANCH  25  26
ENDBRANCH   9  24
TORSDOF 4
ENDMDL
MODEL 9
REMARK VINA RESULT:      -8.5      1.886      2.553
REMARK  Name = 
REMARK  4 active torsions:
REMARK  status: ('A' for Active; 'I' for Inactive)
REMARK    1  A    between atoms: C_4  and  C_5
REMARK    2  A    between atoms: C_9  and  C_10
REMARK    3  A    between atoms: C_19  and  C_20
REMARK    4  A    between atoms: C_21  and  C_22
REMARK                            x       y       z     vdW  Elec       q    Type
REMARK                         _______ _______ _______ _____ _____    ______ ____
ROOT
ATOM      1  O   UNL     1      -1.024  13.002  17.888  0.00  0.00    +0.000 OA
ATOM      2  C   UNL     1      -0.769  11.999  18.554  0.00  0.00    +0.000 C 
ATOM      3  C   UNL     1      -1.767  11.403  19.499  0.00  0.00    +0.000 C 
ATOM      4  C   UNL     1      -1.261  11.477  20.912  0.00  0.00    +0.000 C 
ATOM      5  N   UNL     1      -0.247  10.772  21.318  0.00  0.00    +0.000 NA
ATOM      6  C   UNL     1       0.483   9.923  20.449  0.00  0.00    +0.000 A 
ATOM      7  C   UNL     1       0.999   8.757  21.033  0.00  0.00    +0.000 A 
ATOM      8  C   UNL     1       1.825   7.874  20.321  0.00  0.00    +0.000 A 
ATOM      9  C   UNL     1       2.187   8.158  19.008  0.00  0.00    +0.000 A 
ATOM     10  C   UNL     1       1.723   9.336  18.418  0.00  0.00    +0.000 A 
ATOM     11  C   UNL     1       0.853  10.204  19.111  0.00  0.00    +0.000 A 
ATOM     12  N   UNL     1       0.409  11.329  18.387  0.00  0.00    +0.000 N 
ATOM     13  H   UNL     1       0.944  11.635  17.584  0.00  0.00    +0.000 HD
ENDROOT
BRANCH   4  14
ATOM     14  C   UNL     1      -1.947  12.415  21.862  0.00  0.00    +0.000 A 
ATOM     15  C   UNL     1      -1.201  13.271  22.686  0.00  0.00    +0.000 A 
ATOM     16  C   UNL     1      -1.839  14.121  23.590  0.00  0.00    +0.000 A 
ATOM     17  C   UNL     1      -3.225  14.104  23.705  0.00  0.00    +0.000 A 
ATOM     18  C   UNL     1      -3.996  13.240  22.911  0.00  0.00    +0.000 A 
ATOM     19  C   UNL     1      -3.346  12.408  21.975  0.00  0.00    +0.000 A 
BRANCH  18  20
ATOM     20  C   UNL     1      -5.494  13.181  23.086  0.00  0.00    +0.000 C 
ATOM     21  F   UNL     1      -6.122  12.444  22.124  0.00  0.00    +0.000 F 
ATOM     22  F   UNL     1      -5.866  12.632  24.274  0.00  0.00    +0.000 F 
ATOM     23  F   UNL     1      -6.074  14.414  23.040  0.00  0.00    +0.000 F 
ENDBRANCH  18  20
ENDBRANCH   4  14
BRANCH   9  24
ATOM     24  C   UNL     1       2.995   7.236  18.261  0.00  0.00    +0.000 C 
ATOM     25  C   UNL     1       3.666   6.482  17.601  0.00  0.00    +0.000 C 
BRANCH  25  26
ATOM     26  C   UNL     1       4.466   5.614  16.783  0.00  0.00    +0.000 A 
ATOM     27  C   UNL     1       5.295   6.154  15.796  0.00  0.00    +0.000 A 
ATOM     28  C   UNL     1       6.045   5.312  14.967  0.00  0.00    +0.000 A 
ATOM     29  C   UNL     1       5.970   3.928  15.130  0.00  0.00    +0.000 A 
ATOM     30  C   UNL     1       5.154   3.386  16.121  0.00  0.00    +0.000 A 
ATOM     31  C   UNL     1       4.403   4.225  16.946  0.00  0.00    +0.000 A 
ENDBRANCH  25  26
ENDBRANCH   9  24
TORSDOF 4
ENDMDL
