MODEL 1
REMARK VINA RESULT:      -7.5      0.000      0.000
REMARK  Name = 
REMARK  8 active torsions:
REMARK  status: ('A' for Active; 'I' for Inactive)
REMARK    1  A    between atoms: C_1  and  C_2
REMARK    2  A    between atoms: C_6  and  C_7
REMARK    3  A    between atoms: C_10  and  O_11
REMARK    4  A    between atoms: O_11  and  C_12
REMARK    5  A    between atoms: C_12  and  C_13
REMARK    6  A    between atoms: C_12  and  C_14
REMARK    7  A    between atoms: N_16  and  C_17
REMARK    8  A    between atoms: C_26  and  C_28
REMARK                            x       y       z     vdW  Elec       q    Type
REMARK                         _______ _______ _______ _____ _____    ______ ____
ROOT
ATOM      1  C   UNL     1      -0.272  13.245  22.249  0.00  0.00    +0.000 C 
ATOM      2  C   UNL     1      -0.631  12.107  21.283  0.00  0.00    +0.000 A 
ATOM      3  C   UNL     1       0.197  10.975  21.147  0.00  0.00    +0.000 A 
ATOM      4  C   UNL     1       0.046  10.088  20.070  0.00  0.00    +0.000 A 
ATOM      5  C   UNL     1      -1.038  10.245  19.211  0.00  0.00    +0.000 A 
ATOM      6  C   UNL     1      -1.828  11.399  19.291  0.00  0.00    +0.000 A 
ATOM      7  C   UNL     1      -1.545  12.377  20.249  0.00  0.00    +0.000 A 
ATOM      8  C   UNL     1      -2.037  13.802  20.110  0.00  0.00    +0.000 C 
ATOM      9  C   UNL     1      -0.927  14.840  20.469  0.00  0.00    +0.000 C 
ATOM     10  N   UNL     1       0.153  14.302  21.338  0.00  0.00    +0.000 N 
ATOM     11  C   UNL     1       1.528  14.468  21.214  0.00  0.00    +0.000 C 
ATOM     12  O   UNL     1       2.309  14.182  22.123  0.00  0.00    +0.000 OA
ENDROOT
BRANCH   1  18
ATOM     13  C   UNL     1      -4.672  12.544  24.577  0.00  0.00    +0.000 C 
ATOM     14  C   UNL     1      -3.474  13.422  24.357  0.00  0.00    +0.000 A 
ATOM     15  C   UNL     1      -3.404  14.707  24.893  0.00  0.00    +0.000 A 
ATOM     16  C   UNL     1      -2.284  15.508  24.653  0.00  0.00    +0.000 A 
ATOM     17  C   UNL     1      -1.233  15.052  23.845  0.00  0.00    +0.000 A 
ATOM     18  C   UNL     1      -1.285  13.776  23.271  0.00  0.00    +0.000 A 
ATOM     19  C   UNL     1      -2.410  12.967  23.568  0.00  0.00    +0.000 A 
ENDBRANCH   1  18
BRANCH  11  20
ATOM     20  C   UNL     1       2.126  14.928  19.938  0.00  0.00    +0.000 A 
ATOM     21  C   UNL     1       2.404  16.289  19.786  0.00  0.00    +0.000 A 
ATOM     22  C   UNL     1       3.029  16.741  18.622  0.00  0.00    +0.000 A 
ATOM     23  C   UNL     1       3.367  15.837  17.617  0.00  0.00    +0.000 A 
ATOM     24  C   UNL     1       3.127  14.477  17.785  0.00  0.00    +0.000 A 
ATOM     25  C   UNL     1       2.540  14.024  18.958  0.00  0.00    +0.000 A 
ENDBRANCH  11  20
BRANCH   4  26
ATOM     26  O   UNL     1       1.104   9.240  19.867  0.00  0.00    +0.000 OA
BRANCH  26  27
ATOM     27  C   UNL     1       1.505   8.883  18.538  0.00  0.00    +0.000 C 
ATOM     28  C   UNL     1       2.256   9.988  17.788  0.00  0.00    +0.000 C 
BRANCH  27  29
ATOM     29  C   UNL     1       2.497   7.710  18.688  0.00  0.00    +0.000 C 
ATOM     30  O   UNL     1       2.432   6.919  19.628  0.00  0.00    +0.000 OA
ATOM     31  N   UNL     1       3.386   7.570  17.631  0.00  0.00    +0.000 N 
ATOM     32  H   UNL     1       3.468   8.369  17.007  0.00  0.00    +0.000 HD
BRANCH  31  33
ATOM     33  C   UNL     1       4.422   6.586  17.621  0.00  0.00    +0.000 C 
ATOM     34  C   UNL     1       4.199   5.224  17.021  0.00  0.00    +0.000 C 
ATOM     35  C   UNL     1       5.110   6.199  16.338  0.00  0.00    +0.000 C 
ENDBRANCH  31  33
ENDBRANCH  27  29
ENDBRANCH  26  27
ENDBRANCH   4  26
TORSDOF 6
ENDMDL
MODEL 2
REMARK VINA RESULT:      -7.4      1.105      1.596
REMARK  Name = 
REMARK  8 active torsions:
REMARK  status: ('A' for Active; 'I' for Inactive)
REMARK    1  A    between atoms: C_1  and  C_2
REMARK    2  A    between atoms: C_6  and  C_7
REMARK    3  A    between atoms: C_10  and  O_11
REMARK    4  A    between atoms: O_11  and  C_12
REMARK    5  A    between atoms: C_12  and  C_13
REMARK    6  A    between atoms: C_12  and  C_14
REMARK    7  A    between atoms: N_16  and  C_17
REMARK    8  A    between atoms: C_26  and  C_28
REMARK                            x       y       z     vdW  Elec       q    Type
REMARK                         _______ _______ _______ _____ _____    ______ ____
ROOT
ATOM      1  C   UNL     1      -0.366  12.736  21.947  0.00  0.00    +0.000 C 
ATOM      2  C   UNL     1      -0.468  11.573  20.949  0.00  0.00    +0.000 A 
ATOM      3  C   UNL     1       0.518  10.569  20.894  0.00  0.00    +0.000 A 
ATOM      4  C   UNL     1       0.598   9.685  19.806  0.00  0.00    +0.000 A 
ATOM      5  C   UNL     1      -0.410   9.702  18.846  0.00  0.00    +0.000 A 
ATOM      6  C   UNL     1      -1.357  10.734  18.849  0.00  0.00    +0.000 A 
ATOM      7  C   UNL     1      -1.307  11.728  19.831  0.00  0.00    +0.000 A 
ATOM      8  C   UNL     1      -1.977  13.073  19.646  0.00  0.00    +0.000 C 
ATOM      9  C   UNL     1      -1.064  14.249  20.112  0.00  0.00    +0.000 C 
ATOM     10  N   UNL     1      -0.008  13.855  21.081  0.00  0.00    +0.000 N 
ATOM     11  C   UNL     1       1.336  14.212  21.092  0.00  0.00    +0.000 C 
ATOM     12  O   UNL     1       2.058  14.024  22.072  0.00  0.00    +0.000 OA
ENDROOT
BRANCH   1  18
ATOM     13  C   UNL     1      -2.136  15.860  25.465  0.00  0.00    +0.000 C 
ATOM     14  C   UNL     1      -2.352  14.633  24.627  0.00  0.00    +0.000 A 
ATOM     15  C   UNL     1      -3.449  13.797  24.830  0.00  0.00    +0.000 A 
ATOM     16  C   UNL     1      -3.612  12.650  24.046  0.00  0.00    +0.000 A 
ATOM     17  C   UNL     1      -2.663  12.302  23.075  0.00  0.00    +0.000 A 
ATOM     18  C   UNL     1      -1.538  13.107  22.866  0.00  0.00    +0.000 A 
ATOM     19  C   UNL     1      -1.420  14.288  23.640  0.00  0.00    +0.000 A 
ENDBRANCH   1  18
BRANCH  11  20
ATOM     20  C   UNL     1       1.984  14.769  19.880  0.00  0.00    +0.000 A 
ATOM     21  C   UNL     1       1.994  16.155  19.709  0.00  0.00    +0.000 A 
ATOM     22  C   UNL     1       2.655  16.712  18.612  0.00  0.00    +0.000 A 
ATOM     23  C   UNL     1       3.297  15.884  17.692  0.00  0.00    +0.000 A 
ATOM     24  C   UNL     1       3.322  14.506  17.885  0.00  0.00    +0.000 A 
ATOM     25  C   UNL     1       2.697  13.957  18.996  0.00  0.00    +0.000 A 
ENDBRANCH  11  20
BRANCH   4  26
ATOM     26  O   UNL     1       1.778   8.995  19.707  0.00  0.00    +0.000 OA
BRANCH  26  27
ATOM     27  C   UNL     1       1.934   7.957  18.731  0.00  0.00    +0.000 C 
ATOM     28  C   UNL     1       2.966   8.267  17.641  0.00  0.00    +0.000 C 
BRANCH  27  29
ATOM     29  C   UNL     1       2.466   6.725  19.494  0.00  0.00    +0.000 C 
ATOM     30  O   UNL     1       1.872   6.253  20.463  0.00  0.00    +0.000 OA
ATOM     31  N   UNL     1       3.597   6.147  18.934  0.00  0.00    +0.000 N 
ATOM     32  H   UNL     1       4.098   6.712  18.254  0.00  0.00    +0.000 HD
BRANCH  31  33
ATOM     33  C   UNL     1       4.274   5.040  19.536  0.00  0.00    +0.000 C 
ATOM     34  C   UNL     1       3.998   3.627  19.099  0.00  0.00    +0.000 C 
ATOM     35  C   UNL     1       5.316   4.264  18.773  0.00  0.00    +0.000 C 
ENDBRANCH  31  33
ENDBRANCH  27  29
ENDBRANCH  26  27
ENDBRANCH   4  26
TORSDOF 6
ENDMDL
MODEL 3
REMARK VINA RESULT:      -7.4      1.088      1.224
REMARK  Name = 
REMARK  8 active torsions:
REMARK  status: ('A' for Active; 'I' for Inactive)
REMARK    1  A    between atoms: C_1  and  C_2
REMARK    2  A    between atoms: C_6  and  C_7
REMARK    3  A    between atoms: C_10  and  O_11
REMARK    4  A    between atoms: O_11  and  C_12
REMARK    5  A    between atoms: C_12  and  C_13
REMARK    6  A    between atoms: C_12  and  C_14
REMARK    7  A    between atoms: N_16  and  C_17
REMARK    8  A    between atoms: C_26  and  C_28
REMARK                            x       y       z     vdW  Elec       q    Type
REMARK                         _______ _______ _______ _____ _____    ______ ____
ROOT
ATOM      1  C   UNL     1      -0.311  13.208  22.225  0.00  0.00    +0.000 C 
ATOM      2  C   UNL     1      -0.711  12.125  21.213  0.00  0.00    +0.000 A 
ATOM      3  C   UNL     1       0.087  10.981  21.014  0.00  0.00    +0.000 A 
ATOM      4  C   UNL     1      -0.100  10.148  19.900  0.00  0.00    +0.000 A 
ATOM      5  C   UNL     1      -1.191  10.369  19.066  0.00  0.00    +0.000 A 
ATOM      6  C   UNL     1      -1.952  11.537  19.209  0.00  0.00    +0.000 A 
ATOM      7  C   UNL     1      -1.632  12.463  20.207  0.00  0.00    +0.000 A 
ATOM      8  C   UNL     1      -2.091  13.904  20.140  0.00  0.00    +0.000 C 
ATOM      9  C   UNL     1      -0.953  14.898  20.529  0.00  0.00    +0.000 C 
ATOM     10  N   UNL     1       0.126  14.296  21.356  0.00  0.00    +0.000 N 
ATOM     11  C   UNL     1       1.503  14.435  21.219  0.00  0.00    +0.000 C 
ATOM     12  O   UNL     1       2.289  14.090  22.103  0.00  0.00    +0.000 OA
ENDROOT
BRANCH   1  18
ATOM     13  C   UNL     1      -4.724  12.542  24.539  0.00  0.00    +0.000 C 
ATOM     14  C   UNL     1      -3.493  13.383  24.364  0.00  0.00    +0.000 A 
ATOM     15  C   UNL     1      -3.369  14.629  24.977  0.00  0.00    +0.000 A 
ATOM     16  C   UNL     1      -2.219  15.398  24.777  0.00  0.00    +0.000 A 
ATOM     17  C   UNL     1      -1.191  14.951  23.935  0.00  0.00    +0.000 A 
ATOM     18  C   UNL     1      -1.297  13.716  23.285  0.00  0.00    +0.000 A 
ATOM     19  C   UNL     1      -2.452  12.936  23.540  0.00  0.00    +0.000 A 
ENDBRANCH   1  18
BRANCH  11  20
ATOM     20  C   UNL     1       2.095  14.939  19.957  0.00  0.00    +0.000 A 
ATOM     21  C   UNL     1       2.430  16.293  19.873  0.00  0.00    +0.000 A 
ATOM     22  C   UNL     1       3.050  16.781  18.721  0.00  0.00    +0.000 A 
ATOM     23  C   UNL     1       3.326  15.921  17.660  0.00  0.00    +0.000 A 
ATOM     24  C   UNL     1       3.029  14.565  17.760  0.00  0.00    +0.000 A 
ATOM     25  C   UNL     1       2.448  14.074  18.920  0.00  0.00    +0.000 A 
ENDBRANCH  11  20
BRANCH   4  26
ATOM     26  O   UNL     1       0.934   9.286  19.643  0.00  0.00    +0.000 OA
BRANCH  26  27
ATOM     27  C   UNL     1       1.479   9.177  18.322  0.00  0.00    +0.000 C 
ATOM     28  C   UNL     1       2.335  10.374  17.893  0.00  0.00    +0.000 C 
BRANCH  27  29
ATOM     29  C   UNL     1       2.423   7.956  18.344  0.00  0.00    +0.000 C 
ATOM     30  O   UNL     1       3.333   7.822  17.527  0.00  0.00    +0.000 OA
ATOM     31  N   UNL     1       2.220   7.092  19.412  0.00  0.00    +0.000 N 
ATOM     32  H   UNL     1       1.344   7.200  19.915  0.00  0.00    +0.000 HD
BRANCH  31  33
ATOM     33  C   UNL     1       2.950   5.872  19.565  0.00  0.00    +0.000 C 
ATOM     34  C   UNL     1       2.498   4.807  20.526  0.00  0.00    +0.000 C 
ATOM     35  C   UNL     1       2.396   4.570  19.049  0.00  0.00    +0.000 C 
ENDBRANCH  31  33
ENDBRANCH  27  29
ENDBRANCH  26  27
ENDBRANCH   4  26
TORSDOF 6
ENDMDL
MODEL 4
REMARK VINA RESULT:      -7.4      1.513      2.069
REMARK  Name = 
REMARK  8 active torsions:
REMARK  status: ('A' for Active; 'I' for Inactive)
REMARK    1  A    between atoms: C_1  and  C_2
REMARK    2  A    between atoms: C_6  and  C_7
REMARK    3  A    between atoms: C_10  and  O_11
REMARK    4  A    between atoms: O_11  and  C_12
REMARK    5  A    between atoms: C_12  and  C_13
REMARK    6  A    between atoms: C_12  and  C_14
REMARK    7  A    between atoms: N_16  and  C_17
REMARK    8  A    between atoms: C_26  and  C_28
REMARK                            x       y       z     vdW  Elec       q    Type
REMARK                         _______ _______ _______ _____ _____    ______ ____
ROOT
ATOM      1  C   UNL     1      -0.140  12.596  21.648  0.00  0.00    +0.000 C 
ATOM      2  C   UNL     1      -0.215  11.502  20.574  0.00  0.00    +0.000 A 
ATOM      3  C   UNL     1       0.772  10.501  20.481  0.00  0.00    +0.000 A 
ATOM      4  C   UNL     1       0.880   9.689  19.341  0.00  0.00    +0.000 A 
ATOM      5  C   UNL     1      -0.100   9.771  18.357  0.00  0.00    +0.000 A 
ATOM      6  C   UNL     1      -1.046  10.803  18.401  0.00  0.00    +0.000 A 
ATOM      7  C   UNL     1      -1.023  11.731  19.447  0.00  0.00    +0.000 A 
ATOM      8  C   UNL     1      -1.687  13.086  19.331  0.00  0.00    +0.000 C 
ATOM      9  C   UNL     1      -0.786  14.228  19.898  0.00  0.00    +0.000 C 
ATOM     10  N   UNL     1       0.243  13.769  20.868  0.00  0.00    +0.000 N 
ATOM     11  C   UNL     1       1.586  14.120  20.938  0.00  0.00    +0.000 C 
ATOM     12  O   UNL     1       2.281  13.868  21.925  0.00  0.00    +0.000 OA
ENDROOT
BRANCH   1  18
ATOM     13  C   UNL     1      -2.079  15.612  25.172  0.00  0.00    +0.000 C 
ATOM     14  C   UNL     1      -2.234  14.384  24.322  0.00  0.00    +0.000 A 
ATOM     15  C   UNL     1      -3.297  13.501  24.504  0.00  0.00    +0.000 A 
ATOM     16  C   UNL     1      -3.402  12.355  23.710  0.00  0.00    +0.000 A 
ATOM     17  C   UNL     1      -2.429  12.056  22.746  0.00  0.00    +0.000 A 
ATOM     18  C   UNL     1      -1.336  12.910  22.557  0.00  0.00    +0.000 A 
ATOM     19  C   UNL     1      -1.277  14.088  23.343  0.00  0.00    +0.000 A 
ENDBRANCH   1  18
BRANCH  11  20
ATOM     20  C   UNL     1       2.268  14.753  19.784  0.00  0.00    +0.000 A 
ATOM     21  C   UNL     1       2.508  16.129  19.827  0.00  0.00    +0.000 A 
ATOM     22  C   UNL     1       3.208  16.741  18.784  0.00  0.00    +0.000 A 
ATOM     23  C   UNL     1       3.658  15.980  17.707  0.00  0.00    +0.000 A 
ATOM     24  C   UNL     1       3.455  14.604  17.685  0.00  0.00    +0.000 A 
ATOM     25  C   UNL     1       2.793  13.992  18.739  0.00  0.00    +0.000 A 
ENDBRANCH  11  20
BRANCH   4  26
ATOM     26  O   UNL     1       2.063   9.004  19.229  0.00  0.00    +0.000 OA
BRANCH  26  27
ATOM     27  C   UNL     1       2.164   7.863  18.369  0.00  0.00    +0.000 C 
ATOM     28  C   UNL     1       3.471   7.788  17.572  0.00  0.00    +0.000 C 
BRANCH  27  29
ATOM     29  C   UNL     1       2.148   6.625  19.291  0.00  0.00    +0.000 C 
ATOM     30  O   UNL     1       2.108   6.727  20.516  0.00  0.00    +0.000 OA
ATOM     31  N   UNL     1       2.079   5.410  18.622  0.00  0.00    +0.000 N 
ATOM     32  H   UNL     1       2.294   5.434  17.629  0.00  0.00    +0.000 HD
BRANCH  31  33
ATOM     33  C   UNL     1       2.123   4.154  19.301  0.00  0.00    +0.000 C 
ATOM     34  C   UNL     1       0.893   3.568  19.939  0.00  0.00    +0.000 C 
ATOM     35  C   UNL     1       1.469   2.932  18.710  0.00  0.00    +0.000 C 
ENDBRANCH  31  33
ENDBRANCH  27  29
ENDBRANCH  26  27
ENDBRANCH   4  26
TORSDOF 6
ENDMDL
MODEL 5
REMARK VINA RESULT:      -7.4      1.601      1.917
REMARK  Name = 
REMARK  8 active torsions:
REMARK  status: ('A' for Active; 'I' for Inactive)
REMARK    1  A    between atoms: C_1  and  C_2
REMARK    2  A    between atoms: C_6  and  C_7
REMARK    3  A    between atoms: C_10  and  O_11
REMARK    4  A    between atoms: O_11  and  C_12
REMARK    5  A    between atoms: C_12  and  C_13
REMARK    6  A    between atoms: C_12  and  C_14
REMARK    7  A    between atoms: N_16  and  C_17
REMARK    8  A    between atoms: C_26  and  C_28
REMARK                            x       y       z     vdW  Elec       q    Type
REMARK                         _______ _______ _______ _____ _____    ______ ____
ROOT
ATOM      1  C   UNL     1      -0.257  13.315  22.223  0.00  0.00    +0.000 C 
ATOM      2  C   UNL     1      -0.627  12.204  21.230  0.00  0.00    +0.000 A 
ATOM      3  C   UNL     1       0.192  11.070  21.065  0.00  0.00    +0.000 A 
ATOM      4  C   UNL     1       0.033  10.210  19.967  0.00  0.00    +0.000 A 
ATOM      5  C   UNL     1      -1.052  10.396  19.115  0.00  0.00    +0.000 A 
ATOM      6  C   UNL     1      -1.834  11.553  19.225  0.00  0.00    +0.000 A 
ATOM      7  C   UNL     1      -1.542  12.506  20.206  0.00  0.00    +0.000 A 
ATOM      8  C   UNL     1      -2.024  13.937  20.103  0.00  0.00    +0.000 C 
ATOM      9  C   UNL     1      -0.907  14.958  20.485  0.00  0.00    +0.000 C 
ATOM     10  N   UNL     1       0.172  14.392  21.337  0.00  0.00    +0.000 N 
ATOM     11  C   UNL     1       1.548  14.551  21.213  0.00  0.00    +0.000 C 
ATOM     12  O   UNL     1       2.329  14.238  22.113  0.00  0.00    +0.000 OA
ENDROOT
BRANCH   1  18
ATOM     13  C   UNL     1      -4.647  12.578  24.559  0.00  0.00    +0.000 C 
ATOM     14  C   UNL     1      -3.449  13.457  24.350  0.00  0.00    +0.000 A 
ATOM     15  C   UNL     1      -3.373  14.731  24.912  0.00  0.00    +0.000 A 
ATOM     16  C   UNL     1      -2.252  15.535  24.681  0.00  0.00    +0.000 A 
ATOM     17  C   UNL     1      -1.207  15.092  23.859  0.00  0.00    +0.000 A 
ATOM     18  C   UNL     1      -1.265  13.829  23.261  0.00  0.00    +0.000 A 
ATOM     19  C   UNL     1      -2.390  13.016  23.547  0.00  0.00    +0.000 A 
ENDBRANCH   1  18
BRANCH  11  20
ATOM     20  C   UNL     1       2.146  15.038  19.947  0.00  0.00    +0.000 A 
ATOM     21  C   UNL     1       2.408  16.404  19.818  0.00  0.00    +0.000 A 
ATOM     22  C   UNL     1       3.032  16.882  18.663  0.00  0.00    +0.000 A 
ATOM     23  C   UNL     1       3.386  15.998  17.646  0.00  0.00    +0.000 A 
ATOM     24  C   UNL     1       3.162  14.632  17.793  0.00  0.00    +0.000 A 
ATOM     25  C   UNL     1       2.576  14.154  18.956  0.00  0.00    +0.000 A 
ENDBRANCH  11  20
BRANCH   4  26
ATOM     26  O   UNL     1       1.084   9.361  19.740  0.00  0.00    +0.000 OA
BRANCH  26  27
ATOM     27  C   UNL     1       1.542   8.478  20.772  0.00  0.00    +0.000 C 
ATOM     28  C   UNL     1       0.466   8.090  21.792  0.00  0.00    +0.000 C 
BRANCH  27  29
ATOM     29  C   UNL     1       1.962   7.171  20.067  0.00  0.00    +0.000 C 
ATOM     30  O   UNL     1       2.391   7.163  18.914  0.00  0.00    +0.000 OA
ATOM     31  N   UNL     1       1.911   6.041  20.873  0.00  0.00    +0.000 N 
ATOM     32  H   UNL     1       1.382   6.131  21.736  0.00  0.00    +0.000 HD
BRANCH  31  33
ATOM     33  C   UNL     1       2.197   4.731  20.380  0.00  0.00    +0.000 C 
ATOM     34  C   UNL     1       2.135   3.527  21.281  0.00  0.00    +0.000 C 
ATOM     35  C   UNL     1       1.101   3.711  20.211  0.00  0.00    +0.000 C 
ENDBRANCH  31  33
ENDBRANCH  27  29
ENDBRANCH  26  27
ENDBRANCH   4  26
TORSDOF 6
ENDMDL
MODEL 6
REMARK VINA RESULT:      -7.3      0.873      1.221
REMARK  Name = 
REMARK  8 active torsions:
REMARK  status: ('A' for Active; 'I' for Inactive)
REMARK    1  A    between atoms: C_1  and  C_2
REMARK    2  A    between atoms: C_6  and  C_7
REMARK    3  A    between atoms: C_10  and  O_11
REMARK    4  A    between atoms: O_11  and  C_12
REMARK    5  A    between atoms: C_12  and  C_13
REMARK    6  A    between atoms: C_12  and  C_14
REMARK    7  A    between atoms: N_16  and  C_17
REMARK    8  A    between atoms: C_26  and  C_28
REMARK                            x       y       z     vdW  Elec       q    Type
REMARK                         _______ _______ _______ _____ _____    ______ ____
ROOT
ATOM      1  C   UNL     1      -0.128  13.242  22.224  0.00  0.00    +0.000 C 
ATOM      2  C   UNL     1      -0.396  12.056  21.287  0.00  0.00    +0.000 A 
ATOM      3  C   UNL     1       0.485  10.958  21.228  0.00  0.00    +0.000 A 
ATOM      4  C   UNL     1       0.419  10.027  20.179  0.00  0.00    +0.000 A 
ATOM      5  C   UNL     1      -0.633  10.104  19.272  0.00  0.00    +0.000 A 
ATOM      6  C   UNL     1      -1.475  11.224  19.276  0.00  0.00    +0.000 A 
ATOM      7  C   UNL     1      -1.276  12.248  20.207  0.00  0.00    +0.000 A 
ATOM      8  C   UNL     1      -1.823  13.643  19.995  0.00  0.00    +0.000 C 
ATOM      9  C   UNL     1      -0.777  14.742  20.360  0.00  0.00    +0.000 C 
ATOM     10  N   UNL     1       0.288  14.285  21.292  0.00  0.00    +0.000 N 
ATOM     11  C   UNL     1       1.658  14.508  21.218  0.00  0.00    +0.000 C 
ATOM     12  O   UNL     1       2.412  14.290  22.168  0.00  0.00    +0.000 OA
ENDROOT
BRANCH   1  18
ATOM     13  C   UNL     1      -4.553  12.392  24.454  0.00  0.00    +0.000 C 
ATOM     14  C   UNL     1      -3.405  13.331  24.221  0.00  0.00    +0.000 A 
ATOM     15  C   UNL     1      -3.433  14.645  24.685  0.00  0.00    +0.000 A 
ATOM     16  C   UNL     1      -2.356  15.502  24.433  0.00  0.00    +0.000 A 
ATOM     17  C   UNL     1      -1.253  15.069  23.684  0.00  0.00    +0.000 A 
ATOM     18  C   UNL     1      -1.207  13.764  23.183  0.00  0.00    +0.000 A 
ATOM     19  C   UNL     1      -2.289  12.902  23.491  0.00  0.00    +0.000 A 
ENDBRANCH   1  18
BRANCH  11  20
ATOM     20  C   UNL     1       2.290  14.949  19.951  0.00  0.00    +0.000 A 
ATOM     21  C   UNL     1       2.623  13.979  19.002  0.00  0.00    +0.000 A 
ATOM     22  C   UNL     1       3.158  14.371  17.772  0.00  0.00    +0.000 A 
ATOM     23  C   UNL     1       3.362  15.723  17.501  0.00  0.00    +0.000 A 
ATOM     24  C   UNL     1       2.992  16.690  18.430  0.00  0.00    +0.000 A 
ATOM     25  C   UNL     1       2.426  16.301  19.636  0.00  0.00    +0.000 A 
ENDBRANCH  11  20
BRANCH   4  26
ATOM     26  O   UNL     1       1.521   9.222  20.052  0.00  0.00    +0.000 OA
BRANCH  26  27
ATOM     27  C   UNL     1       1.585   8.237  19.013  0.00  0.00    +0.000 C 
ATOM     28  C   UNL     1       2.486   8.623  17.834  0.00  0.00    +0.000 C 
BRANCH  27  29
ATOM     29  C   UNL     1       2.218   6.980  19.648  0.00  0.00    +0.000 C 
ATOM     30  O   UNL     1       1.759   6.465  20.667  0.00  0.00    +0.000 OA
ATOM     31  N   UNL     1       3.268   6.435  18.921  0.00  0.00    +0.000 N 
ATOM     32  H   UNL     1       3.672   7.031  18.204  0.00  0.00    +0.000 HD
BRANCH  31  33
ATOM     33  C   UNL     1       4.022   5.312  19.382  0.00  0.00    +0.000 C 
ATOM     34  C   UNL     1       4.629   4.330  18.417  0.00  0.00    +0.000 C 
ATOM     35  C   UNL     1       5.516   5.255  19.197  0.00  0.00    +0.000 C 
ENDBRANCH  31  33
ENDBRANCH  27  29
ENDBRANCH  26  27
ENDBRANCH   4  26
TORSDOF 6
ENDMDL
MODEL 7
REMARK VINA RESULT:      -7.3      1.650      2.289
REMARK  Name = 
REMARK  8 active torsions:
REMARK  status: ('A' for Active; 'I' for Inactive)
REMARK    1  A    between atoms: C_1  and  C_2
REMARK    2  A    between atoms: C_6  and  C_7
REMARK    3  A    between atoms: C_10  and  O_11
REMARK    4  A    between atoms: O_11  and  C_12
REMARK    5  A    between atoms: C_12  and  C_13
REMARK    6  A    between atoms: C_12  and  C_14
REMARK    7  A    between atoms: N_16  and  C_17
REMARK    8  A    between atoms: C_26  and  C_28
REMARK                            x       y       z     vdW  Elec       q    Type
REMARK                         _______ _______ _______ _____ _____    ______ ____
ROOT
ATOM      1  C   UNL     1      -0.440  13.311  22.186  0.00  0.00    +0.000 C 
ATOM      2  C   UNL     1      -0.781  12.186  21.198  0.00  0.00    +0.000 A 
ATOM      3  C   UNL     1       0.049  11.056  21.064  0.00  0.00    +0.000 A 
ATOM      4  C   UNL     1      -0.080  10.182  19.973  0.00  0.00    +0.000 A 
ATOM      5  C   UNL     1      -1.147  10.351  19.095  0.00  0.00    +0.000 A 
ATOM      6  C   UNL     1      -1.938  11.504  19.174  0.00  0.00    +0.000 A 
ATOM      7  C   UNL     1      -1.674  12.470  20.150  0.00  0.00    +0.000 A 
ATOM      8  C   UNL     1      -2.163  13.897  20.020  0.00  0.00    +0.000 C 
ATOM      9  C   UNL     1      -1.061  14.929  20.414  0.00  0.00    +0.000 C 
ATOM     10  N   UNL     1       0.002  14.380  21.297  0.00  0.00    +0.000 N 
ATOM     11  C   UNL     1       1.379  14.547  21.202  0.00  0.00    +0.000 C 
ATOM     12  O   UNL     1       2.142  14.249  22.123  0.00  0.00    +0.000 OA
ENDROOT
BRANCH   1  18
ATOM     13  C   UNL     1      -1.425  16.496  25.949  0.00  0.00    +0.000 C 
ATOM     14  C   UNL     1      -1.903  15.374  25.073  0.00  0.00    +0.000 A 
ATOM     15  C   UNL     1      -3.119  14.734  25.308  0.00  0.00    +0.000 A 
ATOM     16  C   UNL     1      -3.526  13.679  24.486  0.00  0.00    +0.000 A 
ATOM     17  C   UNL     1      -2.711  13.224  23.440  0.00  0.00    +0.000 A 
ATOM     18  C   UNL     1      -1.473  13.830  23.195  0.00  0.00    +0.000 A 
ATOM     19  C   UNL     1      -1.104  14.927  24.013  0.00  0.00    +0.000 A 
ENDBRANCH   1  18
BRANCH  11  20
ATOM     20  C   UNL     1       2.003  15.023  19.944  0.00  0.00    +0.000 A 
ATOM     21  C   UNL     1       2.171  16.398  19.764  0.00  0.00    +0.000 A 
ATOM     22  C   UNL     1       2.816  16.872  18.619  0.00  0.00    +0.000 A 
ATOM     23  C   UNL     1       3.283  15.974  17.661  0.00  0.00    +0.000 A 
ATOM     24  C   UNL     1       3.151  14.603  17.860  0.00  0.00    +0.000 A 
ATOM     25  C   UNL     1       2.545  14.133  19.016  0.00  0.00    +0.000 A 
ENDBRANCH  11  20
BRANCH   4  26
ATOM     26  O   UNL     1       0.981   9.337  19.780  0.00  0.00    +0.000 OA
BRANCH  26  27
ATOM     27  C   UNL     1       1.419   8.467  20.831  0.00  0.00    +0.000 C 
ATOM     28  C   UNL     1       0.303   8.011  21.777  0.00  0.00    +0.000 C 
BRANCH  27  29
ATOM     29  C   UNL     1       1.952   7.193  20.143  0.00  0.00    +0.000 C 
ATOM     30  O   UNL     1       2.543   7.234  19.065  0.00  0.00    +0.000 OA
ATOM     31  N   UNL     1       1.798   6.030  20.887  0.00  0.00    +0.000 N 
ATOM     32  H   UNL     1       1.149   6.082  21.668  0.00  0.00    +0.000 HD
BRANCH  31  33
ATOM     33  C   UNL     1       2.168   4.743  20.388  0.00  0.00    +0.000 C 
ATOM     34  C   UNL     1       2.145   3.527  21.274  0.00  0.00    +0.000 C 
ATOM     35  C   UNL     1       1.133   3.669  20.177  0.00  0.00    +0.000 C 
ENDBRANCH  31  33
ENDBRANCH  27  29
ENDBRANCH  26  27
ENDBRANCH   4  26
TORSDOF 6
ENDMDL
MODEL 8
REMARK VINA RESULT:      -7.3      0.402      1.495
REMARK  Name = 
REMARK  8 active torsions:
REMARK  status: ('A' for Active; 'I' for Inactive)
REMARK    1  A    between atoms: C_1  and  C_2
REMARK    2  A    between atoms: C_6  and  C_7
REMARK    3  A    between atoms: C_10  and  O_11
REMARK    4  A    between atoms: O_11  and  C_12
REMARK    5  A    between atoms: C_12  and  C_13
REMARK    6  A    between atoms: C_12  and  C_14
REMARK    7  A    between atoms: N_16  and  C_17
REMARK    8  A    between atoms: C_26  and  C_28
REMARK                            x       y       z     vdW  Elec       q    Type
REMARK                         _______ _______ _______ _____ _____    ______ ____
ROOT
ATOM      1  C   UNL     1      -0.367  13.304  22.259  0.00  0.00    +0.000 C 
ATOM      2  C   UNL     1      -0.718  12.186  21.268  0.00  0.00    +0.000 A 
ATOM      3  C   UNL     1       0.087  11.036  21.148  0.00  0.00    +0.000 A 
ATOM      4  C   UNL     1      -0.046  10.164  20.056  0.00  0.00    +0.000 A 
ATOM      5  C   UNL     1      -1.095  10.356  19.162  0.00  0.00    +0.000 A 
ATOM      6  C   UNL     1      -1.860  11.528  19.226  0.00  0.00    +0.000 A 
ATOM      7  C   UNL     1      -1.588  12.489  20.205  0.00  0.00    +0.000 A 
ATOM      8  C   UNL     1      -2.041  13.926  20.066  0.00  0.00    +0.000 C 
ATOM      9  C   UNL     1      -0.921  14.933  20.476  0.00  0.00    +0.000 C 
ATOM     10  N   UNL     1       0.115  14.361  21.375  0.00  0.00    +0.000 N 
ATOM     11  C   UNL     1       1.496  14.495  21.302  0.00  0.00    +0.000 C 
ATOM     12  O   UNL     1       2.238  14.181  22.235  0.00  0.00    +0.000 OA
ENDROOT
BRANCH   1  18
ATOM     13  C   UNL     1      -1.315  16.464  26.052  0.00  0.00    +0.000 C 
ATOM     14  C   UNL     1      -1.817  15.378  25.145  0.00  0.00    +0.000 A 
ATOM     15  C   UNL     1      -3.063  14.785  25.338  0.00  0.00    +0.000 A 
ATOM     16  C   UNL     1      -3.493  13.762  24.488  0.00  0.00    +0.000 A 
ATOM     17  C   UNL     1      -2.670  13.291  23.455  0.00  0.00    +0.000 A 
ATOM     18  C   UNL     1      -1.403  13.849  23.251  0.00  0.00    +0.000 A 
ATOM     19  C   UNL     1      -1.010  14.916  24.097  0.00  0.00    +0.000 A 
ENDBRANCH   1  18
BRANCH  11  20
ATOM     20  C   UNL     1       2.150  14.955  20.053  0.00  0.00    +0.000 A 
ATOM     21  C   UNL     1       2.431  14.009  19.063  0.00  0.00    +0.000 A 
ATOM     22  C   UNL     1       2.986  14.423  17.850  0.00  0.00    +0.000 A 
ATOM     23  C   UNL     1       3.262  15.772  17.635  0.00  0.00    +0.000 A 
ATOM     24  C   UNL     1       2.944  16.718  18.605  0.00  0.00    +0.000 A 
ATOM     25  C   UNL     1       2.358  16.310  19.794  0.00  0.00    +0.000 A 
ENDBRANCH  11  20
BRANCH   4  26
ATOM     26  O   UNL     1       0.998   9.294  19.881  0.00  0.00    +0.000 OA
BRANCH  26  27
ATOM     27  C   UNL     1       1.451   8.957  18.563  0.00  0.00    +0.000 C 
ATOM     28  C   UNL     1       2.249  10.066  17.869  0.00  0.00    +0.000 C 
BRANCH  27  29
ATOM     29  C   UNL     1       2.419   7.767  18.731  0.00  0.00    +0.000 C 
ATOM     30  O   UNL     1       2.332   6.986  19.678  0.00  0.00    +0.000 OA
ATOM     31  N   UNL     1       3.314   7.601  17.682  0.00  0.00    +0.000 N 
ATOM     32  H   UNL     1       3.415   8.391  17.052  0.00  0.00    +0.000 HD
BRANCH  31  33
ATOM     33  C   UNL     1       4.330   6.596  17.689  0.00  0.00    +0.000 C 
ATOM     34  C   UNL     1       4.058   5.206  17.182  0.00  0.00    +0.000 C 
ATOM     35  C   UNL     1       4.956   6.120  16.404  0.00  0.00    +0.000 C 
ENDBRANCH  31  33
ENDBRANCH  27  29
ENDBRANCH  26  27
ENDBRANCH   4  26
TORSDOF 6
ENDMDL
MODEL 9
REMARK VINA RESULT:      -7.3      1.168      1.768
REMARK  Name = 
REMARK  8 active torsions:
REMARK  status: ('A' for Active; 'I' for Inactive)
REMARK    1  A    between atoms: C_1  and  C_2
REMARK    2  A    between atoms: C_6  and  C_7
REMARK    3  A    between atoms: C_10  and  O_11
REMARK    4  A    between atoms: O_11  and  C_12
REMARK    5  A    between atoms: C_12  and  C_13
REMARK    6  A    between atoms: C_12  and  C_14
REMARK    7  A    between atoms: N_16  and  C_17
REMARK    8  A    between atoms: C_26  and  C_28
REMARK                            x       y       z     vdW  Elec       q    Type
REMARK                         _______ _______ _______ _____ _____    ______ ____
ROOT
ATOM      1  C   UNL     1      -0.441  13.257  22.224  0.00  0.00    +0.000 C 
ATOM      2  C   UNL     1      -0.813  12.168  21.209  0.00  0.00    +0.000 A 
ATOM      3  C   UNL     1      -0.011  11.022  21.039  0.00  0.00    +0.000 A 
ATOM      4  C   UNL     1      -0.168  10.181  19.926  0.00  0.00    +0.000 A 
ATOM      5  C   UNL     1      -1.235  10.398  19.060  0.00  0.00    +0.000 A 
ATOM      6  C   UNL     1      -1.998  11.567  19.174  0.00  0.00    +0.000 A 
ATOM      7  C   UNL     1      -1.706  12.500  20.175  0.00  0.00    +0.000 A 
ATOM      8  C   UNL     1      -2.161  13.941  20.086  0.00  0.00    +0.000 C 
ATOM      9  C   UNL     1      -1.033  14.936  20.500  0.00  0.00    +0.000 C 
ATOM     10  N   UNL     1       0.022  14.339  21.361  0.00  0.00    +0.000 N 
ATOM     11  C   UNL     1       1.402  14.476  21.262  0.00  0.00    +0.000 C 
ATOM     12  O   UNL     1       2.163  14.135  22.169  0.00  0.00    +0.000 OA
ENDROOT
BRANCH   1  18
ATOM     13  C   UNL     1      -1.313  16.325  26.110  0.00  0.00    +0.000 C 
ATOM     14  C   UNL     1      -1.831  15.256  25.191  0.00  0.00    +0.000 A 
ATOM     15  C   UNL     1      -3.069  14.651  25.401  0.00  0.00    +0.000 A 
ATOM     16  C   UNL     1      -3.513  13.645  24.538  0.00  0.00    +0.000 A 
ATOM     17  C   UNL     1      -2.714  13.203  23.475  0.00  0.00    +0.000 A 
ATOM     18  C   UNL     1      -1.455  13.773  23.253  0.00  0.00    +0.000 A 
ATOM     19  C   UNL     1      -1.048  14.823  24.113  0.00  0.00    +0.000 A 
ENDBRANCH   1  18
BRANCH  11  20
ATOM     20  C   UNL     1       2.030  14.971  20.013  0.00  0.00    +0.000 A 
ATOM     21  C   UNL     1       2.396  16.317  19.942  0.00  0.00    +0.000 A 
ATOM     22  C   UNL     1       3.050  16.796  18.804  0.00  0.00    +0.000 A 
ATOM     23  C   UNL     1       3.327  15.933  17.745  0.00  0.00    +0.000 A 
ATOM     24  C   UNL     1       2.998  14.584  17.834  0.00  0.00    +0.000 A 
ATOM     25  C   UNL     1       2.383  14.102  18.980  0.00  0.00    +0.000 A 
ENDBRANCH  11  20
BRANCH   4  26
ATOM     26  O   UNL     1       0.872   9.317  19.703  0.00  0.00    +0.000 OA
BRANCH  26  27
ATOM     27  C   UNL     1       1.421   9.162  18.389  0.00  0.00    +0.000 C 
ATOM     28  C   UNL     1       2.276  10.344  17.919  0.00  0.00    +0.000 C 
BRANCH  27  29
ATOM     29  C   UNL     1       2.366   7.944  18.456  0.00  0.00    +0.000 C 
ATOM     30  O   UNL     1       3.308   7.806  17.677  0.00  0.00    +0.000 OA
ATOM     31  N   UNL     1       2.124   7.086  19.521  0.00  0.00    +0.000 N 
ATOM     32  H   UNL     1       1.228   7.195  19.989  0.00  0.00    +0.000 HD
BRANCH  31  33
ATOM     33  C   UNL     1       2.850   5.870  19.711  0.00  0.00    +0.000 C 
ATOM     34  C   UNL     1       2.372   4.818  20.675  0.00  0.00    +0.000 C 
ATOM     35  C   UNL     1       2.311   4.559  19.199  0.00  0.00    +0.000 C 
ENDBRANCH  31  33
ENDBRANCH  27  29
ENDBRANCH  26  27
ENDBRANCH   4  26
TORSDOF 6
ENDMDL
