MODEL 1
REMARK VINA RESULT:      -7.6      0.000      0.000
REMARK  Name = 
REMARK  7 active torsions:
REMARK  status: ('A' for Active; 'I' for Inactive)
REMARK    1  A    between atoms: C_1  and  C_2
REMARK    2  A    between atoms: C_2  and  C_3
REMARK    3  A    between atoms: N_5  and  C_6
REMARK    4  A    between atoms: C_10  and  O_11
REMARK    5  A    between atoms: O_11  and  C_12
REMARK    6  A    between atoms: N_19  and  N_20
REMARK    7  A    between atoms: C_21  and  C_22
REMARK                            x       y       z     vdW  Elec       q    Type
REMARK                         _______ _______ _______ _____ _____    ______ ____
ROOT
ATOM      1  C   UNL     1      -0.651  11.068  19.921  0.00  0.00    +0.000 A 
ATOM      2  N   UNL     1      -1.548  11.858  20.521  0.00  0.00    +0.000 NA
ATOM      3  N   UNL     1      -1.375  11.651  21.858  0.00  0.00    +0.000 N 
ATOM      4  C   UNL     1      -0.413  10.673  22.094  0.00  0.00    +0.000 A 
ATOM      5  N   UNL     1       0.001  10.197  23.287  0.00  0.00    +0.000 NA
ATOM      6  C   UNL     1       0.949   9.264  23.167  0.00  0.00    +0.000 A 
ATOM      7  N   UNL     1       1.478   8.783  22.036  0.00  0.00    +0.000 NA
ATOM      8  C   UNL     1       1.038   9.252  20.837  0.00  0.00    +0.000 A 
ATOM      9  N   UNL     1       1.593   8.740  19.643  0.00  0.00    +0.000 N 
ATOM     10  C   UNL     1       0.056  10.262  20.852  0.00  0.00    +0.000 A 
ATOM     11  H   UNL     1       1.005   8.975  18.851  0.00  0.00    +0.000 HD
ENDROOT
BRANCH   3  12
ATOM     12  C   UNL     1      -2.133  12.424  22.792  0.00  0.00    +0.000 A 
ATOM     13  C   UNL     1      -1.632  13.663  23.225  0.00  0.00    +0.000 A 
ATOM     14  C   UNL     1      -2.355  14.437  24.132  0.00  0.00    +0.000 A 
ATOM     15  C   UNL     1      -3.573  13.974  24.624  0.00  0.00    +0.000 A 
ATOM     16  C   UNL     1      -4.079  12.738  24.219  0.00  0.00    +0.000 A 
ATOM     17  C   UNL     1      -3.360  11.969  23.299  0.00  0.00    +0.000 A 
BRANCH  16  18
ATOM     18  O   UNL     1      -5.272  12.389  24.793  0.00  0.00    +0.000 OA
ATOM     19  C   UNL     1      -6.455  12.733  24.079  0.00  0.00    +0.000 C 
ENDBRANCH  16  18
ENDBRANCH   3  12
BRANCH   1  21
ATOM     20  C   UNL     1      -1.687  10.643  17.654  0.00  0.00    +0.000 C 
ATOM     21  C   UNL     1      -0.503  11.185  18.438  0.00  0.00    +0.000 C 
ENDBRANCH   1  21
BRANCH   9  22
ATOM     22  N   UNL     1       1.990   7.432  19.673  0.00  0.00    +0.000 NA
ATOM     23  C   UNL     1       2.413   7.005  18.526  0.00  0.00    +0.000 C 
BRANCH  23  24
ATOM     24  C   UNL     1       2.820   5.606  18.310  0.00  0.00    +0.000 A 
ATOM     25  C   UNL     1       1.933   4.674  17.778  0.00  0.00    +0.000 A 
ATOM     26  C   UNL     1       2.409   3.394  17.554  0.00  0.00    +0.000 A 
ATOM     27  N   UNL     1       3.675   3.006  17.825  0.00  0.00    +0.000 NA
ATOM     28  C   UNL     1       4.504   3.932  18.350  0.00  0.00    +0.000 A 
ATOM     29  C   UNL     1       4.129   5.238  18.610  0.00  0.00    +0.000 A 
ENDBRANCH  23  24
ENDBRANCH   9  22
TORSDOF 5
ENDMDL
MODEL 2
REMARK VINA RESULT:      -7.6      1.096      1.979
REMARK  Name = 
REMARK  7 active torsions:
REMARK  status: ('A' for Active; 'I' for Inactive)
REMARK    1  A    between atoms: C_1  and  C_2
REMARK    2  A    between atoms: C_2  and  C_3
REMARK    3  A    between atoms: N_5  and  C_6
REMARK    4  A    between atoms: C_10  and  O_11
REMARK    5  A    between atoms: O_11  and  C_12
REMARK    6  A    between atoms: N_19  and  N_20
REMARK    7  A    between atoms: C_21  and  C_22
REMARK                            x       y       z     vdW  Elec       q    Type
REMARK                         _______ _______ _______ _____ _____    ______ ____
ROOT
ATOM      1  C   UNL     1      -0.753  11.273  19.904  0.00  0.00    +0.000 A 
ATOM      2  N   UNL     1      -1.589  12.067  20.580  0.00  0.00    +0.000 NA
ATOM      3  N   UNL     1      -1.340  11.817  21.898  0.00  0.00    +0.000 N 
ATOM      4  C   UNL     1      -0.392  10.808  22.046  0.00  0.00    +0.000 A 
ATOM      5  N   UNL     1       0.082  10.287  23.197  0.00  0.00    +0.000 NA
ATOM      6  C   UNL     1       0.996   9.335  22.992  0.00  0.00    +0.000 A 
ATOM      7  N   UNL     1       1.441   8.874  21.818  0.00  0.00    +0.000 NA
ATOM      8  C   UNL     1       0.940   9.389  20.662  0.00  0.00    +0.000 A 
ATOM      9  N   UNL     1       1.407   8.899  19.422  0.00  0.00    +0.000 N 
ATOM     10  C   UNL     1      -0.011  10.422  20.766  0.00  0.00    +0.000 A 
ATOM     11  H   UNL     1       0.778   9.171  18.674  0.00  0.00    +0.000 HD
ENDROOT
BRANCH   3  12
ATOM     12  C   UNL     1      -2.018  12.580  22.898  0.00  0.00    +0.000 A 
ATOM     13  C   UNL     1      -3.238  12.108  23.411  0.00  0.00    +0.000 A 
ATOM     14  C   UNL     1      -3.918  12.832  24.391  0.00  0.00    +0.000 A 
ATOM     15  C   UNL     1      -3.393  14.037  24.854  0.00  0.00    +0.000 A 
ATOM     16  C   UNL     1      -2.191  14.531  24.343  0.00  0.00    +0.000 A 
ATOM     17  C   UNL     1      -1.504  13.797  23.371  0.00  0.00    +0.000 A 
BRANCH  16  18
ATOM     18  O   UNL     1      -1.797  15.733  24.863  0.00  0.00    +0.000 OA
ATOM     19  C   UNL     1      -1.322  15.730  26.205  0.00  0.00    +0.000 C 
ENDBRANCH  16  18
ENDBRANCH   3  12
BRANCH   1  21
ATOM     20  C   UNL     1      -1.464  10.366  17.653  0.00  0.00    +0.000 C 
ATOM     21  C   UNL     1      -0.693  11.430  18.418  0.00  0.00    +0.000 C 
ENDBRANCH   1  21
BRANCH   9  22
ATOM     22  N   UNL     1       1.770   7.581  19.391  0.00  0.00    +0.000 NA
ATOM     23  C   UNL     1       2.489   7.279  18.357  0.00  0.00    +0.000 C 
BRANCH  23  24
ATOM     24  C   UNL     1       2.928   5.900  18.082  0.00  0.00    +0.000 A 
ATOM     25  C   UNL     1       4.266   5.610  17.824  0.00  0.00    +0.000 A 
ATOM     26  C   UNL     1       4.607   4.284  17.631  0.00  0.00    +0.000 A 
ATOM     27  N   UNL     1       3.718   3.266  17.675  0.00  0.00    +0.000 NA
ATOM     28  C   UNL     1       2.429   3.584  17.916  0.00  0.00    +0.000 A 
ATOM     29  C   UNL     1       1.985   4.877  18.125  0.00  0.00    +0.000 A 
ENDBRANCH  23  24
ENDBRANCH   9  22
TORSDOF 5
ENDMDL
MODEL 3
REMARK VINA RESULT:      -7.4      0.715      1.134
REMARK  Name = 
REMARK  7 active torsions:
REMARK  status: ('A' for Active; 'I' for Inactive)
REMARK    1  A    between atoms: C_1  and  C_2
REMARK    2  A    between atoms: C_2  and  C_3
REMARK    3  A    between atoms: N_5  and  C_6
REMARK    4  A    between atoms: C_10  and  O_11
REMARK    5  A    between atoms: O_11  and  C_12
REMARK    6  A    between atoms: N_19  and  N_20
REMARK    7  A    between atoms: C_21  and  C_22
REMARK                            x       y       z     vdW  Elec       q    Type
REMARK                         _______ _______ _______ _____ _____    ______ ____
ROOT
ATOM      1  C   UNL     1      -0.312  11.625  20.040  0.00  0.00    +0.000 A 
ATOM      2  N   UNL     1      -1.211  12.394  20.661  0.00  0.00    +0.000 NA
ATOM      3  N   UNL     1      -1.235  11.953  21.952  0.00  0.00    +0.000 N 
ATOM      4  C   UNL     1      -0.398  10.853  22.121  0.00  0.00    +0.000 A 
ATOM      5  N   UNL     1      -0.186  10.146  23.250  0.00  0.00    +0.000 NA
ATOM      6  C   UNL     1       0.689   9.151  23.078  0.00  0.00    +0.000 A 
ATOM      7  N   UNL     1       1.320   8.811  21.949  0.00  0.00    +0.000 NA
ATOM      8  C   UNL     1       1.084   9.515  20.810  0.00  0.00    +0.000 A 
ATOM      9  N   UNL     1       1.748   9.152  19.616  0.00  0.00    +0.000 N 
ATOM     10  C   UNL     1       0.196  10.606  20.889  0.00  0.00    +0.000 A 
ATOM     11  H   UNL     1       1.292   9.575  18.815  0.00  0.00    +0.000 HD
ENDROOT
BRANCH   3  12
ATOM     12  C   UNL     1      -2.043  12.635  22.913  0.00  0.00    +0.000 A 
ATOM     13  C   UNL     1      -1.601  13.863  23.434  0.00  0.00    +0.000 A 
ATOM     14  C   UNL     1      -2.374  14.550  24.369  0.00  0.00    +0.000 A 
ATOM     15  C   UNL     1      -3.584  14.011  24.802  0.00  0.00    +0.000 A 
ATOM     16  C   UNL     1      -4.030  12.784  24.310  0.00  0.00    +0.000 A 
ATOM     17  C   UNL     1      -3.262  12.103  23.361  0.00  0.00    +0.000 A 
BRANCH  16  18
ATOM     18  O   UNL     1      -5.221  12.354  24.832  0.00  0.00    +0.000 OA
ATOM     19  C   UNL     1      -6.402  12.712  24.123  0.00  0.00    +0.000 C 
ENDBRANCH  16  18
ENDBRANCH   3  12
BRANCH   1  21
ATOM     20  C   UNL     1      -0.496  13.315  18.168  0.00  0.00    +0.000 C 
ATOM     21  C   UNL     1       0.041  11.970  18.628  0.00  0.00    +0.000 C 
ENDBRANCH   1  21
BRANCH   9  22
ATOM     22  N   UNL     1       2.027   7.823  19.460  0.00  0.00    +0.000 NA
ATOM     23  C   UNL     1       2.612   7.558  18.335  0.00  0.00    +0.000 C 
BRANCH  23  24
ATOM     24  C   UNL     1       2.938   6.181  17.925  0.00  0.00    +0.000 A 
ATOM     25  C   UNL     1       4.212   5.849  17.473  0.00  0.00    +0.000 A 
ATOM     26  C   UNL     1       4.454   4.523  17.160  0.00  0.00    +0.000 A 
ATOM     27  N   UNL     1       3.526   3.546  17.265  0.00  0.00    +0.000 NA
ATOM     28  C   UNL     1       2.298   3.906  17.696  0.00  0.00    +0.000 A 
ATOM     29  C   UNL     1       1.955   5.202  18.036  0.00  0.00    +0.000 A 
ENDBRANCH  23  24
ENDBRANCH   9  22
TORSDOF 5
ENDMDL
MODEL 4
REMARK VINA RESULT:      -7.3      1.309      2.012
REMARK  Name = 
REMARK  7 active torsions:
REMARK  status: ('A' for Active; 'I' for Inactive)
REMARK    1  A    between atoms: C_1  and  C_2
REMARK    2  A    between atoms: C_2  and  C_3
REMARK    3  A    between atoms: N_5  and  C_6
REMARK    4  A    between atoms: C_10  and  O_11
REMARK    5  A    between atoms: O_11  and  C_12
REMARK    6  A    between atoms: N_19  and  N_20
REMARK    7  A    between atoms: C_21  and  C_22
REMARK                            x       y       z     vdW  Elec       q    Type
REMARK                         _______ _______ _______ _____ _____    ______ ____
ROOT
ATOM      1  C   UNL     1      -0.520  11.732  20.085  0.00  0.00    +0.000 A 
ATOM      2  N   UNL     1      -1.379  12.509  20.752  0.00  0.00    +0.000 NA
ATOM      3  N   UNL     1      -1.322  12.082  22.047  0.00  0.00    +0.000 N 
ATOM      4  C   UNL     1      -0.475  10.985  22.177  0.00  0.00    +0.000 A 
ATOM      5  N   UNL     1      -0.194  10.291  23.299  0.00  0.00    +0.000 NA
ATOM      6  C   UNL     1       0.669   9.295  23.084  0.00  0.00    +0.000 A 
ATOM      7  N   UNL     1       1.230   8.941  21.922  0.00  0.00    +0.000 NA
ATOM      8  C   UNL     1       0.923   9.632  20.792  0.00  0.00    +0.000 A 
ATOM      9  N   UNL     1       1.512   9.255  19.564  0.00  0.00    +0.000 N 
ATOM     10  C   UNL     1       0.041  10.724  20.913  0.00  0.00    +0.000 A 
ATOM     11  H   UNL     1       1.007   9.668  18.787  0.00  0.00    +0.000 HD
ENDROOT
BRANCH   3  12
ATOM     12  C   UNL     1      -2.070  12.776  23.048  0.00  0.00    +0.000 A 
ATOM     13  C   UNL     1      -3.291  12.238  23.488  0.00  0.00    +0.000 A 
ATOM     14  C   UNL     1      -4.038  12.894  24.467  0.00  0.00    +0.000 A 
ATOM     15  C   UNL     1      -3.579  14.095  25.002  0.00  0.00    +0.000 A 
ATOM     16  C   UNL     1      -2.377  14.654  24.565  0.00  0.00    +0.000 A 
ATOM     17  C   UNL     1      -1.623  13.989  23.593  0.00  0.00    +0.000 A 
BRANCH  16  18
ATOM     18  O   UNL     1      -2.051  15.847  25.151  0.00  0.00    +0.000 OA
ATOM     19  C   UNL     1      -1.084  15.808  26.195  0.00  0.00    +0.000 C 
ENDBRANCH  16  18
ENDBRANCH   3  12
BRANCH   1  21
ATOM     20  C   UNL     1       0.472  13.380  18.443  0.00  0.00    +0.000 C 
ATOM     21  C   UNL     1      -0.255  12.061  18.650  0.00  0.00    +0.000 C 
ENDBRANCH   1  21
BRANCH   9  22
ATOM     22  N   UNL     1       1.782   7.924  19.406  0.00  0.00    +0.000 NA
ATOM     23  C   UNL     1       2.565   7.683  18.403  0.00  0.00    +0.000 C 
BRANCH  23  24
ATOM     24  C   UNL     1       2.928   6.312  18.003  0.00  0.00    +0.000 A 
ATOM     25  C   UNL     1       2.020   5.264  18.123  0.00  0.00    +0.000 A 
ATOM     26  C   UNL     1       2.418   4.018  17.674  0.00  0.00    +0.000 A 
ATOM     27  N   UNL     1       3.632   3.767  17.135  0.00  0.00    +0.000 NA
ATOM     28  C   UNL     1       4.492   4.803  17.044  0.00  0.00    +0.000 A 
ATOM     29  C   UNL     1       4.191   6.088  17.461  0.00  0.00    +0.000 A 
ENDBRANCH  23  24
ENDBRANCH   9  22
TORSDOF 5
ENDMDL
MODEL 5
REMARK VINA RESULT:      -7.2      4.049     10.526
REMARK  Name = 
REMARK  7 active torsions:
REMARK  status: ('A' for Active; 'I' for Inactive)
REMARK    1  A    between atoms: C_1  and  C_2
REMARK    2  A    between atoms: C_2  and  C_3
REMARK    3  A    between atoms: N_5  and  C_6
REMARK    4  A    between atoms: C_10  and  O_11
REMARK    5  A    between atoms: O_11  and  C_12
REMARK    6  A    between atoms: N_19  and  N_20
REMARK    7  A    between atoms: C_21  and  C_22
REMARK                            x       y       z     vdW  Elec       q    Type
REMARK                         _______ _______ _______ _____ _____    ______ ____
ROOT
ATOM      1  C   UNL     1       2.935   5.127  20.040  0.00  0.00    +0.000 A 
ATOM      2  N   UNL     1       3.690   4.432  19.184  0.00  0.00    +0.000 NA
ATOM      3  N   UNL     1       4.035   5.316  18.204  0.00  0.00    +0.000 N 
ATOM      4  C   UNL     1       3.434   6.554  18.411  0.00  0.00    +0.000 A 
ATOM      5  N   UNL     1       3.530   7.656  17.639  0.00  0.00    +0.000 NA
ATOM      6  C   UNL     1       2.834   8.687  18.124  0.00  0.00    +0.000 A 
ATOM      7  N   UNL     1       2.086   8.713  19.233  0.00  0.00    +0.000 NA
ATOM      8  C   UNL     1       1.975   7.591  19.994  0.00  0.00    +0.000 A 
ATOM      9  N   UNL     1       1.181   7.618  21.162  0.00  0.00    +0.000 N 
ATOM     10  C   UNL     1       2.695   6.451  19.585  0.00  0.00    +0.000 A 
ATOM     11  H   UNL     1       0.979   6.674  21.474  0.00  0.00    +0.000 HD
ENDROOT
BRANCH   3  12
ATOM     12  C   UNL     1       4.927   4.902  17.167  0.00  0.00    +0.000 A 
ATOM     13  C   UNL     1       6.301   4.804  17.441  0.00  0.00    +0.000 A 
ATOM     14  C   UNL     1       7.191   4.398  16.447  0.00  0.00    +0.000 A 
ATOM     15  C   UNL     1       6.719   4.102  15.170  0.00  0.00    +0.000 A 
ATOM     16  C   UNL     1       5.360   4.211  14.874  0.00  0.00    +0.000 A 
ATOM     17  C   UNL     1       4.467   4.605  15.875  0.00  0.00    +0.000 A 
BRANCH  16  18
ATOM     18  O   UNL     1       5.028   3.915  13.579  0.00  0.00    +0.000 OA
ATOM     19  C   UNL     1       6.087   3.506  12.720  0.00  0.00    +0.000 C 
ENDBRANCH  16  18
ENDBRANCH   3  12
BRANCH   1  21
ATOM     20  C   UNL     1       2.429   2.939  21.202  0.00  0.00    +0.000 C 
ATOM     21  C   UNL     1       2.520   4.453  21.309  0.00  0.00    +0.000 C 
ENDBRANCH   1  21
BRANCH   9  22
ATOM     22  N   UNL     1       0.089   8.439  21.132  0.00  0.00    +0.000 NA
ATOM     23  C   UNL     1       0.314   9.599  21.663  0.00  0.00    +0.000 C 
BRANCH  23  24
ATOM     24  C   UNL     1      -0.743  10.616  21.805  0.00  0.00    +0.000 A 
ATOM     25  C   UNL     1      -1.305  10.899  23.046  0.00  0.00    +0.000 A 
ATOM     26  C   UNL     1      -2.252  11.906  23.105  0.00  0.00    +0.000 A 
ATOM     27  N   UNL     1      -2.658  12.618  22.031  0.00  0.00    +0.000 NA
ATOM     28  C   UNL     1      -2.100  12.310  20.841  0.00  0.00    +0.000 A 
ATOM     29  C   UNL     1      -1.144  11.323  20.675  0.00  0.00    +0.000 A 
ENDBRANCH  23  24
ENDBRANCH   9  22
TORSDOF 5
ENDMDL
MODEL 6
REMARK VINA RESULT:      -7.2      1.286      1.287
REMARK  Name = 
REMARK  7 active torsions:
REMARK  status: ('A' for Active; 'I' for Inactive)
REMARK    1  A    between atoms: C_1  and  C_2
REMARK    2  A    between atoms: C_2  and  C_3
REMARK    3  A    between atoms: N_5  and  C_6
REMARK    4  A    between atoms: C_10  and  O_11
REMARK    5  A    between atoms: O_11  and  C_12
REMARK    6  A    between atoms: N_19  and  N_20
REMARK    7  A    between atoms: C_21  and  C_22
REMARK                            x       y       z     vdW  Elec       q    Type
REMARK                         _______ _______ _______ _____ _____    ______ ____
ROOT
ATOM      1  C   UNL     1      -0.680  10.608  19.578  0.00  0.00    +0.000 A 
ATOM      2  N   UNL     1      -1.592  11.536  19.882  0.00  0.00    +0.000 NA
ATOM      3  N   UNL     1      -1.538  11.666  21.239  0.00  0.00    +0.000 N 
ATOM      4  C   UNL     1      -0.636  10.763  21.794  0.00  0.00    +0.000 A 
ATOM      5  N   UNL     1      -0.339  10.592  23.099  0.00  0.00    +0.000 NA
ATOM      6  C   UNL     1       0.580   9.644  23.297  0.00  0.00    +0.000 A 
ATOM      7  N   UNL     1       1.182   8.888  22.372  0.00  0.00    +0.000 NA
ATOM      8  C   UNL     1       0.860   9.050  21.060  0.00  0.00    +0.000 A 
ATOM      9  N   UNL     1       1.492   8.249  20.084  0.00  0.00    +0.000 N 
ATOM     10  C   UNL     1      -0.082  10.048  20.738  0.00  0.00    +0.000 A 
ATOM     11  H   UNL     1       0.981   8.288  19.208  0.00  0.00    +0.000 HD
ENDROOT
BRANCH   3  12
ATOM     12  C   UNL     1      -2.341  12.658  21.882  0.00  0.00    +0.000 A 
ATOM     13  C   UNL     1      -2.067  14.017  21.654  0.00  0.00    +0.000 A 
ATOM     14  C   UNL     1      -2.839  15.004  22.266  0.00  0.00    +0.000 A 
ATOM     15  C   UNL     1      -3.879  14.643  23.120  0.00  0.00    +0.000 A 
ATOM     16  C   UNL     1      -4.155  13.298  23.373  0.00  0.00    +0.000 A 
ATOM     17  C   UNL     1      -3.389  12.309  22.748  0.00  0.00    +0.000 A 
BRANCH  16  18
ATOM     18  O   UNL     1      -5.185  13.077  24.247  0.00  0.00    +0.000 OA
ATOM     19  C   UNL     1      -6.494  13.410  23.798  0.00  0.00    +0.000 C 
ENDBRANCH  16  18
ENDBRANCH   3  12
BRANCH   1  21
ATOM     20  C   UNL     1      -1.640   9.984  17.324  0.00  0.00    +0.000 C 
ATOM     21  C   UNL     1      -0.405  10.350  18.131  0.00  0.00    +0.000 C 
ENDBRANCH   1  21
BRANCH   9  22
ATOM     22  N   UNL     1       1.837   6.984  20.470  0.00  0.00    +0.000 NA
ATOM     23  C   UNL     1       2.575   6.373  19.600  0.00  0.00    +0.000 C 
BRANCH  23  24
ATOM     24  C   UNL     1       3.002   4.973  19.776  0.00  0.00    +0.000 A 
ATOM     25  C   UNL     1       2.166   4.039  20.382  0.00  0.00    +0.000 A 
ATOM     26  C   UNL     1       2.617   2.733  20.460  0.00  0.00    +0.000 A 
ATOM     27  N   UNL     1       3.815   2.324  19.987  0.00  0.00    +0.000 NA
ATOM     28  C   UNL     1       4.604   3.258  19.416  0.00  0.00    +0.000 A 
ATOM     29  C   UNL     1       4.247   4.588  19.287  0.00  0.00    +0.000 A 
ENDBRANCH  23  24
ENDBRANCH   9  22
TORSDOF 5
ENDMDL
MODEL 7
REMARK VINA RESULT:      -7.1      2.199      2.927
REMARK  Name = 
REMARK  7 active torsions:
REMARK  status: ('A' for Active; 'I' for Inactive)
REMARK    1  A    between atoms: C_1  and  C_2
REMARK    2  A    between atoms: C_2  and  C_3
REMARK    3  A    between atoms: N_5  and  C_6
REMARK    4  A    between atoms: C_10  and  O_11
REMARK    5  A    between atoms: O_11  and  C_12
REMARK    6  A    between atoms: N_19  and  N_20
REMARK    7  A    between atoms: C_21  and  C_22
REMARK                            x       y       z     vdW  Elec       q    Type
REMARK                         _______ _______ _______ _____ _____    ______ ____
ROOT
ATOM      1  C   UNL     1      -2.348  10.757  17.986  0.00  0.00    +0.000 A 
ATOM      2  N   UNL     1      -3.475  11.234  18.523  0.00  0.00    +0.000 NA
ATOM      3  N   UNL     1      -3.081  11.955  19.612  0.00  0.00    +0.000 N 
ATOM      4  C   UNL     1      -1.704  11.869  19.798  0.00  0.00    +0.000 A 
ATOM      5  N   UNL     1      -0.969  12.433  20.780  0.00  0.00    +0.000 NA
ATOM      6  C   UNL     1       0.334  12.163  20.666  0.00  0.00    +0.000 A 
ATOM      7  N   UNL     1       0.931  11.417  19.730  0.00  0.00    +0.000 NA
ATOM      8  C   UNL     1       0.180  10.833  18.758  0.00  0.00    +0.000 A 
ATOM      9  N   UNL     1       0.811  10.042  17.772  0.00  0.00    +0.000 N 
ATOM     10  C   UNL     1      -1.207  11.078  18.769  0.00  0.00    +0.000 A 
ATOM     11  H   UNL     1       0.127   9.470  17.286  0.00  0.00    +0.000 HD
ENDROOT
BRANCH   3  12
ATOM     12  C   UNL     1      -4.056  12.678  20.367  0.00  0.00    +0.000 A 
ATOM     13  C   UNL     1      -4.985  13.487  19.691  0.00  0.00    +0.000 A 
ATOM     14  C   UNL     1      -5.949  14.199  20.405  0.00  0.00    +0.000 A 
ATOM     15  C   UNL     1      -5.984  14.120  21.795  0.00  0.00    +0.000 A 
ATOM     16  C   UNL     1      -5.058  13.336  22.484  0.00  0.00    +0.000 A 
ATOM     17  C   UNL     1      -4.101  12.611  21.768  0.00  0.00    +0.000 A 
BRANCH  16  18
ATOM     18  O   UNL     1      -5.185  13.362  23.847  0.00  0.00    +0.000 OA
ATOM     19  C   UNL     1      -4.262  12.578  24.595  0.00  0.00    +0.000 C 
ENDBRANCH  16  18
ENDBRANCH   3  12
BRANCH   1  21
ATOM     20  C   UNL     1      -3.041  10.874  15.557  0.00  0.00    +0.000 C 
ATOM     21  C   UNL     1      -2.450  10.036  16.680  0.00  0.00    +0.000 C 
ENDBRANCH   1  21
BRANCH   9  22
ATOM     22  N   UNL     1       1.926   9.358  18.168  0.00  0.00    +0.000 NA
ATOM     23  C   UNL     1       1.921   8.119  17.789  0.00  0.00    +0.000 C 
BRANCH  23  24
ATOM     24  C   UNL     1       2.989   7.177  18.169  0.00  0.00    +0.000 A 
ATOM     25  C   UNL     1       2.857   6.354  19.284  0.00  0.00    +0.000 A 
ATOM     26  C   UNL     1       3.879   5.458  19.542  0.00  0.00    +0.000 A 
ATOM     27  N   UNL     1       4.988   5.345  18.778  0.00  0.00    +0.000 NA
ATOM     28  C   UNL     1       5.088   6.166  17.711  0.00  0.00    +0.000 A 
ATOM     29  C   UNL     1       4.122   7.094  17.366  0.00  0.00    +0.000 A 
ENDBRANCH  23  24
ENDBRANCH   9  22
TORSDOF 5
ENDMDL
MODEL 8
REMARK VINA RESULT:      -7.1      1.175      1.838
REMARK  Name = 
REMARK  7 active torsions:
REMARK  status: ('A' for Active; 'I' for Inactive)
REMARK    1  A    between atoms: C_1  and  C_2
REMARK    2  A    between atoms: C_2  and  C_3
REMARK    3  A    between atoms: N_5  and  C_6
REMARK    4  A    between atoms: C_10  and  O_11
REMARK    5  A    between atoms: O_11  and  C_12
REMARK    6  A    between atoms: N_19  and  N_20
REMARK    7  A    between atoms: C_21  and  C_22
REMARK                            x       y       z     vdW  Elec       q    Type
REMARK                         _______ _______ _______ _____ _____    ______ ____
ROOT
ATOM      1  C   UNL     1      -0.833  11.180  19.879  0.00  0.00    +0.000 A 
ATOM      2  N   UNL     1      -1.783  11.991  20.355  0.00  0.00    +0.000 NA
ATOM      3  N   UNL     1      -1.733  11.850  21.711  0.00  0.00    +0.000 N 
ATOM      4  C   UNL     1      -0.794  10.891  22.082  0.00  0.00    +0.000 A 
ATOM      5  N   UNL     1      -0.490  10.476  23.329  0.00  0.00    +0.000 NA
ATOM      6  C   UNL     1       0.468   9.545  23.342  0.00  0.00    +0.000 A 
ATOM      7  N   UNL     1       1.099   9.014  22.289  0.00  0.00    +0.000 NA
ATOM      8  C   UNL     1       0.770   9.421  21.034  0.00  0.00    +0.000 A 
ATOM      9  N   UNL     1       1.434   8.857  19.922  0.00  0.00    +0.000 N 
ATOM     10  C   UNL     1      -0.212  10.424  20.909  0.00  0.00    +0.000 A 
ATOM     11  H   UNL     1       0.921   9.049  19.068  0.00  0.00    +0.000 HD
ENDROOT
BRANCH   3  12
ATOM     12  C   UNL     1      -2.576  12.661  22.533  0.00  0.00    +0.000 A 
ATOM     13  C   UNL     1      -3.970  12.523  22.432  0.00  0.00    +0.000 A 
ATOM     14  C   UNL     1      -4.814  13.299  23.226  0.00  0.00    +0.000 A 
ATOM     15  C   UNL     1      -4.274  14.227  24.113  0.00  0.00    +0.000 A 
ATOM     16  C   UNL     1      -2.892  14.392  24.214  0.00  0.00    +0.000 A 
ATOM     17  C   UNL     1      -2.046  13.603  23.428  0.00  0.00    +0.000 A 
BRANCH  16  18
ATOM     18  O   UNL     1      -2.491  15.351  25.104  0.00  0.00    +0.000 OA
ATOM     19  C   UNL     1      -1.088  15.536  25.264  0.00  0.00    +0.000 C 
ENDBRANCH  16  18
ENDBRANCH   3  12
BRANCH   1  21
ATOM     20  C   UNL     1      -1.365  10.239  17.593  0.00  0.00    +0.000 C 
ATOM     21  C   UNL     1      -0.549  11.227  18.412  0.00  0.00    +0.000 C 
ENDBRANCH   1  21
BRANCH   9  22
ATOM     22  N   UNL     1       1.830   7.555  20.051  0.00  0.00    +0.000 NA
ATOM     23  C   UNL     1       2.321   7.064  18.958  0.00  0.00    +0.000 C 
BRANCH  23  24
ATOM     24  C   UNL     1       2.743   5.657  18.848  0.00  0.00    +0.000 A 
ATOM     25  C   UNL     1       2.425   4.733  19.840  0.00  0.00    +0.000 A 
ATOM     26  C   UNL     1       2.808   3.419  19.637  0.00  0.00    +0.000 A 
ATOM     27  N   UNL     1       3.471   2.992  18.539  0.00  0.00    +0.000 NA
ATOM     28  C   UNL     1       3.773   3.917  17.603  0.00  0.00    +0.000 A 
ATOM     29  C   UNL     1       3.433   5.254  17.709  0.00  0.00    +0.000 A 
ENDBRANCH  23  24
ENDBRANCH   9  22
TORSDOF 5
ENDMDL
MODEL 9
REMARK VINA RESULT:      -7.1      4.653     11.092
REMARK  Name = 
REMARK  7 active torsions:
REMARK  status: ('A' for Active; 'I' for Inactive)
REMARK    1  A    between atoms: C_1  and  C_2
REMARK    2  A    between atoms: C_2  and  C_3
REMARK    3  A    between atoms: N_5  and  C_6
REMARK    4  A    between atoms: C_10  and  O_11
REMARK    5  A    between atoms: O_11  and  C_12
REMARK    6  A    between atoms: N_19  and  N_20
REMARK    7  A    between atoms: C_21  and  C_22
REMARK                            x       y       z     vdW  Elec       q    Type
REMARK                         _______ _______ _______ _____ _____    ______ ____
ROOT
ATOM      1  C   UNL     1       3.937   3.849  18.300  0.00  0.00    +0.000 A 
ATOM      2  N   UNL     1       4.565   3.419  17.202  0.00  0.00    +0.000 NA
ATOM      3  N   UNL     1       4.815   4.540  16.466  0.00  0.00    +0.000 N 
ATOM      4  C   UNL     1       4.276   5.670  17.074  0.00  0.00    +0.000 A 
ATOM      5  N   UNL     1       4.309   6.941  16.625  0.00  0.00    +0.000 NA
ATOM      6  C   UNL     1       3.704   7.796  17.454  0.00  0.00    +0.000 A 
ATOM      7  N   UNL     1       3.094   7.513  18.610  0.00  0.00    +0.000 NA
ATOM      8  C   UNL     1       3.045   6.225  19.044  0.00  0.00    +0.000 A 
ATOM      9  N   UNL     1       2.397   5.925  20.264  0.00  0.00    +0.000 N 
ATOM     10  C   UNL     1       3.680   5.245  18.256  0.00  0.00    +0.000 A 
ATOM     11  H   UNL     1       2.208   4.930  20.329  0.00  0.00    +0.000 HD
ENDROOT
BRANCH   3  12
ATOM     12  C   UNL     1       5.565   4.431  15.254  0.00  0.00    +0.000 A 
ATOM     13  C   UNL     1       6.813   5.069  15.159  0.00  0.00    +0.000 A 
ATOM     14  C   UNL     1       7.566   4.975  13.989  0.00  0.00    +0.000 A 
ATOM     15  C   UNL     1       7.073   4.257  12.902  0.00  0.00    +0.000 A 
ATOM     16  C   UNL     1       5.827   3.631  12.970  0.00  0.00    +0.000 A 
ATOM     17  C   UNL     1       5.080   3.715  14.149  0.00  0.00    +0.000 A 
BRANCH  16  18
ATOM     18  O   UNL     1       5.449   2.979  11.828  0.00  0.00    +0.000 OA
ATOM     19  C   UNL     1       4.145   3.256  11.330  0.00  0.00    +0.000 C 
ENDBRANCH  16  18
ENDBRANCH   3  12
BRANCH   1  21
ATOM     20  C   UNL     1       2.266   2.243  19.313  0.00  0.00    +0.000 C 
ATOM     21  C   UNL     1       3.658   2.850  19.379  0.00  0.00    +0.000 C 
ENDBRANCH   1  21
BRANCH   9  22
ATOM     22  N   UNL     1       1.332   6.716  20.592  0.00  0.00    +0.000 NA
ATOM     23  C   UNL     1       1.677   7.922  20.914  0.00  0.00    +0.000 C 
BRANCH  23  24
ATOM     24  C   UNL     1       0.699   8.923  21.374  0.00  0.00    +0.000 A 
ATOM     25  C   UNL     1       0.329   9.003  22.713  0.00  0.00    +0.000 A 
ATOM     26  C   UNL     1      -0.553  10.006  23.075  0.00  0.00    +0.000 A 
ATOM     27  N   UNL     1      -1.070  10.900  22.203  0.00  0.00    +0.000 NA
ATOM     28  C   UNL     1      -0.698  10.787  20.910  0.00  0.00    +0.000 A 
ATOM     29  C   UNL     1       0.179   9.822  20.447  0.00  0.00    +0.000 A 
ENDBRANCH  23  24
ENDBRANCH   9  22
TORSDOF 5
ENDMDL
