MODEL 1
REMARK VINA RESULT:      -4.9      0.000      0.000
REMARK  Name = 
REMARK  12 active torsions:
REMARK  status: ('A' for Active; 'I' for Inactive)
REMARK    1  A    between atoms: C_1  and  O_2
REMARK    2  A    between atoms: O_2  and  C_3
REMARK    3  A    between atoms: C_3  and  C_4
REMARK    4  A    between atoms: N_6  and  C_7
REMARK    5  A    between atoms: C_7  and  C_8
REMARK    6  A    between atoms: C_8  and  C_9
REMARK    7  A    between atoms: C_9  and  C_10
REMARK    8  A    between atoms: C_10  and  N_11
REMARK    9  A    between atoms: N_11  and  C_12
REMARK   10  A    between atoms: C_12  and  C_13
REMARK   11  A    between atoms: C_13  and  C_14
REMARK   12  A    between atoms: C_14  and  N_15
REMARK                            x       y       z     vdW  Elec       q    Type
REMARK                         _______ _______ _______ _____ _____    ______ ____
ROOT
ATOM      1  C   UNL     1       3.909   6.085  18.437  0.00  0.00    +0.000 C 
ENDROOT
BRANCH   1   2
ATOM      2  C   UNL     1       5.005   5.298  19.169  0.00  0.00    +0.000 C 
BRANCH   2   3
ATOM      3  C   UNL     1       5.341   3.973  18.480  0.00  0.00    +0.000 C 
BRANCH   3   6
ATOM      4  C   UNL     1       6.951   4.432  16.672  0.00  0.00    +0.000 C 
ATOM      5  O   UNL     1       7.918   4.483  17.426  0.00  0.00    +0.000 OA
ATOM      6  N   UNL     1       5.662   4.157  17.088  0.00  0.00    +0.000 N 
ATOM      7  H   UNL     1       4.915   4.280  16.410  0.00  0.00    +0.000 HD
BRANCH   4   8
ATOM      8  C   UNL     1       7.061   4.670  15.167  0.00  0.00    +0.000 C 
BRANCH   8  10
ATOM      9  C   UNL     1       6.031   3.723  13.270  0.00  0.00    +0.000 C 
ATOM     10  O   UNL     1       5.836   4.464  14.471  0.00  0.00    +0.000 OA
ENDBRANCH   8  10
ENDBRANCH   4   8
ENDBRANCH   3   6
ENDBRANCH   2   3
ENDBRANCH   1   2
BRANCH   1  11
ATOM     11  C   UNL     1       2.740   6.438  19.357  0.00  0.00    +0.000 C 
BRANCH  11  12
ATOM     12  N   UNL     1       2.702   5.551  20.519  0.00  0.00    +0.000 NA
ATOM     13  H   UNL     1       2.905   6.083  21.366  0.00  0.00    +0.000 HD
BRANCH  12  14
ATOM     14  C   UNL     1       1.371   4.946  20.635  0.00  0.00    +0.000 C 
BRANCH  14  15
ATOM     15  C   UNL     1       1.341   3.575  19.962  0.00  0.00    +0.000 C 
BRANCH  15  16
ATOM     16  C   UNL     1       2.421   2.672  20.553  0.00  0.00    +0.000 C 
BRANCH  16  17
ATOM     17  N   UNL     1       2.469   2.809  22.004  0.00  0.00    +0.000 NA
ATOM     18  H   UNL     1       3.362   2.457  22.349  0.00  0.00    +0.000 HD
ATOM     19  H   UNL     1       1.750   2.221  22.423  0.00  0.00    +0.000 HD
ENDBRANCH  16  17
ENDBRANCH  15  16
ENDBRANCH  14  15
ENDBRANCH  12  14
ENDBRANCH  11  12
ENDBRANCH   1  11
TORSDOF 11
ENDMDL
MODEL 2
REMARK VINA RESULT:      -4.9      1.779      2.105
REMARK  Name = 
REMARK  12 active torsions:
REMARK  status: ('A' for Active; 'I' for Inactive)
REMARK    1  A    between atoms: C_1  and  O_2
REMARK    2  A    between atoms: O_2  and  C_3
REMARK    3  A    between atoms: C_3  and  C_4
REMARK    4  A    between atoms: N_6  and  C_7
REMARK    5  A    between atoms: C_7  and  C_8
REMARK    6  A    between atoms: C_8  and  C_9
REMARK    7  A    between atoms: C_9  and  C_10
REMARK    8  A    between atoms: C_10  and  N_11
REMARK    9  A    between atoms: N_11  and  C_12
REMARK   10  A    between atoms: C_12  and  C_13
REMARK   11  A    between atoms: C_13  and  C_14
REMARK   12  A    between atoms: C_14  and  N_15
REMARK                            x       y       z     vdW  Elec       q    Type
REMARK                         _______ _______ _______ _____ _____    ______ ____
ROOT
ATOM      1  C   UNL     1       3.302   3.683  17.438  0.00  0.00    +0.000 C 
ENDROOT
BRANCH   1   2
ATOM      2  C   UNL     1       4.224   3.178  18.554  0.00  0.00    +0.000 C 
BRANCH   2   3
ATOM      3  C   UNL     1       5.053   4.297  19.189  0.00  0.00    +0.000 C 
BRANCH   3   6
ATOM      4  C   UNL     1       6.875   5.177  17.784  0.00  0.00    +0.000 C 
ATOM      5  O   UNL     1       7.690   4.339  18.161  0.00  0.00    +0.000 OA
ATOM      6  N   UNL     1       5.559   5.217  18.203  0.00  0.00    +0.000 N 
ATOM      7  H   UNL     1       5.009   6.031  17.943  0.00  0.00    +0.000 HD
BRANCH   4   8
ATOM      8  C   UNL     1       7.228   6.286  16.794  0.00  0.00    +0.000 C 
BRANCH   8  10
ATOM      9  C   UNL     1       6.675   5.020  14.883  0.00  0.00    +0.000 C 
ATOM     10  O   UNL     1       7.677   5.797  15.534  0.00  0.00    +0.000 OA
ENDBRANCH   8  10
ENDBRANCH   4   8
ENDBRANCH   3   6
ENDBRANCH   2   3
ENDBRANCH   1   2
BRANCH   1  11
ATOM     11  C   UNL     1       1.926   4.092  17.966  0.00  0.00    +0.000 C 
BRANCH  11  12
ATOM     12  N   UNL     1       1.094   2.917  18.222  0.00  0.00    +0.000 NA
ATOM     13  H   UNL     1       1.604   2.071  17.967  0.00  0.00    +0.000 HD
BRANCH  12  14
ATOM     14  C   UNL     1       0.745   2.860  19.646  0.00  0.00    +0.000 C 
BRANCH  14  15
ATOM     15  C   UNL     1       1.142   4.158  20.349  0.00  0.00    +0.000 C 
BRANCH  15  16
ATOM     16  C   UNL     1       2.083   3.863  21.513  0.00  0.00    +0.000 C 
BRANCH  16  17
ATOM     17  N   UNL     1       1.834   2.532  22.053  0.00  0.00    +0.000 NA
ATOM     18  H   UNL     1       2.715   2.020  22.115  0.00  0.00    +0.000 HD
ATOM     19  H   UNL     1       1.246   2.009  21.406  0.00  0.00    +0.000 HD
ENDBRANCH  16  17
ENDBRANCH  15  16
ENDBRANCH  14  15
ENDBRANCH  12  14
ENDBRANCH  11  12
ENDBRANCH   1  11
TORSDOF 11
ENDMDL
MODEL 3
REMARK VINA RESULT:      -4.8      2.991      5.577
REMARK  Name = 
REMARK  12 active torsions:
REMARK  status: ('A' for Active; 'I' for Inactive)
REMARK    1  A    between atoms: C_1  and  O_2
REMARK    2  A    between atoms: O_2  and  C_3
REMARK    3  A    between atoms: C_3  and  C_4
REMARK    4  A    between atoms: N_6  and  C_7
REMARK    5  A    between atoms: C_7  and  C_8
REMARK    6  A    between atoms: C_8  and  C_9
REMARK    7  A    between atoms: C_9  and  C_10
REMARK    8  A    between atoms: C_10  and  N_11
REMARK    9  A    between atoms: N_11  and  C_12
REMARK   10  A    between atoms: C_12  and  C_13
REMARK   11  A    between atoms: C_13  and  C_14
REMARK   12  A    between atoms: C_14  and  N_15
REMARK                            x       y       z     vdW  Elec       q    Type
REMARK                         _______ _______ _______ _____ _____    ______ ____
ROOT
ATOM      1  C   UNL     1       7.363   6.669  17.350  0.00  0.00    +0.000 C 
ENDROOT
BRANCH   1   2
ATOM      2  C   UNL     1       7.613   5.562  18.382  0.00  0.00    +0.000 C 
BRANCH   2   3
ATOM      3  C   UNL     1       6.432   5.363  19.334  0.00  0.00    +0.000 C 
BRANCH   3   6
ATOM      4  C   UNL     1       4.476   3.867  19.254  0.00  0.00    +0.000 C 
ATOM      5  O   UNL     1       3.663   4.779  19.366  0.00  0.00    +0.000 OA
ATOM      6  N   UNL     1       5.844   4.055  19.196  0.00  0.00    +0.000 N 
ATOM      7  H   UNL     1       6.434   3.229  19.249  0.00  0.00    +0.000 HD
BRANCH   4   8
ATOM      8  C   UNL     1       4.065   2.398  19.165  0.00  0.00    +0.000 C 
BRANCH   8  10
ATOM      9  C   UNL     1       1.745   1.982  19.123  0.00  0.00    +0.000 C 
ATOM     10  O   UNL     1       2.922   2.179  18.344  0.00  0.00    +0.000 OA
ENDBRANCH   8  10
ENDBRANCH   4   8
ENDBRANCH   3   6
ENDBRANCH   2   3
ENDBRANCH   1   2
BRANCH   1  11
ATOM     11  C   UNL     1       5.874   6.976  17.181  0.00  0.00    +0.000 C 
BRANCH  11  12
ATOM     12  N   UNL     1       5.413   6.609  15.843  0.00  0.00    +0.000 NA
ATOM     13  H   UNL     1       6.159   6.768  15.165  0.00  0.00    +0.000 HD
BRANCH  12  14
ATOM     14  C   UNL     1       5.037   5.191  15.823  0.00  0.00    +0.000 C 
BRANCH  14  15
ATOM     15  C   UNL     1       5.445   4.544  14.500  0.00  0.00    +0.000 C 
BRANCH  15  16
ATOM     16  C   UNL     1       6.951   4.301  14.472  0.00  0.00    +0.000 C 
BRANCH  16  17
ATOM     17  N   UNL     1       7.656   5.487  14.003  0.00  0.00    +0.000 NA
ATOM     18  H   UNL     1       7.555   5.564  12.990  0.00  0.00    +0.000 HD
ATOM     19  H   UNL     1       8.653   5.381  14.183  0.00  0.00    +0.000 HD
ENDBRANCH  16  17
ENDBRANCH  15  16
ENDBRANCH  14  15
ENDBRANCH  12  14
ENDBRANCH  11  12
ENDBRANCH   1  11
TORSDOF 11
ENDMDL
MODEL 4
REMARK VINA RESULT:      -4.8      2.353      3.279
REMARK  Name = 
REMARK  12 active torsions:
REMARK  status: ('A' for Active; 'I' for Inactive)
REMARK    1  A    between atoms: C_1  and  O_2
REMARK    2  A    between atoms: O_2  and  C_3
REMARK    3  A    between atoms: C_3  and  C_4
REMARK    4  A    between atoms: N_6  and  C_7
REMARK    5  A    between atoms: C_7  and  C_8
REMARK    6  A    between atoms: C_8  and  C_9
REMARK    7  A    between atoms: C_9  and  C_10
REMARK    8  A    between atoms: C_10  and  N_11
REMARK    9  A    between atoms: N_11  and  C_12
REMARK   10  A    between atoms: C_12  and  C_13
REMARK   11  A    between atoms: C_13  and  C_14
REMARK   12  A    between atoms: C_14  and  N_15
REMARK                            x       y       z     vdW  Elec       q    Type
REMARK                         _______ _______ _______ _____ _____    ______ ____
ROOT
ATOM      1  C   UNL     1       1.268   3.974  17.804  0.00  0.00    +0.000 C 
ENDROOT
BRANCH   1   2
ATOM      2  C   UNL     1       2.751   4.104  17.430  0.00  0.00    +0.000 C 
BRANCH   2   3
ATOM      3  C   UNL     1       3.360   5.434  17.880  0.00  0.00    +0.000 C 
BRANCH   3   6
ATOM      4  C   UNL     1       5.500   6.025  16.813  0.00  0.00    +0.000 C 
ATOM      5  O   UNL     1       4.974   6.678  15.916  0.00  0.00    +0.000 OA
ATOM      6  N   UNL     1       4.799   5.409  17.832  0.00  0.00    +0.000 N 
ATOM      7  H   UNL     1       5.313   4.776  18.439  0.00  0.00    +0.000 HD
BRANCH   4   8
ATOM      8  C   UNL     1       7.010   5.813  16.906  0.00  0.00    +0.000 C 
BRANCH   8  10
ATOM      9  C   UNL     1       7.702   7.956  17.606  0.00  0.00    +0.000 C 
ATOM     10  O   UNL     1       7.765   6.975  16.574  0.00  0.00    +0.000 OA
ENDBRANCH   8  10
ENDBRANCH   4   8
ENDBRANCH   3   6
ENDBRANCH   2   3
ENDBRANCH   1   2
BRANCH   1  11
ATOM     11  C   UNL     1       1.005   2.770  18.710  0.00  0.00    +0.000 C 
BRANCH  11  12
ATOM     12  N   UNL     1       0.726   3.198  20.080  0.00  0.00    +0.000 NA
ATOM     13  H   UNL     1      -0.236   2.963  20.326  0.00  0.00    +0.000 HD
BRANCH  12  14
ATOM     14  C   UNL     1       1.641   2.520  21.004  0.00  0.00    +0.000 C 
BRANCH  14  15
ATOM     15  C   UNL     1       3.026   3.164  20.961  0.00  0.00    +0.000 C 
BRANCH  15  16
ATOM     16  C   UNL     1       4.069   2.148  20.504  0.00  0.00    +0.000 C 
BRANCH  16  17
ATOM     17  N   UNL     1       5.066   2.782  19.650  0.00  0.00    +0.000 NA
ATOM     18  H   UNL     1       5.390   3.644  20.089  0.00  0.00    +0.000 HD
ATOM     19  H   UNL     1       4.633   3.055  18.770  0.00  0.00    +0.000 HD
ENDBRANCH  16  17
ENDBRANCH  15  16
ENDBRANCH  14  15
ENDBRANCH  12  14
ENDBRANCH  11  12
ENDBRANCH   1  11
TORSDOF 11
ENDMDL
MODEL 5
REMARK VINA RESULT:      -4.8      2.099      2.441
REMARK  Name = 
REMARK  12 active torsions:
REMARK  status: ('A' for Active; 'I' for Inactive)
REMARK    1  A    between atoms: C_1  and  O_2
REMARK    2  A    between atoms: O_2  and  C_3
REMARK    3  A    between atoms: C_3  and  C_4
REMARK    4  A    between atoms: N_6  and  C_7
REMARK    5  A    between atoms: C_7  and  C_8
REMARK    6  A    between atoms: C_8  and  C_9
REMARK    7  A    between atoms: C_9  and  C_10
REMARK    8  A    between atoms: C_10  and  N_11
REMARK    9  A    between atoms: N_11  and  C_12
REMARK   10  A    between atoms: C_12  and  C_13
REMARK   11  A    between atoms: C_13  and  C_14
REMARK   12  A    between atoms: C_14  and  N_15
REMARK                            x       y       z     vdW  Elec       q    Type
REMARK                         _______ _______ _______ _____ _____    ______ ____
ROOT
ATOM      1  C   UNL     1       5.279   5.411  19.015  0.00  0.00    +0.000 C 
ENDROOT
BRANCH   1   2
ATOM      2  C   UNL     1       6.717   5.764  18.615  0.00  0.00    +0.000 C 
BRANCH   2   3
ATOM      3  C   UNL     1       7.445   4.601  17.935  0.00  0.00    +0.000 C 
BRANCH   3   6
ATOM      4  C   UNL     1       6.613   4.220  15.648  0.00  0.00    +0.000 C 
ATOM      5  O   UNL     1       5.630   3.583  16.016  0.00  0.00    +0.000 OA
ATOM      6  N   UNL     1       7.535   4.783  16.509  0.00  0.00    +0.000 N 
ATOM      7  H   UNL     1       8.385   5.164  16.102  0.00  0.00    +0.000 HD
BRANCH   4   8
ATOM      8  C   UNL     1       6.934   4.467  14.175  0.00  0.00    +0.000 C 
BRANCH   8  10
ATOM      9  C   UNL     1       8.169   5.713  12.598  0.00  0.00    +0.000 C 
ATOM     10  O   UNL     1       7.762   5.606  13.960  0.00  0.00    +0.000 OA
ENDBRANCH   8  10
ENDBRANCH   4   8
ENDBRANCH   3   6
ENDBRANCH   2   3
ENDBRANCH   1   2
BRANCH   1  11
ATOM     11  C   UNL     1       4.248   6.030  18.070  0.00  0.00    +0.000 C 
BRANCH  11  12
ATOM     12  N   UNL     1       3.305   5.020  17.592  0.00  0.00    +0.000 NA
ATOM     13  H   UNL     1       3.805   4.160  17.365  0.00  0.00    +0.000 HD
BRANCH  12  14
ATOM     14  C   UNL     1       2.312   4.740  18.635  0.00  0.00    +0.000 C 
BRANCH  14  15
ATOM     15  C   UNL     1       1.834   3.292  18.549  0.00  0.00    +0.000 C 
BRANCH  15  16
ATOM     16  C   UNL     1       2.581   2.552  17.442  0.00  0.00    +0.000 C 
BRANCH  16  17
ATOM     17  N   UNL     1       3.852   2.035  17.936  0.00  0.00    +0.000 NA
ATOM     18  H   UNL     1       3.690   1.487  18.781  0.00  0.00    +0.000 HD
ATOM     19  H   UNL     1       4.449   2.813  18.211  0.00  0.00    +0.000 HD
ENDBRANCH  16  17
ENDBRANCH  15  16
ENDBRANCH  14  15
ENDBRANCH  12  14
ENDBRANCH  11  12
ENDBRANCH   1  11
TORSDOF 11
ENDMDL
MODEL 6
REMARK VINA RESULT:      -4.7      2.727      6.092
REMARK  Name = 
REMARK  12 active torsions:
REMARK  status: ('A' for Active; 'I' for Inactive)
REMARK    1  A    between atoms: C_1  and  O_2
REMARK    2  A    between atoms: O_2  and  C_3
REMARK    3  A    between atoms: C_3  and  C_4
REMARK    4  A    between atoms: N_6  and  C_7
REMARK    5  A    between atoms: C_7  and  C_8
REMARK    6  A    between atoms: C_8  and  C_9
REMARK    7  A    between atoms: C_9  and  C_10
REMARK    8  A    between atoms: C_10  and  N_11
REMARK    9  A    between atoms: N_11  and  C_12
REMARK   10  A    between atoms: C_12  and  C_13
REMARK   11  A    between atoms: C_13  and  C_14
REMARK   12  A    between atoms: C_14  and  N_15
REMARK                            x       y       z     vdW  Elec       q    Type
REMARK                         _______ _______ _______ _____ _____    ______ ____
ROOT
ATOM      1  C   UNL     1       7.417   4.916  17.787  0.00  0.00    +0.000 C 
ENDROOT
BRANCH   1   2
ATOM      2  C   UNL     1       6.835   5.337  19.143  0.00  0.00    +0.000 C 
BRANCH   2   3
ATOM      3  C   UNL     1       5.305   5.291  19.171  0.00  0.00    +0.000 C 
BRANCH   3   6
ATOM      4  C   UNL     1       3.993   3.542  18.037  0.00  0.00    +0.000 C 
ATOM      5  O   UNL     1       3.682   4.263  17.093  0.00  0.00    +0.000 OA
ATOM      6  N   UNL     1       4.806   3.943  19.079  0.00  0.00    +0.000 N 
ATOM      7  H   UNL     1       4.885   3.320  19.878  0.00  0.00    +0.000 HD
BRANCH   4   8
ATOM      8  C   UNL     1       3.510   2.099  18.168  0.00  0.00    +0.000 C 
BRANCH   8  10
ATOM      9  C   UNL     1       1.229   2.318  18.723  0.00  0.00    +0.000 C 
ATOM     10  O   UNL     1       2.520   1.924  19.178  0.00  0.00    +0.000 OA
ENDBRANCH   8  10
ENDBRANCH   4   8
ENDBRANCH   3   6
ENDBRANCH   2   3
ENDBRANCH   1   2
BRANCH   1  11
ATOM     11  C   UNL     1       6.969   5.841  16.655  0.00  0.00    +0.000 C 
BRANCH  11  12
ATOM     12  N   UNL     1       7.320   5.279  15.351  0.00  0.00    +0.000 NA
ATOM     13  H   UNL     1       8.324   5.103  15.311  0.00  0.00    +0.000 HD
BRANCH  12  14
ATOM     14  C   UNL     1       6.600   4.017  15.148  0.00  0.00    +0.000 C 
BRANCH  14  15
ATOM     15  C   UNL     1       5.720   4.094  13.901  0.00  0.00    +0.000 C 
BRANCH  15  16
ATOM     16  C   UNL     1       6.529   3.733  12.659  0.00  0.00    +0.000 C 
BRANCH  16  17
ATOM     17  N   UNL     1       6.024   2.506  12.054  0.00  0.00    +0.000 NA
ATOM     18  H   UNL     1       6.071   1.748  12.735  0.00  0.00    +0.000 HD
ATOM     19  H   UNL     1       6.632   2.235  11.283  0.00  0.00    +0.000 HD
ENDBRANCH  16  17
ENDBRANCH  15  16
ENDBRANCH  14  15
ENDBRANCH  12  14
ENDBRANCH  11  12
ENDBRANCH   1  11
TORSDOF 11
ENDMDL
MODEL 7
REMARK VINA RESULT:      -4.7      2.008      2.527
REMARK  Name = 
REMARK  12 active torsions:
REMARK  status: ('A' for Active; 'I' for Inactive)
REMARK    1  A    between atoms: C_1  and  O_2
REMARK    2  A    between atoms: O_2  and  C_3
REMARK    3  A    between atoms: C_3  and  C_4
REMARK    4  A    between atoms: N_6  and  C_7
REMARK    5  A    between atoms: C_7  and  C_8
REMARK    6  A    between atoms: C_8  and  C_9
REMARK    7  A    between atoms: C_9  and  C_10
REMARK    8  A    between atoms: C_10  and  N_11
REMARK    9  A    between atoms: N_11  and  C_12
REMARK   10  A    between atoms: C_12  and  C_13
REMARK   11  A    between atoms: C_13  and  C_14
REMARK   12  A    between atoms: C_14  and  N_15
REMARK                            x       y       z     vdW  Elec       q    Type
REMARK                         _______ _______ _______ _____ _____    ______ ____
ROOT
ATOM      1  C   UNL     1       4.809   5.822  18.023  0.00  0.00    +0.000 C 
ENDROOT
BRANCH   1   2
ATOM      2  C   UNL     1       5.860   6.722  17.361  0.00  0.00    +0.000 C 
BRANCH   2   3
ATOM      3  C   UNL     1       7.112   5.954  16.932  0.00  0.00    +0.000 C 
BRANCH   3   6
ATOM      4  C   UNL     1       6.587   4.406  15.089  0.00  0.00    +0.000 C 
ATOM      5  O   UNL     1       6.089   3.559  15.825  0.00  0.00    +0.000 OA
ATOM      6  N   UNL     1       7.083   5.617  15.532  0.00  0.00    +0.000 N 
ATOM      7  H   UNL     1       7.602   6.183  14.866  0.00  0.00    +0.000 HD
BRANCH   4   8
ATOM      8  C   UNL     1       6.720   4.215  13.579  0.00  0.00    +0.000 C 
BRANCH   8  10
ATOM      9  C   UNL     1       5.861   2.791  11.907  0.00  0.00    +0.000 C 
ATOM     10  O   UNL     1       5.545   3.685  12.971  0.00  0.00    +0.000 OA
ENDBRANCH   8  10
ENDBRANCH   4   8
ENDBRANCH   3   6
ENDBRANCH   2   3
ENDBRANCH   1   2
BRANCH   1  11
ATOM     11  C   UNL     1       5.390   5.014  19.184  0.00  0.00    +0.000 C 
BRANCH  11  12
ATOM     12  N   UNL     1       5.422   3.587  18.864  0.00  0.00    +0.000 NA
ATOM     13  H   UNL     1       5.909   3.079  19.604  0.00  0.00    +0.000 HD
BRANCH  12  14
ATOM     14  C   UNL     1       4.052   3.077  18.748  0.00  0.00    +0.000 C 
BRANCH  14  15
ATOM     15  C   UNL     1       3.453   2.823  20.131  0.00  0.00    +0.000 C 
BRANCH  15  16
ATOM     16  C   UNL     1       1.965   2.505  20.013  0.00  0.00    +0.000 C 
BRANCH  16  17
ATOM     17  N   UNL     1       1.706   1.677  18.841  0.00  0.00    +0.000 NA
ATOM     18  H   UNL     1       1.895   2.217  17.996  0.00  0.00    +0.000 HD
ATOM     19  H   UNL     1       0.717   1.436  18.810  0.00  0.00    +0.000 HD
ENDBRANCH  16  17
ENDBRANCH  15  16
ENDBRANCH  14  15
ENDBRANCH  12  14
ENDBRANCH  11  12
ENDBRANCH   1  11
TORSDOF 11
ENDMDL
MODEL 8
REMARK VINA RESULT:      -4.7      1.685      1.964
REMARK  Name = 
REMARK  12 active torsions:
REMARK  status: ('A' for Active; 'I' for Inactive)
REMARK    1  A    between atoms: C_1  and  O_2
REMARK    2  A    between atoms: O_2  and  C_3
REMARK    3  A    between atoms: C_3  and  C_4
REMARK    4  A    between atoms: N_6  and  C_7
REMARK    5  A    between atoms: C_7  and  C_8
REMARK    6  A    between atoms: C_8  and  C_9
REMARK    7  A    between atoms: C_9  and  C_10
REMARK    8  A    between atoms: C_10  and  N_11
REMARK    9  A    between atoms: N_11  and  C_12
REMARK   10  A    between atoms: C_12  and  C_13
REMARK   11  A    between atoms: C_13  and  C_14
REMARK   12  A    between atoms: C_14  and  N_15
REMARK                            x       y       z     vdW  Elec       q    Type
REMARK                         _______ _______ _______ _____ _____    ______ ____
ROOT
ATOM      1  C   UNL     1       3.629   5.396  17.720  0.00  0.00    +0.000 C 
ENDROOT
BRANCH   1   2
ATOM      2  C   UNL     1       4.165   6.788  17.361  0.00  0.00    +0.000 C 
BRANCH   2   3
ATOM      3  C   UNL     1       5.644   6.769  16.967  0.00  0.00    +0.000 C 
BRANCH   3   6
ATOM      4  C   UNL     1       6.838   5.081  15.628  0.00  0.00    +0.000 C 
ATOM      5  O   UNL     1       7.542   4.710  16.563  0.00  0.00    +0.000 OA
ATOM      6  N   UNL     1       5.863   6.054  15.736  0.00  0.00    +0.000 N 
ATOM      7  H   UNL     1       5.437   6.388  14.876  0.00  0.00    +0.000 HD
BRANCH   4   8
ATOM      8  C   UNL     1       6.959   4.502  14.219  0.00  0.00    +0.000 C 
BRANCH   8  10
ATOM      9  C   UNL     1       5.901   3.384  12.433  0.00  0.00    +0.000 C 
ATOM     10  O   UNL     1       5.728   4.001  13.706  0.00  0.00    +0.000 OA
ENDBRANCH   8  10
ENDBRANCH   4   8
ENDBRANCH   3   6
ENDBRANCH   2   3
ENDBRANCH   1   2
BRANCH   1  11
ATOM     11  C   UNL     1       4.409   4.756  18.870  0.00  0.00    +0.000 C 
BRANCH  11  12
ATOM     12  N   UNL     1       3.529   3.948  19.713  0.00  0.00    +0.000 NA
ATOM     13  H   UNL     1       3.954   3.820  20.632  0.00  0.00    +0.000 HD
BRANCH  12  14
ATOM     14  C   UNL     1       2.237   4.625  19.868  0.00  0.00    +0.000 C 
BRANCH  14  15
ATOM     15  C   UNL     1       1.098   3.607  19.913  0.00  0.00    +0.000 C 
BRANCH  15  16
ATOM     16  C   UNL     1       1.607   2.225  19.516  0.00  0.00    +0.000 C 
BRANCH  16  17
ATOM     17  N   UNL     1       1.657   2.091  18.065  0.00  0.00    +0.000 NA
ATOM     18  H   UNL     1       0.853   1.548  17.747  0.00  0.00    +0.000 HD
ATOM     19  H   UNL     1       2.483   1.556  17.803  0.00  0.00    +0.000 HD
ENDBRANCH  16  17
ENDBRANCH  15  16
ENDBRANCH  14  15
ENDBRANCH  12  14
ENDBRANCH  11  12
ENDBRANCH   1  11
TORSDOF 11
ENDMDL
MODEL 9
REMARK VINA RESULT:      -4.6      1.894      2.451
REMARK  Name = 
REMARK  12 active torsions:
REMARK  status: ('A' for Active; 'I' for Inactive)
REMARK    1  A    between atoms: C_1  and  O_2
REMARK    2  A    between atoms: O_2  and  C_3
REMARK    3  A    between atoms: C_3  and  C_4
REMARK    4  A    between atoms: N_6  and  C_7
REMARK    5  A    between atoms: C_7  and  C_8
REMARK    6  A    between atoms: C_8  and  C_9
REMARK    7  A    between atoms: C_9  and  C_10
REMARK    8  A    between atoms: C_10  and  N_11
REMARK    9  A    between atoms: N_11  and  C_12
REMARK   10  A    between atoms: C_12  and  C_13
REMARK   11  A    between atoms: C_13  and  C_14
REMARK   12  A    between atoms: C_14  and  N_15
REMARK                            x       y       z     vdW  Elec       q    Type
REMARK                         _______ _______ _______ _____ _____    ______ ____
ROOT
ATOM      1  C   UNL     1       2.089   5.129  20.626  0.00  0.00    +0.000 C 
ENDROOT
BRANCH   1   2
ATOM      2  C   UNL     1       2.797   5.734  19.407  0.00  0.00    +0.000 C 
BRANCH   2   3
ATOM      3  C   UNL     1       4.312   5.515  19.433  0.00  0.00    +0.000 C 
BRANCH   3   6
ATOM      4  C   UNL     1       6.080   5.051  17.781  0.00  0.00    +0.000 C 
ATOM      5  O   UNL     1       6.678   4.266  18.511  0.00  0.00    +0.000 OA
ATOM      6  N   UNL     1       4.901   5.684  18.129  0.00  0.00    +0.000 N 
ATOM      7  H   UNL     1       4.565   6.420  17.515  0.00  0.00    +0.000 HD
BRANCH   4   8
ATOM      8  C   UNL     1       6.575   5.425  16.385  0.00  0.00    +0.000 C 
BRANCH   8  10
ATOM      9  C   UNL     1       6.051   4.063  14.532  0.00  0.00    +0.000 C 
ATOM     10  O   UNL     1       5.629   5.147  15.356  0.00  0.00    +0.000 OA
ENDBRANCH   8  10
ENDBRANCH   4   8
ENDBRANCH   3   6
ENDBRANCH   2   3
ENDBRANCH   1   2
BRANCH   1  11
ATOM     11  C   UNL     1       1.169   3.969  20.243  0.00  0.00    +0.000 C 
BRANCH  11  12
ATOM     12  N   UNL     1       1.151   3.772  18.793  0.00  0.00    +0.000 NA
ATOM     13  H   UNL     1       1.806   4.417  18.350  0.00  0.00    +0.000 HD
BRANCH  12  14
ATOM     14  C   UNL     1       1.543   2.394  18.478  0.00  0.00    +0.000 C 
BRANCH  14  15
ATOM     15  C   UNL     1       2.936   2.360  17.852  0.00  0.00    +0.000 C 
BRANCH  15  16
ATOM     16  C   UNL     1       3.816   1.344  18.574  0.00  0.00    +0.000 C 
BRANCH  16  17
ATOM     17  N   UNL     1       4.727   2.014  19.495  0.00  0.00    +0.000 NA
ATOM     18  H   UNL     1       5.405   1.340  19.853  0.00  0.00    +0.000 HD
ATOM     19  H   UNL     1       4.205   2.350  20.302  0.00  0.00    +0.000 HD
ENDBRANCH  16  17
ENDBRANCH  15  16
ENDBRANCH  14  15
ENDBRANCH  12  14
ENDBRANCH  11  12
ENDBRANCH   1  11
TORSDOF 11
ENDMDL
