MODEL 1
REMARK VINA RESULT:      -7.3      0.000      0.000
REMARK  Name = 
REMARK  4 active torsions:
REMARK  status: ('A' for Active; 'I' for Inactive)
REMARK    1  A    between atoms: C_1  and  O_2
REMARK    2  A    between atoms: O_2  and  C_3
REMARK    3  A    between atoms: C_6  and  C_7
REMARK    4  A    between atoms: C_11  and  N_12
REMARK                            x       y       z     vdW  Elec       q    Type
REMARK                         _______ _______ _______ _____ _____    ______ ____
ROOT
ATOM      1  C   UNL     1       2.593   6.360  19.593  0.00  0.00    +0.000 A 
ATOM      2  C   UNL     1       2.208   5.332  20.455  0.00  0.00    +0.000 A 
ATOM      3  N   UNL     1       2.732   4.084  20.466  0.00  0.00    +0.000 NA
ATOM      4  C   UNL     1       3.685   3.832  19.539  0.00  0.00    +0.000 A 
ATOM      5  C   UNL     1       4.162   4.746  18.595  0.00  0.00    +0.000 A 
ATOM      6  C   UNL     1       3.600   6.032  18.665  0.00  0.00    +0.000 A 
ENDROOT
BRANCH   5   7
ATOM      7  N   UNL     1       5.139   4.371  17.672  0.00  0.00    +0.000 N 
ATOM      8  C   UNL     1       4.766   4.004  16.289  0.00  0.00    +0.000 C 
ATOM      9  C   UNL     1       5.563   4.798  15.228  0.00  0.00    +0.000 C 
ATOM     10  C   UNL     1       7.091   4.607  15.360  0.00  0.00    +0.000 C 
ATOM     11  C   UNL     1       6.931   5.671  16.470  0.00  0.00    +0.000 C 
ATOM     12  C   UNL     1       6.431   5.089  17.816  0.00  0.00    +0.000 C 
ATOM     13  N   UNL     1       5.799   6.239  15.633  0.00  0.00    +0.000 NA
ATOM     14  H   UNL     1       6.127   6.823  14.863  0.00  0.00    +0.000 HD
ENDBRANCH   5   7
BRANCH   1  18
ATOM     15  C   UNL     1       0.677  10.238  19.738  0.00  0.00    +0.000 A 
ATOM     16  C   UNL     1       0.719   9.424  20.867  0.00  0.00    +0.000 A 
ATOM     17  C   UNL     1       1.368   8.184  20.828  0.00  0.00    +0.000 A 
ATOM     18  C   UNL     1       1.965   7.702  19.650  0.00  0.00    +0.000 A 
ATOM     19  C   UNL     1       1.903   8.540  18.519  0.00  0.00    +0.000 A 
ATOM     20  C   UNL     1       1.272   9.793  18.562  0.00  0.00    +0.000 A 
BRANCH  15  22
ATOM     21  C   UNL     1      -0.811  11.812  18.790  0.00  0.00    +0.000 C 
ATOM     22  O   UNL     1      -0.007  11.412  19.891  0.00  0.00    +0.000 OA
ENDBRANCH  15  22
ENDBRANCH   1  18
TORSDOF 3
ENDMDL
MODEL 2
REMARK VINA RESULT:      -7.3      0.117      1.053
REMARK  Name = 
REMARK  4 active torsions:
REMARK  status: ('A' for Active; 'I' for Inactive)
REMARK    1  A    between atoms: C_1  and  O_2
REMARK    2  A    between atoms: O_2  and  C_3
REMARK    3  A    between atoms: C_6  and  C_7
REMARK    4  A    between atoms: C_11  and  N_12
REMARK                            x       y       z     vdW  Elec       q    Type
REMARK                         _______ _______ _______ _____ _____    ______ ____
ROOT
ATOM      1  C   UNL     1       2.595   6.316  19.616  0.00  0.00    +0.000 A 
ATOM      2  C   UNL     1       2.229   5.277  20.475  0.00  0.00    +0.000 A 
ATOM      3  N   UNL     1       2.770   4.037  20.476  0.00  0.00    +0.000 NA
ATOM      4  C   UNL     1       3.721   3.803  19.542  0.00  0.00    +0.000 A 
ATOM      5  C   UNL     1       4.181   4.728  18.601  0.00  0.00    +0.000 A 
ATOM      6  C   UNL     1       3.602   6.006  18.681  0.00  0.00    +0.000 A 
ENDROOT
BRANCH   5   7
ATOM      7  N   UNL     1       5.158   4.371  17.671  0.00  0.00    +0.000 N 
ATOM      8  C   UNL     1       4.782   3.997  16.290  0.00  0.00    +0.000 C 
ATOM      9  C   UNL     1       5.556   4.806  15.224  0.00  0.00    +0.000 C 
ATOM     10  C   UNL     1       7.089   4.644  15.344  0.00  0.00    +0.000 C 
ATOM     11  C   UNL     1       6.916   5.705  16.456  0.00  0.00    +0.000 C 
ATOM     12  C   UNL     1       6.437   5.114  17.805  0.00  0.00    +0.000 C 
ATOM     13  N   UNL     1       5.767   6.252  15.626  0.00  0.00    +0.000 NA
ATOM     14  H   UNL     1       6.078   6.842  14.854  0.00  0.00    +0.000 HD
ENDBRANCH   5   7
BRANCH   1  18
ATOM     15  C   UNL     1       0.795  10.245  19.832  0.00  0.00    +0.000 A 
ATOM     16  C   UNL     1       1.351   9.783  18.641  0.00  0.00    +0.000 A 
ATOM     17  C   UNL     1       1.903   8.499  18.564  0.00  0.00    +0.000 A 
ATOM     18  C   UNL     1       1.950   7.649  19.683  0.00  0.00    +0.000 A 
ATOM     19  C   UNL     1       1.388   8.141  20.877  0.00  0.00    +0.000 A 
ATOM     20  C   UNL     1       0.814   9.420  20.951  0.00  0.00    +0.000 A 
BRANCH  15  22
ATOM     21  C   UNL     1      -0.542  11.830  18.696  0.00  0.00    +0.000 C 
ATOM     22  O   UNL     1       0.311  11.523  19.791  0.00  0.00    +0.000 OA
ENDBRANCH  15  22
ENDBRANCH   1  18
TORSDOF 3
ENDMDL
MODEL 3
REMARK VINA RESULT:      -7.2      1.221      1.741
REMARK  Name = 
REMARK  4 active torsions:
REMARK  status: ('A' for Active; 'I' for Inactive)
REMARK    1  A    between atoms: C_1  and  O_2
REMARK    2  A    between atoms: O_2  and  C_3
REMARK    3  A    between atoms: C_6  and  C_7
REMARK    4  A    between atoms: C_11  and  N_12
REMARK                            x       y       z     vdW  Elec       q    Type
REMARK                         _______ _______ _______ _____ _____    ______ ____
ROOT
ATOM      1  C   UNL     1       2.304   6.913  19.668  0.00  0.00    +0.000 A 
ATOM      2  C   UNL     1       2.196   5.698  20.349  0.00  0.00    +0.000 A 
ATOM      3  N   UNL     1       2.805   4.544  19.991  0.00  0.00    +0.000 NA
ATOM      4  C   UNL     1       3.551   4.592  18.862  0.00  0.00    +0.000 A 
ATOM      5  C   UNL     1       3.740   5.721  18.060  0.00  0.00    +0.000 A 
ATOM      6  C   UNL     1       3.109   6.892  18.512  0.00  0.00    +0.000 A 
ENDROOT
BRANCH   5   7
ATOM      7  N   UNL     1       4.520   5.651  16.905  0.00  0.00    +0.000 N 
ATOM      8  C   UNL     1       5.741   6.475  16.771  0.00  0.00    +0.000 C 
ATOM      9  C   UNL     1       6.985   5.637  16.399  0.00  0.00    +0.000 C 
ATOM     10  C   UNL     1       6.808   4.855  15.076  0.00  0.00    +0.000 C 
ATOM     11  C   UNL     1       6.046   3.868  15.991  0.00  0.00    +0.000 C 
ATOM     12  C   UNL     1       4.590   4.302  16.290  0.00  0.00    +0.000 C 
ATOM     13  N   UNL     1       7.009   4.287  17.088  0.00  0.00    +0.000 NA
ATOM     14  H   UNL     1       7.913   3.820  17.025  0.00  0.00    +0.000 HD
ENDBRANCH   5   7
BRANCH   1  18
ATOM     15  C   UNL     1       0.171  10.434  21.000  0.00  0.00    +0.000 A 
ATOM     16  C   UNL     1       0.409   9.376  21.873  0.00  0.00    +0.000 A 
ATOM     17  C   UNL     1       1.128   8.252  21.451  0.00  0.00    +0.000 A 
ATOM     18  C   UNL     1       1.601   8.133  20.131  0.00  0.00    +0.000 A 
ATOM     19  C   UNL     1       1.341   9.213  19.266  0.00  0.00    +0.000 A 
ATOM     20  C   UNL     1       0.639  10.350  19.693  0.00  0.00    +0.000 A 
BRANCH  15  22
ATOM     21  C   UNL     1      -1.082  11.259  22.828  0.00  0.00    +0.000 C 
ATOM     22  O   UNL     1      -0.564  11.463  21.520  0.00  0.00    +0.000 OA
ENDBRANCH  15  22
ENDBRANCH   1  18
TORSDOF 3
ENDMDL
MODEL 4
REMARK VINA RESULT:      -7.1      2.274      3.631
REMARK  Name = 
REMARK  4 active torsions:
REMARK  status: ('A' for Active; 'I' for Inactive)
REMARK    1  A    between atoms: C_1  and  O_2
REMARK    2  A    between atoms: O_2  and  C_3
REMARK    3  A    between atoms: C_6  and  C_7
REMARK    4  A    between atoms: C_11  and  N_12
REMARK                            x       y       z     vdW  Elec       q    Type
REMARK                         _______ _______ _______ _____ _____    ______ ____
ROOT
ATOM      1  C   UNL     1       1.763   8.150  19.691  0.00  0.00    +0.000 A 
ATOM      2  C   UNL     1       2.254   8.657  18.486  0.00  0.00    +0.000 A 
ATOM      3  N   UNL     1       2.940   7.946  17.561  0.00  0.00    +0.000 NA
ATOM      4  C   UNL     1       3.180   6.650  17.867  0.00  0.00    +0.000 A 
ATOM      5  C   UNL     1       2.776   6.002  19.038  0.00  0.00    +0.000 A 
ATOM      6  C   UNL     1       2.037   6.791  19.936  0.00  0.00    +0.000 A 
ENDROOT
BRANCH   5   7
ATOM      7  N   UNL     1       3.094   4.661  19.256  0.00  0.00    +0.000 N 
ATOM      8  C   UNL     1       2.048   3.694  19.651  0.00  0.00    +0.000 C 
ATOM      9  C   UNL     1       2.013   2.449  18.735  0.00  0.00    +0.000 C 
ATOM     10  C   UNL     1       3.358   1.687  18.708  0.00  0.00    +0.000 C 
ATOM     11  C   UNL     1       3.738   2.792  17.695  0.00  0.00    +0.000 C 
ATOM     12  C   UNL     1       4.153   4.127  18.363  0.00  0.00    +0.000 C 
ATOM     13  N   UNL     1       2.277   2.785  17.281  0.00  0.00    +0.000 NA
ATOM     14  H   UNL     1       2.047   2.022  16.645  0.00  0.00    +0.000 HD
ENDBRANCH   5   7
BRANCH   1  18
ATOM     15  C   UNL     1      -0.483  10.573  22.487  0.00  0.00    +0.000 A 
ATOM     16  C   UNL     1       0.302   9.514  22.936  0.00  0.00    +0.000 A 
ATOM     17  C   UNL     1       1.054   8.752  22.034  0.00  0.00    +0.000 A 
ATOM     18  C   UNL     1       1.018   9.001  20.650  0.00  0.00    +0.000 A 
ATOM     19  C   UNL     1       0.211  10.072  20.220  0.00  0.00    +0.000 A 
ATOM     20  C   UNL     1      -0.527  10.850  21.124  0.00  0.00    +0.000 A 
BRANCH  15  22
ATOM     21  C   UNL     1      -2.325  11.959  23.013  0.00  0.00    +0.000 C 
ATOM     22  O   UNL     1      -1.192  11.225  23.457  0.00  0.00    +0.000 OA
ENDBRANCH  15  22
ENDBRANCH   1  18
TORSDOF 3
ENDMDL
MODEL 5
REMARK VINA RESULT:      -7.1      1.224      1.992
REMARK  Name = 
REMARK  4 active torsions:
REMARK  status: ('A' for Active; 'I' for Inactive)
REMARK    1  A    between atoms: C_1  and  O_2
REMARK    2  A    between atoms: O_2  and  C_3
REMARK    3  A    between atoms: C_6  and  C_7
REMARK    4  A    between atoms: C_11  and  N_12
REMARK                            x       y       z     vdW  Elec       q    Type
REMARK                         _______ _______ _______ _____ _____    ______ ____
ROOT
ATOM      1  C   UNL     1       2.277   6.888  19.718  0.00  0.00    +0.000 A 
ATOM      2  C   UNL     1       2.194   5.681  20.416  0.00  0.00    +0.000 A 
ATOM      3  N   UNL     1       2.822   4.533  20.069  0.00  0.00    +0.000 NA
ATOM      4  C   UNL     1       3.561   4.580  18.936  0.00  0.00    +0.000 A 
ATOM      5  C   UNL     1       3.726   5.702  18.119  0.00  0.00    +0.000 A 
ATOM      6  C   UNL     1       3.076   6.867  18.559  0.00  0.00    +0.000 A 
ENDROOT
BRANCH   5   7
ATOM      7  N   UNL     1       4.501   5.631  16.961  0.00  0.00    +0.000 N 
ATOM      8  C   UNL     1       5.713   6.465  16.815  0.00  0.00    +0.000 C 
ATOM      9  C   UNL     1       6.964   5.636  16.443  0.00  0.00    +0.000 C 
ATOM     10  C   UNL     1       6.788   4.843  15.127  0.00  0.00    +0.000 C 
ATOM     11  C   UNL     1       6.040   3.856  16.051  0.00  0.00    +0.000 C 
ATOM     12  C   UNL     1       4.580   4.278  16.354  0.00  0.00    +0.000 C 
ATOM     13  N   UNL     1       7.003   4.292  17.141  0.00  0.00    +0.000 NA
ATOM     14  H   UNL     1       7.912   3.832  17.077  0.00  0.00    +0.000 HD
ENDBRANCH   5   7
BRANCH   1  18
ATOM     15  C   UNL     1       0.251  10.472  21.053  0.00  0.00    +0.000 A 
ATOM     16  C   UNL     1       0.658  10.338  19.728  0.00  0.00    +0.000 A 
ATOM     17  C   UNL     1       1.283   9.165  19.289  0.00  0.00    +0.000 A 
ATOM     18  C   UNL     1       1.554   8.101  20.170  0.00  0.00    +0.000 A 
ATOM     19  C   UNL     1       1.140   8.264  21.506  0.00  0.00    +0.000 A 
ATOM     20  C   UNL     1       0.494   9.430  21.943  0.00  0.00    +0.000 A 
BRANCH  15  22
ATOM     21  C   UNL     1      -0.918  11.759  22.655  0.00  0.00    +0.000 C 
ATOM     22  O   UNL     1      -0.324  11.672  21.366  0.00  0.00    +0.000 OA
ENDBRANCH  15  22
ENDBRANCH   1  18
TORSDOF 3
ENDMDL
MODEL 6
REMARK VINA RESULT:      -7.1      3.687      7.518
REMARK  Name = 
REMARK  4 active torsions:
REMARK  status: ('A' for Active; 'I' for Inactive)
REMARK    1  A    between atoms: C_1  and  O_2
REMARK    2  A    between atoms: O_2  and  C_3
REMARK    3  A    between atoms: C_6  and  C_7
REMARK    4  A    between atoms: C_11  and  N_12
REMARK                            x       y       z     vdW  Elec       q    Type
REMARK                         _______ _______ _______ _____ _____    ______ ____
ROOT
ATOM      1  C   UNL     1       2.620   7.293  18.568  0.00  0.00    +0.000 A 
ATOM      2  C   UNL     1       2.324   7.022  19.906  0.00  0.00    +0.000 A 
ATOM      3  N   UNL     1       1.567   7.802  20.712  0.00  0.00    +0.000 NA
ATOM      4  C   UNL     1       1.094   8.944  20.160  0.00  0.00    +0.000 A 
ATOM      5  C   UNL     1       1.318   9.366  18.847  0.00  0.00    +0.000 A 
ATOM      6  C   UNL     1       2.081   8.490  18.056  0.00  0.00    +0.000 A 
ENDROOT
BRANCH   5   7
ATOM      7  N   UNL     1       0.792  10.574  18.387  0.00  0.00    +0.000 N 
ATOM      8  C   UNL     1      -0.661  10.835  18.454  0.00  0.00    +0.000 C 
ATOM      9  C   UNL     1      -0.994  12.168  19.164  0.00  0.00    +0.000 C 
ATOM     10  C   UNL     1      -0.336  13.390  18.481  0.00  0.00    +0.000 C 
ATOM     11  C   UNL     1       0.901  12.925  19.284  0.00  0.00    +0.000 C 
ATOM     12  C   UNL     1       1.664  11.753  18.619  0.00  0.00    +0.000 C 
ATOM     13  N   UNL     1      -0.080  12.447  20.340  0.00  0.00    +0.000 NA
ATOM     14  H   UNL     1      -0.418  13.200  20.940  0.00  0.00    +0.000 HD
ENDBRANCH   5   7
BRANCH   1  18
ATOM     15  C   UNL     1       5.125   4.617  16.268  0.00  0.00    +0.000 A 
ATOM     16  C   UNL     1       4.057   4.124  17.014  0.00  0.00    +0.000 A 
ATOM     17  C   UNL     1       3.227   4.994  17.731  0.00  0.00    +0.000 A 
ATOM     18  C   UNL     1       3.459   6.382  17.755  0.00  0.00    +0.000 A 
ATOM     19  C   UNL     1       4.550   6.854  16.999  0.00  0.00    +0.000 A 
ATOM     20  C   UNL     1       5.370   5.986  16.262  0.00  0.00    +0.000 A 
BRANCH  15  22
ATOM     21  C   UNL     1       6.309   3.995  14.319  0.00  0.00    +0.000 C 
ATOM     22  O   UNL     1       5.877   3.669  15.633  0.00  0.00    +0.000 OA
ENDBRANCH  15  22
ENDBRANCH   1  18
TORSDOF 3
ENDMDL
MODEL 7
REMARK VINA RESULT:      -7.1      3.625      7.497
REMARK  Name = 
REMARK  4 active torsions:
REMARK  status: ('A' for Active; 'I' for Inactive)
REMARK    1  A    between atoms: C_1  and  O_2
REMARK    2  A    between atoms: O_2  and  C_3
REMARK    3  A    between atoms: C_6  and  C_7
REMARK    4  A    between atoms: C_11  and  N_12
REMARK                            x       y       z     vdW  Elec       q    Type
REMARK                         _______ _______ _______ _____ _____    ______ ____
ROOT
ATOM      1  C   UNL     1       2.705   7.089  18.527  0.00  0.00    +0.000 A 
ATOM      2  C   UNL     1       2.408   6.821  19.865  0.00  0.00    +0.000 A 
ATOM      3  N   UNL     1       1.638   7.595  20.665  0.00  0.00    +0.000 NA
ATOM      4  C   UNL     1       1.153   8.728  20.106  0.00  0.00    +0.000 A 
ATOM      5  C   UNL     1       1.376   9.146  18.791  0.00  0.00    +0.000 A 
ATOM      6  C   UNL     1       2.153   8.276  18.007  0.00  0.00    +0.000 A 
ENDROOT
BRANCH   5   7
ATOM      7  N   UNL     1       0.836  10.345  18.324  0.00  0.00    +0.000 N 
ATOM      8  C   UNL     1      -0.628  10.546  18.285  0.00  0.00    +0.000 C 
ATOM      9  C   UNL     1      -1.069  11.843  19.001  0.00  0.00    +0.000 C 
ATOM     10  C   UNL     1      -0.414  13.110  18.404  0.00  0.00    +0.000 C 
ATOM     11  C   UNL     1       0.776  12.671  19.288  0.00  0.00    +0.000 C 
ATOM     12  C   UNL     1       1.637  11.551  18.654  0.00  0.00    +0.000 C 
ATOM     13  N   UNL     1      -0.262  12.124  20.252  0.00  0.00    +0.000 NA
ATOM     14  H   UNL     1      -0.676  12.845  20.844  0.00  0.00    +0.000 HD
ENDBRANCH   5   7
BRANCH   1  18
ATOM     15  C   UNL     1       5.137   4.458  16.099  0.00  0.00    +0.000 A 
ATOM     16  C   UNL     1       5.319   5.838  16.052  0.00  0.00    +0.000 A 
ATOM     17  C   UNL     1       4.554   6.686  16.863  0.00  0.00    +0.000 A 
ATOM     18  C   UNL     1       3.558   6.185  17.720  0.00  0.00    +0.000 A 
ATOM     19  C   UNL     1       3.388   4.787  17.744  0.00  0.00    +0.000 A 
ATOM     20  C   UNL     1       4.168   3.933  16.949  0.00  0.00    +0.000 A 
BRANCH  15  22
ATOM     21  C   UNL     1       6.628   4.489  14.265  0.00  0.00    +0.000 C 
ATOM     22  O   UNL     1       5.923   3.738  15.244  0.00  0.00    +0.000 OA
ENDBRANCH  15  22
ENDBRANCH   1  18
TORSDOF 3
ENDMDL
MODEL 8
REMARK VINA RESULT:      -7.0      4.387      7.925
REMARK  Name = 
REMARK  4 active torsions:
REMARK  status: ('A' for Active; 'I' for Inactive)
REMARK    1  A    between atoms: C_1  and  O_2
REMARK    2  A    between atoms: O_2  and  C_3
REMARK    3  A    between atoms: C_6  and  C_7
REMARK    4  A    between atoms: C_11  and  N_12
REMARK                            x       y       z     vdW  Elec       q    Type
REMARK                         _______ _______ _______ _____ _____    ______ ____
ROOT
ATOM      1  C   UNL     1       5.070   5.077  15.946  0.00  0.00    +0.000 A 
ATOM      2  C   UNL     1       5.159   6.388  16.420  0.00  0.00    +0.000 A 
ATOM      3  N   UNL     1       4.608   6.841  17.570  0.00  0.00    +0.000 NA
ATOM      4  C   UNL     1       3.897   5.938  18.284  0.00  0.00    +0.000 A 
ATOM      5  C   UNL     1       3.698   4.600  17.935  0.00  0.00    +0.000 A 
ATOM      6  C   UNL     1       4.329   4.188  16.748  0.00  0.00    +0.000 A 
ENDROOT
BRANCH   5   7
ATOM      7  N   UNL     1       2.931   3.759  18.742  0.00  0.00    +0.000 N 
ATOM      8  C   UNL     1       3.537   3.069  19.900  0.00  0.00    +0.000 C 
ATOM      9  C   UNL     1       2.754   3.308  21.212  0.00  0.00    +0.000 C 
ATOM     10  C   UNL     1       1.280   2.849  21.121  0.00  0.00    +0.000 C 
ATOM     11  C   UNL     1       1.104   4.214  20.416  0.00  0.00    +0.000 C 
ATOM     12  C   UNL     1       1.524   4.198  18.925  0.00  0.00    +0.000 C 
ATOM     13  N   UNL     1       2.214   4.720  21.321  0.00  0.00    +0.000 NA
ATOM     14  H   UNL     1       1.888   4.953  22.259  0.00  0.00    +0.000 HD
ENDBRANCH   5   7
BRANCH   1  18
ATOM     15  C   UNL     1       6.960   3.793  12.270  0.00  0.00    +0.000 A 
ATOM     16  C   UNL     1       5.690   3.337  12.613  0.00  0.00    +0.000 A 
ATOM     17  C   UNL     1       5.066   3.778  13.785  0.00  0.00    +0.000 A 
ATOM     18  C   UNL     1       5.706   4.664  14.672  0.00  0.00    +0.000 A 
ATOM     19  C   UNL     1       6.992   5.105  14.307  0.00  0.00    +0.000 A 
ATOM     20  C   UNL     1       7.611   4.680  13.122  0.00  0.00    +0.000 A 
BRANCH  15  22
ATOM     21  C   UNL     1       7.343   1.865  10.957  0.00  0.00    +0.000 C 
ATOM     22  O   UNL     1       7.475   3.271  11.117  0.00  0.00    +0.000 OA
ENDBRANCH  15  22
ENDBRANCH   1  18
TORSDOF 3
ENDMDL
MODEL 9
REMARK VINA RESULT:      -7.0      2.306      3.911
REMARK  Name = 
REMARK  4 active torsions:
REMARK  status: ('A' for Active; 'I' for Inactive)
REMARK    1  A    between atoms: C_1  and  O_2
REMARK    2  A    between atoms: O_2  and  C_3
REMARK    3  A    between atoms: C_6  and  C_7
REMARK    4  A    between atoms: C_11  and  N_12
REMARK                            x       y       z     vdW  Elec       q    Type
REMARK                         _______ _______ _______ _____ _____    ______ ____
ROOT
ATOM      1  C   UNL     1       1.271   8.692  19.971  0.00  0.00    +0.000 A 
ATOM      2  C   UNL     1       1.545   9.073  18.655  0.00  0.00    +0.000 A 
ATOM      3  N   UNL     1       2.280   8.359  17.771  0.00  0.00    +0.000 NA
ATOM      4  C   UNL     1       2.803   7.200  18.235  0.00  0.00    +0.000 A 
ATOM      5  C   UNL     1       2.639   6.693  19.527  0.00  0.00    +0.000 A 
ATOM      6  C   UNL     1       1.834   7.468  20.379  0.00  0.00    +0.000 A 
ENDROOT
BRANCH   5   7
ATOM      7  N   UNL     1       3.240   5.490  19.901  0.00  0.00    +0.000 N 
ATOM      8  C   UNL     1       2.417   4.297  20.190  0.00  0.00    +0.000 C 
ATOM      9  C   UNL     1       2.865   3.056  19.384  0.00  0.00    +0.000 C 
ATOM     10  C   UNL     1       4.341   2.673  19.644  0.00  0.00    +0.000 C 
ATOM     11  C   UNL     1       4.608   3.805  18.624  0.00  0.00    +0.000 C 
ATOM     12  C   UNL     1       4.544   5.223  19.244  0.00  0.00    +0.000 C 
ATOM     13  N   UNL     1       3.297   3.401  17.973  0.00  0.00    +0.000 NA
ATOM     14  H   UNL     1       3.387   2.583  17.369  0.00  0.00    +0.000 HD
ENDBRANCH   5   7
BRANCH   1  18
ATOM     15  C   UNL     1      -1.039  11.206  22.630  0.00  0.00    +0.000 A 
ATOM     16  C   UNL     1      -0.819  11.585  21.308  0.00  0.00    +0.000 A 
ATOM     17  C   UNL     1      -0.100  10.755  20.440  0.00  0.00    +0.000 A 
ATOM     18  C   UNL     1       0.453   9.537  20.874  0.00  0.00    +0.000 A 
ATOM     19  C   UNL     1       0.224   9.180  22.217  0.00  0.00    +0.000 A 
ATOM     20  C   UNL     1      -0.515  10.000  23.083  0.00  0.00    +0.000 A 
BRANCH  15  22
ATOM     21  C   UNL     1      -1.329  13.467  23.258  0.00  0.00    +0.000 C 
ATOM     22  O   UNL     1      -1.731  12.110  23.387  0.00  0.00    +0.000 OA
ENDBRANCH  15  22
ENDBRANCH   1  18
TORSDOF 3
ENDMDL
