MODEL 1
REMARK VINA RESULT:      -8.3      0.000      0.000
REMARK  Name = 
REMARK  3 active torsions:
REMARK  status: ('A' for Active; 'I' for Inactive)
REMARK    1  A    between atoms: C_1  and  N_2
REMARK    2  A    between atoms: C_5  and  N_6
REMARK    3  A    between atoms: C_15  and  C_16
REMARK                            x       y       z     vdW  Elec       q    Type
REMARK                         _______ _______ _______ _____ _____    ______ ____
ROOT
ATOM      1  N   UNL     1      -0.707  11.590  21.223  0.00  0.00    +0.000 N 
ATOM      2  C   UNL     1       0.266  10.625  21.097  0.00  0.00    +0.000 C 
ATOM      3  O   UNL     1       1.048  10.363  22.010  0.00  0.00    +0.000 OA
ATOM      4  N   UNL     1       0.244  10.002  19.878  0.00  0.00    +0.000 N 
ATOM      5  C   UNL     1       1.137   8.975  19.550  0.00  0.00    +0.000 A 
ATOM      6  C   UNL     1       1.393   7.927  20.429  0.00  0.00    +0.000 A 
ATOM      7  C   UNL     1       2.289   6.970  19.962  0.00  0.00    +0.000 A 
ATOM      8  N   UNL     1       2.741   5.800  20.499  0.00  0.00    +0.000 N 
ATOM      9  N   UNL     1       3.636   5.151  19.737  0.00  0.00    +0.000 NA
ATOM     10  C   UNL     1       3.798   5.941  18.661  0.00  0.00    +0.000 A 
ATOM     11  C   UNL     1       2.932   7.078  18.732  0.00  0.00    +0.000 A 
ATOM     12  C   UNL     1       2.605   8.167  17.918  0.00  0.00    +0.000 A 
ATOM     13  N   UNL     1       1.678   9.078  18.318  0.00  0.00    +0.000 NA
ATOM     14  H   UNL     1      -1.211  11.872  20.394  0.00  0.00    +0.000 HD
ATOM     15  H   UNL     1       0.032  10.589  19.087  0.00  0.00    +0.000 HD
ATOM     16  H   UNL     1       2.473   5.380  21.382  0.00  0.00    +0.000 HD
ENDROOT
BRANCH  10  17
ATOM     17  C   UNL     1       4.756   5.584  17.611  0.00  0.00    +0.000 A 
ATOM     18  C   UNL     1       5.950   6.314  17.464  0.00  0.00    +0.000 A 
ATOM     19  C   UNL     1       6.869   5.987  16.463  0.00  0.00    +0.000 A 
ATOM     20  C   UNL     1       6.597   4.931  15.604  0.00  0.00    +0.000 A 
ATOM     21  F   UNL     1       7.475   4.614  14.647  0.00  0.00    +0.000 F 
ATOM     22  C   UNL     1       5.419   4.201  15.721  0.00  0.00    +0.000 A 
ATOM     23  C   UNL     1       4.497   4.533  16.719  0.00  0.00    +0.000 A 
ENDBRANCH  10  17
BRANCH   1  28
ATOM     24  C   UNL     1      -1.950  15.976  22.143  0.00  0.00    +0.000 C 
ATOM     25  N   UNL     1      -1.935  14.519  22.080  0.00  0.00    +0.000 NA
ATOM     26  C   UNL     1      -2.405  13.908  23.325  0.00  0.00    +0.000 C 
ATOM     27  C   UNL     1      -1.991  12.455  23.154  0.00  0.00    +0.000 C 
ATOM     28  C   UNL     1      -0.693  12.515  22.347  0.00  0.00    +0.000 C 
ATOM     29  C   UNL     1      -0.578  13.982  21.893  0.00  0.00    +0.000 C 
ENDBRANCH   1  28
TORSDOF 2
ENDMDL
MODEL 2
REMARK VINA RESULT:      -8.3      0.951      1.283
REMARK  Name = 
REMARK  3 active torsions:
REMARK  status: ('A' for Active; 'I' for Inactive)
REMARK    1  A    between atoms: C_1  and  N_2
REMARK    2  A    between atoms: C_5  and  N_6
REMARK    3  A    between atoms: C_15  and  C_16
REMARK                            x       y       z     vdW  Elec       q    Type
REMARK                         _______ _______ _______ _____ _____    ______ ____
ROOT
ATOM      1  N   UNL     1      -0.492  12.608  20.928  0.00  0.00    +0.000 N 
ATOM      2  C   UNL     1       0.379  11.549  20.815  0.00  0.00    +0.000 C 
ATOM      3  O   UNL     1       1.235  11.313  21.666  0.00  0.00    +0.000 OA
ATOM      4  N   UNL     1       0.171  10.806  19.684  0.00  0.00    +0.000 N 
ATOM      5  C   UNL     1       0.935   9.671  19.386  0.00  0.00    +0.000 A 
ATOM      6  C   UNL     1       1.202   8.703  20.348  0.00  0.00    +0.000 A 
ATOM      7  C   UNL     1       1.959   7.623  19.905  0.00  0.00    +0.000 A 
ATOM      8  N   UNL     1       2.372   6.479  20.523  0.00  0.00    +0.000 N 
ATOM      9  N   UNL     1       3.121   5.672  19.752  0.00  0.00    +0.000 NA
ATOM     10  C   UNL     1       3.225   6.326  18.583  0.00  0.00    +0.000 A 
ATOM     11  C   UNL     1       2.467   7.540  18.611  0.00  0.00    +0.000 A 
ATOM     12  C   UNL     1       2.140   8.564  17.715  0.00  0.00    +0.000 A 
ATOM     13  N   UNL     1       1.342   9.594  18.101  0.00  0.00    +0.000 NA
ATOM     14  H   UNL     1      -1.061  12.847  20.128  0.00  0.00    +0.000 HD
ATOM     15  H   UNL     1      -0.080  11.324  18.856  0.00  0.00    +0.000 HD
ATOM     16  H   UNL     1       2.171   6.181  21.471  0.00  0.00    +0.000 HD
ENDROOT
BRANCH  10  17
ATOM     17  C   UNL     1       4.027   5.774  17.488  0.00  0.00    +0.000 A 
ATOM     18  C   UNL     1       4.092   4.382  17.291  0.00  0.00    +0.000 A 
ATOM     19  C   UNL     1       4.858   3.843  16.253  0.00  0.00    +0.000 A 
ATOM     20  C   UNL     1       5.563   4.692  15.410  0.00  0.00    +0.000 A 
ATOM     21  F   UNL     1       6.294   4.179  14.416  0.00  0.00    +0.000 F 
ATOM     22  C   UNL     1       5.524   6.070  15.591  0.00  0.00    +0.000 A 
ATOM     23  C   UNL     1       4.762   6.609  16.634  0.00  0.00    +0.000 A 
ENDBRANCH  10  17
BRANCH   1  28
ATOM     24  C   UNL     1      -2.256  16.748  22.101  0.00  0.00    +0.000 C 
ATOM     25  N   UNL     1      -1.943  15.324  22.086  0.00  0.00    +0.000 NA
ATOM     26  C   UNL     1      -1.782  14.781  23.436  0.00  0.00    +0.000 C 
ATOM     27  C   UNL     1      -1.147  13.425  23.170  0.00  0.00    +0.000 C 
ATOM     28  C   UNL     1      -0.277  13.641  21.931  0.00  0.00    +0.000 C 
ATOM     29  C   UNL     1      -0.663  15.041  21.418  0.00  0.00    +0.000 C 
ENDBRANCH   1  28
TORSDOF 2
ENDMDL
MODEL 3
REMARK VINA RESULT:      -8.0      6.982      8.122
REMARK  Name = 
REMARK  3 active torsions:
REMARK  status: ('A' for Active; 'I' for Inactive)
REMARK    1  A    between atoms: C_1  and  N_2
REMARK    2  A    between atoms: C_5  and  N_6
REMARK    3  A    between atoms: C_15  and  C_16
REMARK                            x       y       z     vdW  Elec       q    Type
REMARK                         _______ _______ _______ _____ _____    ______ ____
ROOT
ATOM      1  N   UNL     1       9.898  10.083  19.035  0.00  0.00    +0.000 N 
ATOM      2  C   UNL     1       8.827   9.430  18.470  0.00  0.00    +0.000 C 
ATOM      3  O   UNL     1       8.059   9.990  17.689  0.00  0.00    +0.000 OA
ATOM      4  N   UNL     1       8.735   8.121  18.859  0.00  0.00    +0.000 N 
ATOM      5  C   UNL     1       7.729   7.271  18.385  0.00  0.00    +0.000 A 
ATOM      6  C   UNL     1       7.402   7.217  17.034  0.00  0.00    +0.000 A 
ATOM      7  C   UNL     1       6.394   6.314  16.705  0.00  0.00    +0.000 A 
ATOM      8  N   UNL     1       5.845   5.948  15.511  0.00  0.00    +0.000 N 
ATOM      9  N   UNL     1       4.858   5.043  15.609  0.00  0.00    +0.000 NA
ATOM     10  C   UNL     1       4.735   4.821  16.929  0.00  0.00    +0.000 A 
ATOM     11  C   UNL     1       5.717   5.563  17.662  0.00  0.00    +0.000 A 
ATOM     12  C   UNL     1       6.121   5.686  18.995  0.00  0.00    +0.000 A 
ATOM     13  N   UNL     1       7.152   6.505  19.334  0.00  0.00    +0.000 NA
ATOM     14  H   UNL     1      10.395   9.626  19.786  0.00  0.00    +0.000 HD
ATOM     15  H   UNL     1       8.974   7.929  19.819  0.00  0.00    +0.000 HD
ATOM     16  H   UNL     1       6.105   6.273  14.587  0.00  0.00    +0.000 HD
ENDROOT
BRANCH  10  17
ATOM     17  C   UNL     1       3.704   3.914  17.441  0.00  0.00    +0.000 A 
ATOM     18  C   UNL     1       2.400   4.386  17.675  0.00  0.00    +0.000 A 
ATOM     19  C   UNL     1       1.409   3.531  18.168  0.00  0.00    +0.000 A 
ATOM     20  C   UNL     1       1.719   2.203  18.429  0.00  0.00    +0.000 A 
ATOM     21  F   UNL     1       0.774   1.383  18.898  0.00  0.00    +0.000 F 
ATOM     22  C   UNL     1       3.004   1.716  18.217  0.00  0.00    +0.000 A 
ATOM     23  C   UNL     1       3.997   2.573  17.730  0.00  0.00    +0.000 A 
ENDBRANCH  10  17
BRANCH   1  28
ATOM     24  C   UNL     1       9.777  13.805  21.821  0.00  0.00    +0.000 C 
ATOM     25  N   UNL     1      10.252  12.720  20.969  0.00  0.00    +0.000 NA
ATOM     26  C   UNL     1      11.376  13.133  20.127  0.00  0.00    +0.000 C 
ATOM     27  C   UNL     1      11.469  11.994  19.124  0.00  0.00    +0.000 C 
ATOM     28  C   UNL     1      10.024  11.530  18.929  0.00  0.00    +0.000 C 
ATOM     29  C   UNL     1       9.224  12.266  20.020  0.00  0.00    +0.000 C 
ENDBRANCH   1  28
TORSDOF 2
ENDMDL
MODEL 4
REMARK VINA RESULT:      -7.8      1.399      1.706
REMARK  Name = 
REMARK  3 active torsions:
REMARK  status: ('A' for Active; 'I' for Inactive)
REMARK    1  A    between atoms: C_1  and  N_2
REMARK    2  A    between atoms: C_5  and  N_6
REMARK    3  A    between atoms: C_15  and  C_16
REMARK                            x       y       z     vdW  Elec       q    Type
REMARK                         _______ _______ _______ _____ _____    ______ ____
ROOT
ATOM      1  N   UNL     1      -0.371  13.133  20.551  0.00  0.00    +0.000 N 
ATOM      2  C   UNL     1       0.426  12.012  20.536  0.00  0.00    +0.000 C 
ATOM      3  O   UNL     1       1.220  11.764  21.442  0.00  0.00    +0.000 OA
ATOM      4  N   UNL     1       0.220  11.225  19.435  0.00  0.00    +0.000 N 
ATOM      5  C   UNL     1       0.914  10.026  19.235  0.00  0.00    +0.000 A 
ATOM      6  C   UNL     1       1.064   9.095  20.257  0.00  0.00    +0.000 A 
ATOM      7  C   UNL     1       1.762   7.942  19.909  0.00  0.00    +0.000 A 
ATOM      8  N   UNL     1       2.062   6.807  20.605  0.00  0.00    +0.000 N 
ATOM      9  N   UNL     1       2.787   5.911  19.916  0.00  0.00    +0.000 NA
ATOM     10  C   UNL     1       2.994   6.492  18.722  0.00  0.00    +0.000 A 
ATOM     11  C   UNL     1       2.325   7.755  18.649  0.00  0.00    +0.000 A 
ATOM     12  C   UNL     1       2.116   8.749  17.688  0.00  0.00    +0.000 A 
ATOM     13  N   UNL     1       1.376   9.851  17.979  0.00  0.00    +0.000 NA
ATOM     14  H   UNL     1      -0.883  13.367  19.711  0.00  0.00    +0.000 HD
ATOM     15  H   UNL     1       0.048  11.714  18.571  0.00  0.00    +0.000 HD
ATOM     16  H   UNL     1       1.794   6.576  21.555  0.00  0.00    +0.000 HD
ENDROOT
BRANCH  10  17
ATOM     17  C   UNL     1       3.807   5.827  17.699  0.00  0.00    +0.000 A 
ATOM     18  C   UNL     1       4.673   6.579  16.885  0.00  0.00    +0.000 A 
ATOM     19  C   UNL     1       5.449   5.957  15.902  0.00  0.00    +0.000 A 
ATOM     20  C   UNL     1       5.361   4.582  15.730  0.00  0.00    +0.000 A 
ATOM     21  F   UNL     1       6.104   3.984  14.794  0.00  0.00    +0.000 F 
ATOM     22  C   UNL     1       4.504   3.819  16.515  0.00  0.00    +0.000 A 
ATOM     23  C   UNL     1       3.723   4.443  17.494  0.00  0.00    +0.000 A 
ENDBRANCH  10  17
BRANCH   1  28
ATOM     24  C   UNL     1       0.308  17.734  20.547  0.00  0.00    +0.000 C 
ATOM     25  N   UNL     1      -0.308  16.420  20.686  0.00  0.00    +0.000 NA
ATOM     26  C   UNL     1      -1.190  16.344  21.852  0.00  0.00    +0.000 C 
ATOM     27  C   UNL     1      -1.434  14.849  21.983  0.00  0.00    +0.000 C 
ATOM     28  C   UNL     1      -0.131  14.201  21.510  0.00  0.00    +0.000 C 
ATOM     29  C   UNL     1       0.686  15.357  20.904  0.00  0.00    +0.000 C 
ENDBRANCH   1  28
TORSDOF 2
ENDMDL
MODEL 5
REMARK VINA RESULT:      -7.8      1.802      2.381
REMARK  Name = 
REMARK  3 active torsions:
REMARK  status: ('A' for Active; 'I' for Inactive)
REMARK    1  A    between atoms: C_1  and  N_2
REMARK    2  A    between atoms: C_5  and  N_6
REMARK    3  A    between atoms: C_15  and  C_16
REMARK                            x       y       z     vdW  Elec       q    Type
REMARK                         _______ _______ _______ _____ _____    ______ ____
ROOT
ATOM      1  N   UNL     1      -0.094  13.336  20.129  0.00  0.00    +0.000 N 
ATOM      2  C   UNL     1       0.613  12.162  20.247  0.00  0.00    +0.000 C 
ATOM      3  O   UNL     1       1.331  11.928  21.218  0.00  0.00    +0.000 OA
ATOM      4  N   UNL     1       0.412  11.310  19.195  0.00  0.00    +0.000 N 
ATOM      5  C   UNL     1       1.021  10.051  19.128  0.00  0.00    +0.000 A 
ATOM      6  C   UNL     1       1.038   9.194  20.223  0.00  0.00    +0.000 A 
ATOM      7  C   UNL     1       1.664   7.970  20.005  0.00  0.00    +0.000 A 
ATOM      8  N   UNL     1       1.833   6.873  20.799  0.00  0.00    +0.000 N 
ATOM      9  N   UNL     1       2.525   5.875  20.226  0.00  0.00    +0.000 NA
ATOM     10  C   UNL     1       2.847   6.346  19.009  0.00  0.00    +0.000 A 
ATOM     11  C   UNL     1       2.283   7.645  18.801  0.00  0.00    +0.000 A 
ATOM     12  C   UNL     1       2.210   8.574  17.759  0.00  0.00    +0.000 A 
ATOM     13  N   UNL     1       1.541   9.747  17.920  0.00  0.00    +0.000 NA
ATOM     14  H   UNL     1      -0.535  13.542  19.244  0.00  0.00    +0.000 HD
ATOM     15  H   UNL     1       0.329  11.742  18.289  0.00  0.00    +0.000 HD
ATOM     16  H   UNL     1       1.493   6.736  21.744  0.00  0.00    +0.000 HD
ENDROOT
BRANCH  10  17
ATOM     17  C   UNL     1       3.665   5.546  18.092  0.00  0.00    +0.000 A 
ATOM     18  C   UNL     1       3.409   4.172  17.931  0.00  0.00    +0.000 A 
ATOM     19  C   UNL     1       4.185   3.397  17.064  0.00  0.00    +0.000 A 
ATOM     20  C   UNL     1       5.219   3.993  16.355  0.00  0.00    +0.000 A 
ATOM     21  F   UNL     1       5.961   3.256  15.523  0.00  0.00    +0.000 F 
ATOM     22  C   UNL     1       5.500   5.347  16.505  0.00  0.00    +0.000 A 
ATOM     23  C   UNL     1       4.727   6.120  17.378  0.00  0.00    +0.000 A 
ENDBRANCH  10  17
BRANCH   1  28
ATOM     24  C   UNL     1       1.678  17.630  19.905  0.00  0.00    +0.000 C 
ATOM     25  N   UNL     1       0.743  16.515  19.991  0.00  0.00    +0.000 NA
ATOM     26  C   UNL     1      -0.377  16.803  20.890  0.00  0.00    +0.000 C 
ATOM     27  C   UNL     1      -1.005  15.431  21.081  0.00  0.00    +0.000 C 
ATOM     28  C   UNL     1       0.171  14.455  21.022  0.00  0.00    +0.000 C 
ATOM     29  C   UNL     1       1.366  15.306  20.551  0.00  0.00    +0.000 C 
ENDBRANCH   1  28
TORSDOF 2
ENDMDL
MODEL 6
REMARK VINA RESULT:      -7.7      2.565      3.590
REMARK  Name = 
REMARK  3 active torsions:
REMARK  status: ('A' for Active; 'I' for Inactive)
REMARK    1  A    between atoms: C_1  and  N_2
REMARK    2  A    between atoms: C_5  and  N_6
REMARK    3  A    between atoms: C_15  and  C_16
REMARK                            x       y       z     vdW  Elec       q    Type
REMARK                         _______ _______ _______ _____ _____    ______ ____
ROOT
ATOM      1  N   UNL     1      -2.021  12.865  22.274  0.00  0.00    +0.000 N 
ATOM      2  C   UNL     1      -1.499  12.017  21.325  0.00  0.00    +0.000 C 
ATOM      3  O   UNL     1      -1.970  11.937  20.192  0.00  0.00    +0.000 OA
ATOM      4  N   UNL     1      -0.418  11.310  21.779  0.00  0.00    +0.000 N 
ATOM      5  C   UNL     1       0.275  10.405  20.966  0.00  0.00    +0.000 A 
ATOM      6  C   UNL     1       0.642  10.733  19.665  0.00  0.00    +0.000 A 
ATOM      7  C   UNL     1       1.342   9.742  18.981  0.00  0.00    +0.000 A 
ATOM      8  N   UNL     1       1.901   9.708  17.737  0.00  0.00    +0.000 N 
ATOM      9  N   UNL     1       2.484   8.539  17.424  0.00  0.00    +0.000 NA
ATOM     10  C   UNL     1       2.278   7.761  18.500  0.00  0.00    +0.000 A 
ATOM     11  C   UNL     1       1.604   8.490  19.532  0.00  0.00    +0.000 A 
ATOM     12  C   UNL     1       1.197   8.259  20.849  0.00  0.00    +0.000 A 
ATOM     13  N   UNL     1       0.577   9.234  21.565  0.00  0.00    +0.000 NA
ATOM     14  H   UNL     1      -1.699  12.773  23.228  0.00  0.00    +0.000 HD
ATOM     15  H   UNL     1      -0.463  11.003  22.737  0.00  0.00    +0.000 HD
ATOM     16  H   UNL     1       1.928  10.454  17.051  0.00  0.00    +0.000 HD
ENDROOT
BRANCH  10  17
ATOM     17  C   UNL     1       2.732   6.368  18.512  0.00  0.00    +0.000 A 
ATOM     18  C   UNL     1       1.946   5.362  17.920  0.00  0.00    +0.000 A 
ATOM     19  C   UNL     1       2.366   4.029  17.930  0.00  0.00    +0.000 A 
ATOM     20  C   UNL     1       3.572   3.696  18.532  0.00  0.00    +0.000 A 
ATOM     21  F   UNL     1       3.978   2.423  18.541  0.00  0.00    +0.000 F 
ATOM     22  C   UNL     1       4.361   4.670  19.134  0.00  0.00    +0.000 A 
ATOM     23  C   UNL     1       3.937   6.003  19.130  0.00  0.00    +0.000 A 
ENDBRANCH  10  17
BRANCH   1  28
ATOM     24  C   UNL     1      -6.305  12.815  24.083  0.00  0.00    +0.000 C 
ATOM     25  N   UNL     1      -4.941  13.210  23.749  0.00  0.00    +0.000 NA
ATOM     26  C   UNL     1      -4.817  14.656  23.558  0.00  0.00    +0.000 C 
ATOM     27  C   UNL     1      -3.450  14.785  22.906  0.00  0.00    +0.000 C 
ATOM     28  C   UNL     1      -3.304  13.519  22.060  0.00  0.00    +0.000 C 
ATOM     29  C   UNL     1      -4.489  12.628  22.475  0.00  0.00    +0.000 C 
ENDBRANCH   1  28
TORSDOF 2
ENDMDL
MODEL 7
REMARK VINA RESULT:      -7.5      2.641      3.272
REMARK  Name = 
REMARK  3 active torsions:
REMARK  status: ('A' for Active; 'I' for Inactive)
REMARK    1  A    between atoms: C_1  and  N_2
REMARK    2  A    between atoms: C_5  and  N_6
REMARK    3  A    between atoms: C_15  and  C_16
REMARK                            x       y       z     vdW  Elec       q    Type
REMARK                         _______ _______ _______ _____ _____    ______ ____
ROOT
ATOM      1  N   UNL     1      -1.583  12.676  21.937  0.00  0.00    +0.000 N 
ATOM      2  C   UNL     1      -1.083  11.761  21.040  0.00  0.00    +0.000 C 
ATOM      3  O   UNL     1      -1.505  11.679  19.887  0.00  0.00    +0.000 OA
ATOM      4  N   UNL     1      -0.081  10.991  21.566  0.00  0.00    +0.000 N 
ATOM      5  C   UNL     1       0.578  10.010  20.814  0.00  0.00    +0.000 A 
ATOM      6  C   UNL     1       1.029  10.267  19.524  0.00  0.00    +0.000 A 
ATOM      7  C   UNL     1       1.682   9.206  18.904  0.00  0.00    +0.000 A 
ATOM      8  N   UNL     1       2.295   9.089  17.690  0.00  0.00    +0.000 N 
ATOM      9  N   UNL     1       2.801   7.871  17.440  0.00  0.00    +0.000 NA
ATOM     10  C   UNL     1       2.487   7.146  18.527  0.00  0.00    +0.000 A 
ATOM     11  C   UNL     1       1.823   7.956  19.503  0.00  0.00    +0.000 A 
ATOM     12  C   UNL     1       1.338   7.799  20.805  0.00  0.00    +0.000 A 
ATOM     13  N   UNL     1       0.762   8.840  21.461  0.00  0.00    +0.000 NA
ATOM     14  H   UNL     1      -1.314  12.591  22.907  0.00  0.00    +0.000 HD
ATOM     15  H   UNL     1      -0.194  10.719  22.529  0.00  0.00    +0.000 HD
ATOM     16  H   UNL     1       2.411   9.808  16.985  0.00  0.00    +0.000 HD
ENDROOT
BRANCH  10  17
ATOM     17  C   UNL     1       2.833   5.724  18.601  0.00  0.00    +0.000 A 
ATOM     18  C   UNL     1       3.939   5.304  19.362  0.00  0.00    +0.000 A 
ATOM     19  C   UNL     1       4.283   3.951  19.436  0.00  0.00    +0.000 A 
ATOM     20  C   UNL     1       3.523   3.013  18.749  0.00  0.00    +0.000 A 
ATOM     21  F   UNL     1       3.847   1.719  18.820  0.00  0.00    +0.000 F 
ATOM     22  C   UNL     1       2.432   3.404  17.981  0.00  0.00    +0.000 A 
ATOM     23  C   UNL     1       2.092   4.759  17.902  0.00  0.00    +0.000 A 
ENDBRANCH  10  17
BRANCH   1  28
ATOM     24  C   UNL     1      -5.822  13.280  23.751  0.00  0.00    +0.000 C 
ATOM     25  N   UNL     1      -4.433  13.493  23.362  0.00  0.00    +0.000 NA
ATOM     26  C   UNL     1      -4.175  14.883  22.980  0.00  0.00    +0.000 C 
ATOM     27  C   UNL     1      -2.812  14.791  22.312  0.00  0.00    +0.000 C 
ATOM     28  C   UNL     1      -2.801  13.417  21.641  0.00  0.00    +0.000 C 
ATOM     29  C   UNL     1      -4.059  12.707  22.176  0.00  0.00    +0.000 C 
ENDBRANCH   1  28
TORSDOF 2
ENDMDL
MODEL 8
REMARK VINA RESULT:      -7.5      2.606      4.106
REMARK  Name = 
REMARK  3 active torsions:
REMARK  status: ('A' for Active; 'I' for Inactive)
REMARK    1  A    between atoms: C_1  and  N_2
REMARK    2  A    between atoms: C_5  and  N_6
REMARK    3  A    between atoms: C_15  and  C_16
REMARK                            x       y       z     vdW  Elec       q    Type
REMARK                         _______ _______ _______ _____ _____    ______ ____
ROOT
ATOM      1  N   UNL     1      -3.005  13.233  22.062  0.00  0.00    +0.000 N 
ATOM      2  C   UNL     1      -2.365  12.400  21.175  0.00  0.00    +0.000 C 
ATOM      3  O   UNL     1      -2.800  12.191  20.044  0.00  0.00    +0.000 OA
ATOM      4  N   UNL     1      -1.212  11.864  21.683  0.00  0.00    +0.000 N 
ATOM      5  C   UNL     1      -0.397  11.005  20.937  0.00  0.00    +0.000 A 
ATOM      6  C   UNL     1      -0.050  11.294  19.622  0.00  0.00    +0.000 A 
ATOM      7  C   UNL     1       0.780  10.359  19.010  0.00  0.00    +0.000 A 
ATOM      8  N   UNL     1       1.362  10.318  17.777  0.00  0.00    +0.000 N 
ATOM      9  N   UNL     1       2.092   9.214  17.545  0.00  0.00    +0.000 NA
ATOM     10  C   UNL     1       1.964   8.485  18.667  0.00  0.00    +0.000 A 
ATOM     11  C   UNL     1       1.187   9.186  19.643  0.00  0.00    +0.000 A 
ATOM     12  C   UNL     1       0.787   8.988  20.968  0.00  0.00    +0.000 A 
ATOM     13  N   UNL     1       0.038   9.920  21.613  0.00  0.00    +0.000 NA
ATOM     14  H   UNL     1      -2.692  13.241  23.023  0.00  0.00    +0.000 HD
ATOM     15  H   UNL     1      -1.236  11.614  22.659  0.00  0.00    +0.000 HD
ATOM     16  H   UNL     1       1.309  11.017  17.045  0.00  0.00    +0.000 HD
ENDROOT
BRANCH  10  17
ATOM     17  C   UNL     1       2.589   7.163  18.772  0.00  0.00    +0.000 A 
ATOM     18  C   UNL     1       2.288   6.324  19.860  0.00  0.00    +0.000 A 
ATOM     19  C   UNL     1       2.882   5.063  19.975  0.00  0.00    +0.000 A 
ATOM     20  C   UNL     1       3.778   4.638  19.003  0.00  0.00    +0.000 A 
ATOM     21  F   UNL     1       4.344   3.432  19.109  0.00  0.00    +0.000 F 
ATOM     22  C   UNL     1       4.100   5.454  17.924  0.00  0.00    +0.000 A 
ATOM     23  C   UNL     1       3.511   6.718  17.814  0.00  0.00    +0.000 A 
ENDBRANCH  10  17
BRANCH   1  28
ATOM     24  C   UNL     1      -7.287  12.732  23.807  0.00  0.00    +0.000 C 
ATOM     25  N   UNL     1      -5.977  13.280  23.471  0.00  0.00    +0.000 NA
ATOM     26  C   UNL     1      -6.033  14.718  23.204  0.00  0.00    +0.000 C 
ATOM     27  C   UNL     1      -4.679  14.985  22.567  0.00  0.00    +0.000 C 
ATOM     28  C   UNL     1      -4.355  13.707  21.793  0.00  0.00    +0.000 C 
ATOM     29  C   UNL     1      -5.427  12.694  22.239  0.00  0.00    +0.000 C 
ENDBRANCH   1  28
TORSDOF 2
ENDMDL
MODEL 9
REMARK VINA RESULT:      -7.4      1.070      1.224
REMARK  Name = 
REMARK  3 active torsions:
REMARK  status: ('A' for Active; 'I' for Inactive)
REMARK    1  A    between atoms: C_1  and  N_2
REMARK    2  A    between atoms: C_5  and  N_6
REMARK    3  A    between atoms: C_15  and  C_16
REMARK                            x       y       z     vdW  Elec       q    Type
REMARK                         _______ _______ _______ _____ _____    ______ ____
ROOT
ATOM      1  N   UNL     1      -0.648  12.422  20.367  0.00  0.00    +0.000 N 
ATOM      2  C   UNL     1       0.229  11.367  20.462  0.00  0.00    +0.000 C 
ATOM      3  O   UNL     1       0.877  11.146  21.484  0.00  0.00    +0.000 OA
ATOM      4  N   UNL     1       0.276  10.609  19.323  0.00  0.00    +0.000 N 
ATOM      5  C   UNL     1       1.090   9.474  19.216  0.00  0.00    +0.000 A 
ATOM      6  C   UNL     1       1.141   8.519  20.226  0.00  0.00    +0.000 A 
ATOM      7  C   UNL     1       1.979   7.438  19.974  0.00  0.00    +0.000 A 
ATOM      8  N   UNL     1       2.250   6.303  20.683  0.00  0.00    +0.000 N 
ATOM      9  N   UNL     1       3.151   5.492  20.107  0.00  0.00    +0.000 NA
ATOM     10  C   UNL     1       3.508   6.132  18.980  0.00  0.00    +0.000 A 
ATOM     11  C   UNL     1       2.760   7.342  18.825  0.00  0.00    +0.000 A 
ATOM     12  C   UNL     1       2.635   8.352  17.866  0.00  0.00    +0.000 A 
ATOM     13  N   UNL     1       1.769   9.383  18.053  0.00  0.00    +0.000 NA
ATOM     14  H   UNL     1      -1.028  12.648  19.459  0.00  0.00    +0.000 HD
ATOM     15  H   UNL     1       0.212  11.115  18.454  0.00  0.00    +0.000 HD
ATOM     16  H   UNL     1       1.846   6.016  21.567  0.00  0.00    +0.000 HD
ENDROOT
BRANCH  10  17
ATOM     17  C   UNL     1       4.533   5.570  18.096  0.00  0.00    +0.000 A 
ATOM     18  C   UNL     1       5.884   5.574  18.486  0.00  0.00    +0.000 A 
ATOM     19  C   UNL     1       6.872   5.046  17.649  0.00  0.00    +0.000 A 
ATOM     20  C   UNL     1       6.512   4.513  16.419  0.00  0.00    +0.000 A 
ATOM     21  F   UNL     1       7.453   4.005  15.617  0.00  0.00    +0.000 F 
ATOM     22  C   UNL     1       5.184   4.508  16.005  0.00  0.00    +0.000 A 
ATOM     23  C   UNL     1       4.197   5.042  16.840  0.00  0.00    +0.000 A 
ENDBRANCH  10  17
BRANCH   1  28
ATOM     24  C   UNL     1      -0.329  17.056  20.594  0.00  0.00    +0.000 C 
ATOM     25  N   UNL     1      -0.859  15.698  20.590  0.00  0.00    +0.000 NA
ATOM     26  C   UNL     1      -1.923  15.518  21.579  0.00  0.00    +0.000 C 
ATOM     27  C   UNL     1      -2.072  14.005  21.629  0.00  0.00    +0.000 C 
ATOM     28  C   UNL     1      -0.661  13.469  21.379  0.00  0.00    +0.000 C 
ATOM     29  C   UNL     1       0.159  14.701  20.955  0.00  0.00    +0.000 C 
ENDBRANCH   1  28
TORSDOF 2
ENDMDL
