MODEL 1
REMARK VINA RESULT:      -8.5      0.000      0.000
REMARK  Name = 
REMARK  13 active torsions:
REMARK  status: ('A' for Active; 'I' for Inactive)
REMARK    1  A    between atoms: C_1  and  C_2
REMARK    2  A    between atoms: C_2  and  C_3
REMARK    3  A    between atoms: C_3  and  C_4
REMARK    4  A    between atoms: C_11  and  O_12
REMARK    5  A    between atoms: O_12  and  C_13
REMARK    6  A    between atoms: C_13  and  C_15
REMARK    7  A    between atoms: C_16  and  C_17
REMARK    8  A    between atoms: C_16  and  C_18
REMARK    9  A    between atoms: C_23  and  O_24
REMARK   10  A    between atoms: O_24  and  C_25
REMARK   11  A    between atoms: C_25  and  C_27
REMARK   12  A    between atoms: C_28  and  C_29
REMARK   13  A    between atoms: C_28  and  C_30
REMARK                            x       y       z     vdW  Elec       q    Type
REMARK                         _______ _______ _______ _____ _____    ______ ____
ROOT
ATOM      1  C   UNL     1       1.328   8.457  20.121  0.00  0.00    +0.000 A 
ATOM      2  C   UNL     1       1.081   9.714  19.720  0.00  0.00    +0.000 A 
ATOM      3  C   UNL     1       1.606  10.323  18.495  0.00  0.00    +0.000 A 
ATOM      4  O   UNL     1       1.355  11.485  18.203  0.00  0.00    +0.000 OA
ATOM      5  O   UNL     1       2.371   9.499  17.709  0.00  0.00    +0.000 OA
ATOM      6  C   UNL     1       2.686   8.179  18.105  0.00  0.00    +0.000 A 
ATOM      7  C   UNL     1       3.470   7.511  17.166  0.00  0.00    +0.000 A 
ATOM      8  C   UNL     1       3.793   6.181  17.364  0.00  0.00    +0.000 A 
ATOM      9  C   UNL     1       3.454   5.570  18.572  0.00  0.00    +0.000 A 
ATOM     10  C   UNL     1       2.711   6.284  19.551  0.00  0.00    +0.000 A 
ATOM     11  C   UNL     1       2.240   7.601  19.309  0.00  0.00    +0.000 A 
ENDROOT
BRANCH   1  12
ATOM     12  C   UNL     1       0.645   8.001  21.392  0.00  0.00    +0.000 C 
BRANCH  12  14
ATOM     13  C   UNL     1      -0.142   9.542  23.296  0.00  0.00    +0.000 C 
ATOM     14  C   UNL     1      -0.426   8.968  21.918  0.00  0.00    +0.000 C 
ENDBRANCH  12  14
ENDBRANCH   1  12
BRANCH   8  15
ATOM     15  O   UNL     1       4.472   5.422  16.379  0.00  0.00    +0.000 OA
BRANCH  15  16
ATOM     16  C   UNL     1       5.851   5.618  16.289  0.00  0.00    +0.000 C 
ATOM     17  O   UNL     1       6.461   6.054  15.327  0.00  0.00    +0.000 OA
BRANCH  16  18
ATOM     18  C   UNL     1       6.525   5.205  17.545  0.00  0.00    +0.000 C 
ATOM     19  C   UNL     1       7.345   6.046  18.220  0.00  0.00    +0.000 C 
ATOM     20  C   UNL     1       8.036   5.632  19.489  0.00  0.00    +0.000 C 
BRANCH  19  21
ATOM     21  C   UNL     1       7.684   7.458  17.794  0.00  0.00    +0.000 C 
ATOM     22  F   UNL     1       6.570   8.234  17.701  0.00  0.00    +0.000 F 
ATOM     23  F   UNL     1       8.490   8.088  18.685  0.00  0.00    +0.000 F 
ATOM     24  F   UNL     1       8.264   7.497  16.570  0.00  0.00    +0.000 F 
ENDBRANCH  19  21
ENDBRANCH  16  18
ENDBRANCH  15  16
ENDBRANCH   8  15
BRANCH  10  25
ATOM     25  O   UNL     1       2.339   5.569  20.732  0.00  0.00    +0.000 OA
BRANCH  25  26
ATOM     26  C   UNL     1       1.936   4.224  20.683  0.00  0.00    +0.000 C 
ATOM     27  O   UNL     1       0.806   3.802  20.510  0.00  0.00    +0.000 OA
BRANCH  26  28
ATOM     28  C   UNL     1       3.128   3.380  20.970  0.00  0.00    +0.000 C 
ATOM     29  C   UNL     1       3.609   2.366  20.207  0.00  0.00    +0.000 C 
ATOM     30  C   UNL     1       4.783   1.554  20.696  0.00  0.00    +0.000 C 
BRANCH  29  31
ATOM     31  C   UNL     1       3.072   1.910  18.876  0.00  0.00    +0.000 C 
ATOM     32  F   UNL     1       3.733   0.806  18.423  0.00  0.00    +0.000 F 
ATOM     33  F   UNL     1       1.766   1.561  18.934  0.00  0.00    +0.000 F 
ATOM     34  F   UNL     1       3.222   2.852  17.913  0.00  0.00    +0.000 F 
ENDBRANCH  29  31
ENDBRANCH  26  28
ENDBRANCH  25  26
ENDBRANCH  10  25
TORSDOF 10
ENDMDL
MODEL 2
REMARK VINA RESULT:      -8.4      1.298      1.522
REMARK  Name = 
REMARK  13 active torsions:
REMARK  status: ('A' for Active; 'I' for Inactive)
REMARK    1  A    between atoms: C_1  and  C_2
REMARK    2  A    between atoms: C_2  and  C_3
REMARK    3  A    between atoms: C_3  and  C_4
REMARK    4  A    between atoms: C_11  and  O_12
REMARK    5  A    between atoms: O_12  and  C_13
REMARK    6  A    between atoms: C_13  and  C_15
REMARK    7  A    between atoms: C_16  and  C_17
REMARK    8  A    between atoms: C_16  and  C_18
REMARK    9  A    between atoms: C_23  and  O_24
REMARK   10  A    between atoms: O_24  and  C_25
REMARK   11  A    between atoms: C_25  and  C_27
REMARK   12  A    between atoms: C_28  and  C_29
REMARK   13  A    between atoms: C_28  and  C_30
REMARK                            x       y       z     vdW  Elec       q    Type
REMARK                         _______ _______ _______ _____ _____    ______ ____
ROOT
ATOM      1  C   UNL     1       0.878   9.015  20.354  0.00  0.00    +0.000 A 
ATOM      2  C   UNL     1       0.588  10.290  20.049  0.00  0.00    +0.000 A 
ATOM      3  C   UNL     1       1.105  11.014  18.885  0.00  0.00    +0.000 A 
ATOM      4  O   UNL     1       0.814  12.185  18.681  0.00  0.00    +0.000 OA
ATOM      5  O   UNL     1       1.911  10.284  18.048  0.00  0.00    +0.000 OA
ATOM      6  C   UNL     1       2.271   8.949  18.344  0.00  0.00    +0.000 A 
ATOM      7  C   UNL     1       3.092   8.387  17.368  0.00  0.00    +0.000 A 
ATOM      8  C   UNL     1       3.463   7.059  17.465  0.00  0.00    +0.000 A 
ATOM      9  C   UNL     1       3.133   6.341  18.615  0.00  0.00    +0.000 A 
ATOM     10  C   UNL     1       2.350   6.947  19.635  0.00  0.00    +0.000 A 
ATOM     11  C   UNL     1       1.832   8.261  19.491  0.00  0.00    +0.000 A 
ENDROOT
BRANCH   1  12
ATOM     12  C   UNL     1       0.196   8.434  21.574  0.00  0.00    +0.000 C 
BRANCH  12  14
ATOM     13  C   UNL     1      -0.879  10.172  23.137  0.00  0.00    +0.000 C 
ATOM     14  C   UNL     1       0.324   9.293  22.841  0.00  0.00    +0.000 C 
ENDBRANCH  12  14
ENDBRANCH   1  12
BRANCH   8  15
ATOM     15  O   UNL     1       4.184   6.406  16.434  0.00  0.00    +0.000 OA
BRANCH  15  16
ATOM     16  C   UNL     1       5.415   5.855  16.793  0.00  0.00    +0.000 C 
ATOM     17  O   UNL     1       5.682   4.668  16.881  0.00  0.00    +0.000 OA
BRANCH  16  18
ATOM     18  C   UNL     1       6.406   6.922  17.083  0.00  0.00    +0.000 C 
ATOM     19  C   UNL     1       7.347   6.774  18.046  0.00  0.00    +0.000 C 
ATOM     20  C   UNL     1       8.348   7.854  18.349  0.00  0.00    +0.000 C 
BRANCH  19  21
ATOM     21  C   UNL     1       7.500   5.557  18.932  0.00  0.00    +0.000 C 
ATOM     22  F   UNL     1       8.440   5.755  19.896  0.00  0.00    +0.000 F 
ATOM     23  F   UNL     1       6.358   5.255  19.598  0.00  0.00    +0.000 F 
ATOM     24  F   UNL     1       7.906   4.467  18.237  0.00  0.00    +0.000 F 
ENDBRANCH  19  21
ENDBRANCH  16  18
ENDBRANCH  15  16
ENDBRANCH   8  15
BRANCH  10  25
ATOM     25  O   UNL     1       1.991   6.127  20.750  0.00  0.00    +0.000 OA
BRANCH  25  26
ATOM     26  C   UNL     1       1.631   4.778  20.588  0.00  0.00    +0.000 C 
ATOM     27  O   UNL     1       0.507   4.330  20.444  0.00  0.00    +0.000 OA
BRANCH  26  28
ATOM     28  C   UNL     1       2.868   3.960  20.710  0.00  0.00    +0.000 C 
ATOM     29  C   UNL     1       3.233   2.916  19.925  0.00  0.00    +0.000 C 
ATOM     30  C   UNL     1       4.485   2.137  20.247  0.00  0.00    +0.000 C 
BRANCH  29  31
ATOM     31  C   UNL     1       2.491   2.392  18.722  0.00  0.00    +0.000 C 
ATOM     32  F   UNL     1       3.213   1.441  18.065  0.00  0.00    +0.000 F 
ATOM     33  F   UNL     1       1.317   1.804  19.052  0.00  0.00    +0.000 F 
ATOM     34  F   UNL     1       2.243   3.364  17.811  0.00  0.00    +0.000 F 
ENDBRANCH  29  31
ENDBRANCH  26  28
ENDBRANCH  25  26
ENDBRANCH  10  25
TORSDOF 10
ENDMDL
MODEL 3
REMARK VINA RESULT:      -8.4      3.130      6.948
REMARK  Name = 
REMARK  13 active torsions:
REMARK  status: ('A' for Active; 'I' for Inactive)
REMARK    1  A    between atoms: C_1  and  C_2
REMARK    2  A    between atoms: C_2  and  C_3
REMARK    3  A    between atoms: C_3  and  C_4
REMARK    4  A    between atoms: C_11  and  O_12
REMARK    5  A    between atoms: O_12  and  C_13
REMARK    6  A    between atoms: C_13  and  C_15
REMARK    7  A    between atoms: C_16  and  C_17
REMARK    8  A    between atoms: C_16  and  C_18
REMARK    9  A    between atoms: C_23  and  O_24
REMARK   10  A    between atoms: O_24  and  C_25
REMARK   11  A    between atoms: C_25  and  C_27
REMARK   12  A    between atoms: C_28  and  C_29
REMARK   13  A    between atoms: C_28  and  C_30
REMARK                            x       y       z     vdW  Elec       q    Type
REMARK                         _______ _______ _______ _____ _____    ______ ____
ROOT
ATOM      1  C   UNL     1       2.613   3.599  18.913  0.00  0.00    +0.000 A 
ATOM      2  C   UNL     1       2.123   2.852  19.915  0.00  0.00    +0.000 A 
ATOM      3  C   UNL     1       1.485   3.382  21.123  0.00  0.00    +0.000 A 
ATOM      4  O   UNL     1       1.080   2.640  22.008  0.00  0.00    +0.000 OA
ATOM      5  O   UNL     1       1.363   4.748  21.173  0.00  0.00    +0.000 OA
ATOM      6  C   UNL     1       1.892   5.577  20.159  0.00  0.00    +0.000 A 
ATOM      7  C   UNL     1       1.660   6.931  20.398  0.00  0.00    +0.000 A 
ATOM      8  C   UNL     1       2.038   7.869  19.456  0.00  0.00    +0.000 A 
ATOM      9  C   UNL     1       2.780   7.461  18.347  0.00  0.00    +0.000 A 
ATOM     10  C   UNL     1       3.068   6.083  18.147  0.00  0.00    +0.000 A 
ATOM     11  C   UNL     1       2.563   5.085  19.023  0.00  0.00    +0.000 A 
ENDROOT
BRANCH   1  12
ATOM     12  C   UNL     1       3.185   2.855  17.726  0.00  0.00    +0.000 C 
BRANCH  12  14
ATOM     13  C   UNL     1       4.681   1.459  19.286  0.00  0.00    +0.000 C 
ATOM     14  C   UNL     1       3.776   1.479  18.065  0.00  0.00    +0.000 C 
ENDBRANCH  12  14
ENDBRANCH   1  12
BRANCH   8  15
ATOM     15  O   UNL     1       1.707   9.240  19.590  0.00  0.00    +0.000 OA
BRANCH  15  16
ATOM     16  C   UNL     1       1.462   9.937  18.405  0.00  0.00    +0.000 C 
ATOM     17  O   UNL     1       2.208  10.737  17.866  0.00  0.00    +0.000 OA
BRANCH  16  18
ATOM     18  C   UNL     1       0.128   9.590  17.855  0.00  0.00    +0.000 C 
ATOM     19  C   UNL     1      -0.975  10.315  18.159  0.00  0.00    +0.000 C 
ATOM     20  C   UNL     1      -2.330   9.965  17.611  0.00  0.00    +0.000 C 
BRANCH  19  21
ATOM     21  C   UNL     1      -0.999  11.519  19.075  0.00  0.00    +0.000 C 
ATOM     22  F   UNL     1      -2.257  12.017  19.216  0.00  0.00    +0.000 F 
ATOM     23  F   UNL     1      -0.586  11.221  20.332  0.00  0.00    +0.000 F 
ATOM     24  F   UNL     1      -0.248  12.540  18.596  0.00  0.00    +0.000 F 
ENDBRANCH  19  21
ENDBRANCH  16  18
ENDBRANCH  15  16
ENDBRANCH   8  15
BRANCH  10  25
ATOM     25  O   UNL     1       3.770   5.733  16.952  0.00  0.00    +0.000 OA
BRANCH  25  26
ATOM     26  C   UNL     1       4.826   6.518  16.461  0.00  0.00    +0.000 C 
ATOM     27  O   UNL     1       4.955   6.950  15.329  0.00  0.00    +0.000 OA
BRANCH  26  28
ATOM     28  C   UNL     1       5.828   6.668  17.551  0.00  0.00    +0.000 C 
ATOM     29  C   UNL     1       6.872   5.843  17.814  0.00  0.00    +0.000 C 
ATOM     30  C   UNL     1       7.742   6.098  19.021  0.00  0.00    +0.000 C 
BRANCH  29  31
ATOM     31  C   UNL     1       7.278   4.626  17.025  0.00  0.00    +0.000 C 
ATOM     32  F   UNL     1       8.366   4.015  17.575  0.00  0.00    +0.000 F 
ATOM     33  F   UNL     1       6.306   3.686  16.985  0.00  0.00    +0.000 F 
ATOM     34  F   UNL     1       7.631   4.934  15.754  0.00  0.00    +0.000 F 
ENDBRANCH  29  31
ENDBRANCH  26  28
ENDBRANCH  25  26
ENDBRANCH  10  25
TORSDOF 10
ENDMDL
MODEL 4
REMARK VINA RESULT:      -8.4      2.808      5.726
REMARK  Name = 
REMARK  13 active torsions:
REMARK  status: ('A' for Active; 'I' for Inactive)
REMARK    1  A    between atoms: C_1  and  C_2
REMARK    2  A    between atoms: C_2  and  C_3
REMARK    3  A    between atoms: C_3  and  C_4
REMARK    4  A    between atoms: C_11  and  O_12
REMARK    5  A    between atoms: O_12  and  C_13
REMARK    6  A    between atoms: C_13  and  C_15
REMARK    7  A    between atoms: C_16  and  C_17
REMARK    8  A    between atoms: C_16  and  C_18
REMARK    9  A    between atoms: C_23  and  O_24
REMARK   10  A    between atoms: O_24  and  C_25
REMARK   11  A    between atoms: C_25  and  C_27
REMARK   12  A    between atoms: C_28  and  C_29
REMARK   13  A    between atoms: C_28  and  C_30
REMARK                            x       y       z     vdW  Elec       q    Type
REMARK                         _______ _______ _______ _____ _____    ______ ____
ROOT
ATOM      1  C   UNL     1       1.792   6.067  20.473  0.00  0.00    +0.000 A 
ATOM      2  C   UNL     1       1.494   4.851  20.960  0.00  0.00    +0.000 A 
ATOM      3  C   UNL     1       1.879   3.581  20.340  0.00  0.00    +0.000 A 
ATOM      4  O   UNL     1       1.553   2.507  20.831  0.00  0.00    +0.000 OA
ATOM      5  O   UNL     1       2.634   3.687  19.200  0.00  0.00    +0.000 OA
ATOM      6  C   UNL     1       2.945   4.943  18.631  0.00  0.00    +0.000 A 
ATOM      7  C   UNL     1       3.721   4.832  17.479  0.00  0.00    +0.000 A 
ATOM      8  C   UNL     1       4.184   5.973  16.850  0.00  0.00    +0.000 A 
ATOM      9  C   UNL     1       3.743   7.221  17.292  0.00  0.00    +0.000 A 
ATOM     10  C   UNL     1       2.897   7.318  18.430  0.00  0.00    +0.000 A 
ATOM     11  C   UNL     1       2.529   6.171  19.181  0.00  0.00    +0.000 A 
ENDROOT
BRANCH   1  12
ATOM     12  C   UNL     1       1.348   7.257  21.295  0.00  0.00    +0.000 C 
BRANCH  12  14
ATOM     13  C   UNL     1      -0.575   8.853  21.908  0.00  0.00    +0.000 C 
ATOM     14  C   UNL     1      -0.108   7.685  21.056  0.00  0.00    +0.000 C 
ENDBRANCH  12  14
ENDBRANCH   1  12
BRANCH   8  15
ATOM     15  O   UNL     1       5.084   5.912  15.756  0.00  0.00    +0.000 OA
BRANCH  15  16
ATOM     16  C   UNL     1       6.399   5.552  16.057  0.00  0.00    +0.000 C 
ATOM     17  O   UNL     1       6.901   4.450  15.909  0.00  0.00    +0.000 OA
BRANCH  16  18
ATOM     18  C   UNL     1       7.147   6.705  16.614  0.00  0.00    +0.000 C 
ATOM     19  C   UNL     1       7.572   6.722  17.901  0.00  0.00    +0.000 C 
ATOM     20  C   UNL     1       8.325   7.890  18.473  0.00  0.00    +0.000 C 
BRANCH  19  21
ATOM     21  C   UNL     1       7.335   5.617  18.908  0.00  0.00    +0.000 C 
ATOM     22  F   UNL     1       7.469   4.387  18.343  0.00  0.00    +0.000 F 
ATOM     23  F   UNL     1       8.229   5.646  19.927  0.00  0.00    +0.000 F 
ATOM     24  F   UNL     1       6.081   5.654  19.421  0.00  0.00    +0.000 F 
ENDBRANCH  19  21
ENDBRANCH  16  18
ENDBRANCH  15  16
ENDBRANCH   8  15
BRANCH  10  25
ATOM     25  O   UNL     1       2.545   8.633  18.866  0.00  0.00    +0.000 OA
BRANCH  25  26
ATOM     26  C   UNL     1       2.082   9.609  17.967  0.00  0.00    +0.000 C 
ATOM     27  O   UNL     1       2.743  10.473  17.419  0.00  0.00    +0.000 OA
BRANCH  26  28
ATOM     28  C   UNL     1       0.606   9.465  17.858  0.00  0.00    +0.000 C 
ATOM     29  C   UNL     1      -0.333  10.286  18.393  0.00  0.00    +0.000 C 
ATOM     30  C   UNL     1      -1.796   9.939  18.259  0.00  0.00    +0.000 C 
BRANCH  29  31
ATOM     31  C   UNL     1      -0.084  11.554  19.167  0.00  0.00    +0.000 C 
ATOM     32  F   UNL     1      -1.226  12.016  19.750  0.00  0.00    +0.000 F 
ATOM     33  F   UNL     1       0.803  11.380  20.175  0.00  0.00    +0.000 F 
ATOM     34  F   UNL     1       0.360  12.558  18.374  0.00  0.00    +0.000 F 
ENDBRANCH  29  31
ENDBRANCH  26  28
ENDBRANCH  25  26
ENDBRANCH  10  25
TORSDOF 10
ENDMDL
MODEL 5
REMARK VINA RESULT:      -8.3      3.037      7.075
REMARK  Name = 
REMARK  13 active torsions:
REMARK  status: ('A' for Active; 'I' for Inactive)
REMARK    1  A    between atoms: C_1  and  C_2
REMARK    2  A    between atoms: C_2  and  C_3
REMARK    3  A    between atoms: C_3  and  C_4
REMARK    4  A    between atoms: C_11  and  O_12
REMARK    5  A    between atoms: O_12  and  C_13
REMARK    6  A    between atoms: C_13  and  C_15
REMARK    7  A    between atoms: C_16  and  C_17
REMARK    8  A    between atoms: C_16  and  C_18
REMARK    9  A    between atoms: C_23  and  O_24
REMARK   10  A    between atoms: O_24  and  C_25
REMARK   11  A    between atoms: C_25  and  C_27
REMARK   12  A    between atoms: C_28  and  C_29
REMARK   13  A    between atoms: C_28  and  C_30
REMARK                            x       y       z     vdW  Elec       q    Type
REMARK                         _______ _______ _______ _____ _____    ______ ____
ROOT
ATOM      1  C   UNL     1       3.017   4.101  18.982  0.00  0.00    +0.000 A 
ATOM      2  C   UNL     1       2.723   3.394  20.085  0.00  0.00    +0.000 A 
ATOM      3  C   UNL     1       2.159   3.955  21.316  0.00  0.00    +0.000 A 
ATOM      4  O   UNL     1       1.936   3.251  22.293  0.00  0.00    +0.000 OA
ATOM      5  O   UNL     1       1.890   5.299  21.282  0.00  0.00    +0.000 OA
ATOM      6  C   UNL     1       2.213   6.091  20.156  0.00  0.00    +0.000 A 
ATOM      7  C   UNL     1       1.857   7.429  20.322  0.00  0.00    +0.000 A 
ATOM      8  C   UNL     1       2.027   8.319  19.278  0.00  0.00    +0.000 A 
ATOM      9  C   UNL     1       2.689   7.898  18.124  0.00  0.00    +0.000 A 
ATOM     10  C   UNL     1       3.107   6.545  17.993  0.00  0.00    +0.000 A 
ATOM     11  C   UNL     1       2.812   5.578  18.990  0.00  0.00    +0.000 A 
ENDROOT
BRANCH   1  12
ATOM     12  C   UNL     1       3.542   3.323  17.795  0.00  0.00    +0.000 C 
BRANCH  12  14
ATOM     13  C   UNL     1       4.077   0.899  18.470  0.00  0.00    +0.000 C 
ATOM     14  C   UNL     1       3.120   1.847  17.767  0.00  0.00    +0.000 C 
ENDBRANCH  12  14
ENDBRANCH   1  12
BRANCH   8  15
ATOM     15  O   UNL     1       1.559   9.655  19.350  0.00  0.00    +0.000 OA
BRANCH  15  16
ATOM     16  C   UNL     1       0.174   9.823  19.404  0.00  0.00    +0.000 C 
ATOM     17  O   UNL     1      -0.562  10.085  18.469  0.00  0.00    +0.000 OA
BRANCH  16  18
ATOM     18  C   UNL     1      -0.324   9.653  20.792  0.00  0.00    +0.000 C 
ATOM     19  C   UNL     1      -0.435  10.704  21.640  0.00  0.00    +0.000 C 
ATOM     20  C   UNL     1      -0.932  10.537  23.049  0.00  0.00    +0.000 C 
BRANCH  19  21
ATOM     21  C   UNL     1      -0.066  12.133  21.306  0.00  0.00    +0.000 C 
ATOM     22  F   UNL     1       1.215  12.228  20.859  0.00  0.00    +0.000 F 
ATOM     23  F   UNL     1      -0.834  12.647  20.314  0.00  0.00    +0.000 F 
ATOM     24  F   UNL     1      -0.142  12.946  22.388  0.00  0.00    +0.000 F 
ENDBRANCH  19  21
ENDBRANCH  16  18
ENDBRANCH  15  16
ENDBRANCH   8  15
BRANCH  10  25
ATOM     25  O   UNL     1       3.714   6.171  16.754  0.00  0.00    +0.000 OA
BRANCH  25  26
ATOM     26  C   UNL     1       4.923   6.744  16.323  0.00  0.00    +0.000 C 
ATOM     27  O   UNL     1       5.206   7.094  15.191  0.00  0.00    +0.000 OA
BRANCH  26  28
ATOM     28  C   UNL     1       5.852   6.775  17.485  0.00  0.00    +0.000 C 
ATOM     29  C   UNL     1       6.847   5.893  17.754  0.00  0.00    +0.000 C 
ATOM     30  C   UNL     1       7.641   6.026  19.030  0.00  0.00    +0.000 C 
BRANCH  29  31
ATOM     31  C   UNL     1       7.264   4.721  16.904  0.00  0.00    +0.000 C 
ATOM     32  F   UNL     1       6.251   3.819  16.768  0.00  0.00    +0.000 F 
ATOM     33  F   UNL     1       7.607   5.087  15.647  0.00  0.00    +0.000 F 
ATOM     34  F   UNL     1       8.298   4.036  17.449  0.00  0.00    +0.000 F 
ENDBRANCH  29  31
ENDBRANCH  26  28
ENDBRANCH  25  26
ENDBRANCH  10  25
TORSDOF 10
ENDMDL
MODEL 6
REMARK VINA RESULT:      -8.3      2.717      5.746
REMARK  Name = 
REMARK  13 active torsions:
REMARK  status: ('A' for Active; 'I' for Inactive)
REMARK    1  A    between atoms: C_1  and  C_2
REMARK    2  A    between atoms: C_2  and  C_3
REMARK    3  A    between atoms: C_3  and  C_4
REMARK    4  A    between atoms: C_11  and  O_12
REMARK    5  A    between atoms: O_12  and  C_13
REMARK    6  A    between atoms: C_13  and  C_15
REMARK    7  A    between atoms: C_16  and  C_17
REMARK    8  A    between atoms: C_16  and  C_18
REMARK    9  A    between atoms: C_23  and  O_24
REMARK   10  A    between atoms: O_24  and  C_25
REMARK   11  A    between atoms: C_25  and  C_27
REMARK   12  A    between atoms: C_28  and  C_29
REMARK   13  A    between atoms: C_28  and  C_30
REMARK                            x       y       z     vdW  Elec       q    Type
REMARK                         _______ _______ _______ _____ _____    ______ ____
ROOT
ATOM      1  C   UNL     1       1.841   6.457  20.348  0.00  0.00    +0.000 A 
ATOM      2  C   UNL     1       1.419   5.331  20.946  0.00  0.00    +0.000 A 
ATOM      3  C   UNL     1       1.680   3.974  20.458  0.00  0.00    +0.000 A 
ATOM      4  O   UNL     1       1.245   2.991  21.045  0.00  0.00    +0.000 OA
ATOM      5  O   UNL     1       2.448   3.893  19.324  0.00  0.00    +0.000 OA
ATOM      6  C   UNL     1       2.886   5.050  18.641  0.00  0.00    +0.000 A 
ATOM      7  C   UNL     1       3.654   4.751  17.517  0.00  0.00    +0.000 A 
ATOM      8  C   UNL     1       4.232   5.774  16.788  0.00  0.00    +0.000 A 
ATOM      9  C   UNL     1       3.915   7.096  17.100  0.00  0.00    +0.000 A 
ATOM     10  C   UNL     1       3.076   7.387  18.211  0.00  0.00    +0.000 A 
ATOM     11  C   UNL     1       2.591   6.361  19.063  0.00  0.00    +0.000 A 
ENDROOT
BRANCH   1  12
ATOM     12  C   UNL     1       1.512   7.761  21.043  0.00  0.00    +0.000 C 
BRANCH  12  14
ATOM     13  C   UNL     1      -0.412   8.906  22.310  0.00  0.00    +0.000 C 
ATOM     14  C   UNL     1       0.013   8.089  21.101  0.00  0.00    +0.000 C 
ENDBRANCH  12  14
ENDBRANCH   1  12
BRANCH   8  15
ATOM     15  O   UNL     1       5.128   5.518  15.720  0.00  0.00    +0.000 OA
BRANCH  15  16
ATOM     16  C   UNL     1       6.462   5.303  16.070  0.00  0.00    +0.000 C 
ATOM     17  O   UNL     1       7.061   4.241  16.028  0.00  0.00    +0.000 OA
BRANCH  16  18
ATOM     18  C   UNL     1       7.096   6.563  16.532  0.00  0.00    +0.000 C 
ATOM     19  C   UNL     1       7.586   6.692  17.788  0.00  0.00    +0.000 C 
ATOM     20  C   UNL     1       8.223   7.968  18.264  0.00  0.00    +0.000 C 
BRANCH  19  21
ATOM     21  C   UNL     1       7.542   5.618  18.853  0.00  0.00    +0.000 C 
ATOM     22  F   UNL     1       6.263   5.279  19.169  0.00  0.00    +0.000 F 
ATOM     23  F   UNL     1       8.132   4.465  18.450  0.00  0.00    +0.000 F 
ATOM     24  F   UNL     1       8.114   6.024  20.012  0.00  0.00    +0.000 F 
ENDBRANCH  19  21
ENDBRANCH  16  18
ENDBRANCH  15  16
ENDBRANCH   8  15
BRANCH  10  25
ATOM     25  O   UNL     1       2.855   8.767  18.512  0.00  0.00    +0.000 OA
BRANCH  25  26
ATOM     26  C   UNL     1       1.759   9.470  17.984  0.00  0.00    +0.000 C 
ATOM     27  O   UNL     1       0.702   9.001  17.600  0.00  0.00    +0.000 OA
BRANCH  26  28
ATOM     28  C   UNL     1       2.142  10.905  17.887  0.00  0.00    +0.000 C 
ATOM     29  C   UNL     1       1.708  11.917  18.679  0.00  0.00    +0.000 C 
ATOM     30  C   UNL     1       2.133  13.335  18.383  0.00  0.00    +0.000 C 
BRANCH  29  31
ATOM     31  C   UNL     1       0.787  11.800  19.866  0.00  0.00    +0.000 C 
ATOM     32  F   UNL     1       0.431  13.026  20.344  0.00  0.00    +0.000 F 
ATOM     33  F   UNL     1      -0.372  11.170  19.562  0.00  0.00    +0.000 F 
ATOM     34  F   UNL     1       1.369  11.152  20.903  0.00  0.00    +0.000 F 
ENDBRANCH  29  31
ENDBRANCH  26  28
ENDBRANCH  25  26
ENDBRANCH  10  25
TORSDOF 10
ENDMDL
MODEL 7
REMARK VINA RESULT:      -8.2      3.437      7.273
REMARK  Name = 
REMARK  13 active torsions:
REMARK  status: ('A' for Active; 'I' for Inactive)
REMARK    1  A    between atoms: C_1  and  C_2
REMARK    2  A    between atoms: C_2  and  C_3
REMARK    3  A    between atoms: C_3  and  C_4
REMARK    4  A    between atoms: C_11  and  O_12
REMARK    5  A    between atoms: O_12  and  C_13
REMARK    6  A    between atoms: C_13  and  C_15
REMARK    7  A    between atoms: C_16  and  C_17
REMARK    8  A    between atoms: C_16  and  C_18
REMARK    9  A    between atoms: C_23  and  O_24
REMARK   10  A    between atoms: O_24  and  C_25
REMARK   11  A    between atoms: C_25  and  C_27
REMARK   12  A    between atoms: C_28  and  C_29
REMARK   13  A    between atoms: C_28  and  C_30
REMARK                            x       y       z     vdW  Elec       q    Type
REMARK                         _______ _______ _______ _____ _____    ______ ____
ROOT
ATOM      1  C   UNL     1       2.909   4.255  19.080  0.00  0.00    +0.000 A 
ATOM      2  C   UNL     1       2.654   3.417  20.099  0.00  0.00    +0.000 A 
ATOM      3  C   UNL     1       2.040   3.807  21.371  0.00  0.00    +0.000 A 
ATOM      4  O   UNL     1       1.855   2.991  22.265  0.00  0.00    +0.000 OA
ATOM      5  O   UNL     1       1.678   5.126  21.471  0.00  0.00    +0.000 OA
ATOM      6  C   UNL     1       1.956   6.051  20.439  0.00  0.00    +0.000 A 
ATOM      7  C   UNL     1       1.506   7.337  20.736  0.00  0.00    +0.000 A 
ATOM      8  C   UNL     1       1.624   8.340  19.793  0.00  0.00    +0.000 A 
ATOM      9  C   UNL     1       2.326   8.089  18.614  0.00  0.00    +0.000 A 
ATOM     10  C   UNL     1       2.839   6.789  18.351  0.00  0.00    +0.000 A 
ATOM     11  C   UNL     1       2.602   5.705  19.237  0.00  0.00    +0.000 A 
ENDROOT
BRANCH   1  12
ATOM     12  C   UNL     1       3.500   3.643  17.828  0.00  0.00    +0.000 C 
BRANCH  12  14
ATOM     13  C   UNL     1       3.919   1.135  18.221  0.00  0.00    +0.000 C 
ATOM     14  C   UNL     1       3.057   2.197  17.559  0.00  0.00    +0.000 C 
ENDBRANCH  12  14
ENDBRANCH   1  12
BRANCH   8  15
ATOM     15  O   UNL     1       1.063   9.626  19.995  0.00  0.00    +0.000 OA
BRANCH  15  16
ATOM     16  C   UNL     1       0.848  10.394  18.848  0.00  0.00    +0.000 C 
ATOM     17  O   UNL     1       1.487  11.373  18.501  0.00  0.00    +0.000 OA
BRANCH  16  18
ATOM     18  C   UNL     1      -0.304   9.871  18.072  0.00  0.00    +0.000 C 
ATOM     19  C   UNL     1      -1.535  10.427  18.168  0.00  0.00    +0.000 C 
ATOM     20  C   UNL     1      -2.707   9.899  17.390  0.00  0.00    +0.000 C 
BRANCH  19  21
ATOM     21  C   UNL     1      -1.893  11.599  19.056  0.00  0.00    +0.000 C 
ATOM     22  F   UNL     1      -1.277  12.742  18.650  0.00  0.00    +0.000 F 
ATOM     23  F   UNL     1      -3.220  11.878  19.036  0.00  0.00    +0.000 F 
ATOM     24  F   UNL     1      -1.503  11.405  20.339  0.00  0.00    +0.000 F 
ENDBRANCH  19  21
ENDBRANCH  16  18
ENDBRANCH  15  16
ENDBRANCH   8  15
BRANCH  10  25
ATOM     25  O   UNL     1       3.484   6.589  17.091  0.00  0.00    +0.000 OA
BRANCH  25  26
ATOM     26  C   UNL     1       4.832   6.932  16.891  0.00  0.00    +0.000 C 
ATOM     27  O   UNL     1       5.418   7.900  17.343  0.00  0.00    +0.000 OA
BRANCH  26  28
ATOM     28  C   UNL     1       5.418   5.945  15.945  0.00  0.00    +0.000 C 
ATOM     29  C   UNL     1       6.483   5.135  16.170  0.00  0.00    +0.000 C 
ATOM     30  C   UNL     1       7.001   4.252  15.061  0.00  0.00    +0.000 C 
BRANCH  29  31
ATOM     31  C   UNL     1       7.271   5.022  17.449  0.00  0.00    +0.000 C 
ATOM     32  F   UNL     1       6.470   4.689  18.501  0.00  0.00    +0.000 F 
ATOM     33  F   UNL     1       8.222   4.060  17.389  0.00  0.00    +0.000 F 
ATOM     34  F   UNL     1       7.865   6.191  17.790  0.00  0.00    +0.000 F 
ENDBRANCH  29  31
ENDBRANCH  26  28
ENDBRANCH  25  26
ENDBRANCH  10  25
TORSDOF 10
ENDMDL
MODEL 8
REMARK VINA RESULT:      -8.2      3.153      7.112
REMARK  Name = 
REMARK  13 active torsions:
REMARK  status: ('A' for Active; 'I' for Inactive)
REMARK    1  A    between atoms: C_1  and  C_2
REMARK    2  A    between atoms: C_2  and  C_3
REMARK    3  A    between atoms: C_3  and  C_4
REMARK    4  A    between atoms: C_11  and  O_12
REMARK    5  A    between atoms: O_12  and  C_13
REMARK    6  A    between atoms: C_13  and  C_15
REMARK    7  A    between atoms: C_16  and  C_17
REMARK    8  A    between atoms: C_16  and  C_18
REMARK    9  A    between atoms: C_23  and  O_24
REMARK   10  A    between atoms: O_24  and  C_25
REMARK   11  A    between atoms: C_25  and  C_27
REMARK   12  A    between atoms: C_28  and  C_29
REMARK   13  A    between atoms: C_28  and  C_30
REMARK                            x       y       z     vdW  Elec       q    Type
REMARK                         _______ _______ _______ _____ _____    ______ ____
ROOT
ATOM      1  C   UNL     1       2.938   4.134  18.962  0.00  0.00    +0.000 A 
ATOM      2  C   UNL     1       2.632   3.445  20.074  0.00  0.00    +0.000 A 
ATOM      3  C   UNL     1       2.055   4.027  21.289  0.00  0.00    +0.000 A 
ATOM      4  O   UNL     1       1.821   3.340  22.275  0.00  0.00    +0.000 OA
ATOM      5  O   UNL     1       1.786   5.371  21.228  0.00  0.00    +0.000 OA
ATOM      6  C   UNL     1       2.121   6.143  20.093  0.00  0.00    +0.000 A 
ATOM      7  C   UNL     1       1.763   7.483  20.232  0.00  0.00    +0.000 A 
ATOM      8  C   UNL     1       1.944   8.355  19.175  0.00  0.00    +0.000 A 
ATOM      9  C   UNL     1       2.619   7.915  18.036  0.00  0.00    +0.000 A 
ATOM     10  C   UNL     1       3.038   6.560  17.932  0.00  0.00    +0.000 A 
ATOM     11  C   UNL     1       2.733   5.610  18.942  0.00  0.00    +0.000 A 
ENDROOT
BRANCH   1  12
ATOM     12  C   UNL     1       3.475   3.335  17.794  0.00  0.00    +0.000 C 
BRANCH  12  14
ATOM     13  C   UNL     1       4.231   1.036  18.667  0.00  0.00    +0.000 C 
ATOM     14  C   UNL     1       3.202   1.827  17.877  0.00  0.00    +0.000 C 
ENDBRANCH  12  14
ENDBRANCH   1  12
BRANCH   8  15
ATOM     15  O   UNL     1       1.475   9.692  19.219  0.00  0.00    +0.000 OA
BRANCH  15  16
ATOM     16  C   UNL     1       0.178   9.908  18.752  0.00  0.00    +0.000 C 
ATOM     17  O   UNL     1      -0.232   9.697  17.623  0.00  0.00    +0.000 OA
BRANCH  16  18
ATOM     18  C   UNL     1      -0.684  10.461  19.826  0.00  0.00    +0.000 C 
ATOM     19  C   UNL     1      -1.025  11.772  19.859  0.00  0.00    +0.000 C 
ATOM     20  C   UNL     1      -1.892  12.339  20.948  0.00  0.00    +0.000 C 
BRANCH  19  21
ATOM     21  C   UNL     1      -0.578  12.812  18.854  0.00  0.00    +0.000 C 
ATOM     22  F   UNL     1      -0.932  14.066  19.241  0.00  0.00    +0.000 F 
ATOM     23  F   UNL     1       0.770  12.844  18.708  0.00  0.00    +0.000 F 
ATOM     24  F   UNL     1      -1.148  12.625  17.639  0.00  0.00    +0.000 F 
ENDBRANCH  19  21
ENDBRANCH  16  18
ENDBRANCH  15  16
ENDBRANCH   8  15
BRANCH  10  25
ATOM     25  O   UNL     1       3.659   6.165  16.707  0.00  0.00    +0.000 OA
BRANCH  25  26
ATOM     26  C   UNL     1       4.921   6.655  16.328  0.00  0.00    +0.000 C 
ATOM     27  O   UNL     1       5.285   6.954  15.204  0.00  0.00    +0.000 OA
BRANCH  26  28
ATOM     28  C   UNL     1       5.786   6.669  17.538  0.00  0.00    +0.000 C 
ATOM     29  C   UNL     1       6.810   5.823  17.815  0.00  0.00    +0.000 C 
ATOM     30  C   UNL     1       7.529   5.925  19.138  0.00  0.00    +0.000 C 
BRANCH  29  31
ATOM     31  C   UNL     1       7.328   4.719  16.931  0.00  0.00    +0.000 C 
ATOM     32  F   UNL     1       6.359   3.799  16.660  0.00  0.00    +0.000 F 
ATOM     33  F   UNL     1       7.755   5.173  15.730  0.00  0.00    +0.000 F 
ATOM     34  F   UNL     1       8.340   4.029  17.513  0.00  0.00    +0.000 F 
ENDBRANCH  29  31
ENDBRANCH  26  28
ENDBRANCH  25  26
ENDBRANCH  10  25
TORSDOF 10
ENDMDL
MODEL 9
REMARK VINA RESULT:      -8.1      2.624      5.500
REMARK  Name = 
REMARK  13 active torsions:
REMARK  status: ('A' for Active; 'I' for Inactive)
REMARK    1  A    between atoms: C_1  and  C_2
REMARK    2  A    between atoms: C_2  and  C_3
REMARK    3  A    between atoms: C_3  and  C_4
REMARK    4  A    between atoms: C_11  and  O_12
REMARK    5  A    between atoms: O_12  and  C_13
REMARK    6  A    between atoms: C_13  and  C_15
REMARK    7  A    between atoms: C_16  and  C_17
REMARK    8  A    between atoms: C_16  and  C_18
REMARK    9  A    between atoms: C_23  and  O_24
REMARK   10  A    between atoms: O_24  and  C_25
REMARK   11  A    between atoms: C_25  and  C_27
REMARK   12  A    between atoms: C_28  and  C_29
REMARK   13  A    between atoms: C_28  and  C_30
REMARK                            x       y       z     vdW  Elec       q    Type
REMARK                         _______ _______ _______ _____ _____    ______ ____
ROOT
ATOM      1  C   UNL     1       1.934   6.241  20.263  0.00  0.00    +0.000 A 
ATOM      2  C   UNL     1       1.464   5.153  20.896  0.00  0.00    +0.000 A 
ATOM      3  C   UNL     1       1.684   3.770  20.465  0.00  0.00    +0.000 A 
ATOM      4  O   UNL     1       1.206   2.827  21.081  0.00  0.00    +0.000 OA
ATOM      5  O   UNL     1       2.466   3.619  19.348  0.00  0.00    +0.000 OA
ATOM      6  C   UNL     1       2.956   4.733  18.629  0.00  0.00    +0.000 A 
ATOM      7  C   UNL     1       3.730   4.365  17.531  0.00  0.00    +0.000 A 
ATOM      8  C   UNL     1       4.354   5.338  16.773  0.00  0.00    +0.000 A 
ATOM      9  C   UNL     1       4.080   6.682  17.029  0.00  0.00    +0.000 A 
ATOM     10  C   UNL     1       3.235   7.044  18.114  0.00  0.00    +0.000 A 
ATOM     11  C   UNL     1       2.701   6.069  18.996  0.00  0.00    +0.000 A 
ENDROOT
BRANCH   1  12
ATOM     12  C   UNL     1       1.642   7.580  20.903  0.00  0.00    +0.000 C 
BRANCH  12  14
ATOM     13  C   UNL     1      -0.202   8.825  22.196  0.00  0.00    +0.000 C 
ATOM     14  C   UNL     1       0.147   7.907  21.037  0.00  0.00    +0.000 C 
ENDBRANCH  12  14
ENDBRANCH   1  12
BRANCH   8  15
ATOM     15  O   UNL     1       5.257   5.010  15.731  0.00  0.00    +0.000 OA
BRANCH  15  16
ATOM     16  C   UNL     1       6.600   5.320  15.955  0.00  0.00    +0.000 C 
ATOM     17  O   UNL     1       7.386   5.774  15.140  0.00  0.00    +0.000 OA
BRANCH  16  18
ATOM     18  C   UNL     1       6.986   5.009  17.354  0.00  0.00    +0.000 C 
ATOM     19  C   UNL     1       7.476   5.962  18.183  0.00  0.00    +0.000 C 
ATOM     20  C   UNL     1       7.875   5.652  19.599  0.00  0.00    +0.000 C 
BRANCH  19  21
ATOM     21  C   UNL     1       7.702   7.410  17.806  0.00  0.00    +0.000 C 
ATOM     22  F   UNL     1       6.529   8.092  17.712  0.00  0.00    +0.000 F 
ATOM     23  F   UNL     1       8.435   8.077  18.732  0.00  0.00    +0.000 F 
ATOM     24  F   UNL     1       8.302   7.535  16.597  0.00  0.00    +0.000 F 
ENDBRANCH  19  21
ENDBRANCH  16  18
ENDBRANCH  15  16
ENDBRANCH   8  15
BRANCH  10  25
ATOM     25  O   UNL     1       3.058   8.441  18.359  0.00  0.00    +0.000 OA
BRANCH  25  26
ATOM     26  C   UNL     1       1.955   9.146  17.846  0.00  0.00    +0.000 C 
ATOM     27  O   UNL     1       0.889   8.679  17.485  0.00  0.00    +0.000 OA
BRANCH  26  28
ATOM     28  C   UNL     1       2.342  10.578  17.733  0.00  0.00    +0.000 C 
ATOM     29  C   UNL     1       1.874  11.608  18.482  0.00  0.00    +0.000 C 
ATOM     30  C   UNL     1       2.312  13.019  18.172  0.00  0.00    +0.000 C 
BRANCH  29  31
ATOM     31  C   UNL     1       0.901  11.518  19.628  0.00  0.00    +0.000 C 
ATOM     32  F   UNL     1      -0.187  10.764  19.301  0.00  0.00    +0.000 F 
ATOM     33  F   UNL     1       1.442  10.932  20.723  0.00  0.00    +0.000 F 
ATOM     34  F   UNL     1       0.417  12.732  19.986  0.00  0.00    +0.000 F 
ENDBRANCH  29  31
ENDBRANCH  26  28
ENDBRANCH  25  26
ENDBRANCH  10  25
TORSDOF 10
ENDMDL
