MODEL 1
REMARK VINA RESULT:      -6.3      0.000      0.000
REMARK  Name = 
REMARK  5 active torsions:
REMARK  status: ('A' for Active; 'I' for Inactive)
REMARK    1  A    between atoms: C_1  and  O_2
REMARK    2  A    between atoms: O_2  and  C_3
REMARK    3  A    between atoms: N_8  and  C_9
REMARK    4  A    between atoms: N_8  and  C_10
REMARK    5  A    between atoms: C_10  and  C_11
REMARK                            x       y       z     vdW  Elec       q    Type
REMARK                         _______ _______ _______ _____ _____    ______ ____
ROOT
ATOM      1  C   UNL     1       7.200   6.960  17.848  0.00  0.00    +0.000 A 
ATOM      2  C   UNL     1       8.085   6.523  18.793  0.00  0.00    +0.000 A 
ATOM      3  C   UNL     1       7.623   5.499  19.576  0.00  0.00    +0.000 A 
ATOM      4  N   UNL     1       6.414   4.923  19.411  0.00  0.00    +0.000 NA
ATOM      5  C   UNL     1       5.611   5.422  18.460  0.00  0.00    +0.000 A 
ATOM      6  N   UNL     1       4.354   4.898  18.294  0.00  0.00    +0.000 N 
ATOM      7  C   UNL     1       3.317   5.676  17.654  0.00  0.00    +0.000 C 
ATOM      8  N   UNL     1       5.977   6.437  17.670  0.00  0.00    +0.000 NA
ENDROOT
BRANCH   1  10
ATOM      9  C   UNL     1       8.055   9.115  17.793  0.00  0.00    +0.000 C 
ATOM     10  O   UNL     1       7.605   7.996  17.033  0.00  0.00    +0.000 OA
ENDBRANCH   1  10
BRANCH   6  11
ATOM     11  C   UNL     1       4.095   3.517  18.665  0.00  0.00    +0.000 C 
BRANCH  11  12
ATOM     12  C   UNL     1       2.963   3.294  19.620  0.00  0.00    +0.000 A 
ATOM     13  C   UNL     1       1.729   2.677  19.525  0.00  0.00    +0.000 A 
ATOM     14  C   UNL     1       1.142   2.751  20.811  0.00  0.00    +0.000 A 
ATOM     15  C   UNL     1       2.037   3.423  21.604  0.00  0.00    +0.000 A 
ATOM     16  O   UNL     1       3.146   3.760  20.892  0.00  0.00    +0.000 OA
ENDBRANCH  11  12
ENDBRANCH   6  11
TORSDOF 3
ENDMDL
MODEL 2
REMARK VINA RESULT:      -6.2      2.283      6.052
REMARK  Name = 
REMARK  5 active torsions:
REMARK  status: ('A' for Active; 'I' for Inactive)
REMARK    1  A    between atoms: C_1  and  O_2
REMARK    2  A    between atoms: O_2  and  C_3
REMARK    3  A    between atoms: N_8  and  C_9
REMARK    4  A    between atoms: N_8  and  C_10
REMARK    5  A    between atoms: C_10  and  C_11
REMARK                            x       y       z     vdW  Elec       q    Type
REMARK                         _______ _______ _______ _____ _____    ______ ____
ROOT
ATOM      1  C   UNL     1       3.175   3.739  19.761  0.00  0.00    +0.000 A 
ATOM      2  C   UNL     1       2.004   4.226  19.252  0.00  0.00    +0.000 A 
ATOM      3  C   UNL     1       2.154   5.278  18.388  0.00  0.00    +0.000 A 
ATOM      4  N   UNL     1       3.354   5.774  18.019  0.00  0.00    +0.000 NA
ATOM      5  C   UNL     1       4.448   5.234  18.574  0.00  0.00    +0.000 A 
ATOM      6  N   UNL     1       5.684   5.742  18.265  0.00  0.00    +0.000 N 
ATOM      7  C   UNL     1       6.802   5.541  19.159  0.00  0.00    +0.000 C 
ATOM      8  N   UNL     1       4.387   4.222  19.446  0.00  0.00    +0.000 NA
ENDROOT
BRANCH   1  10
ATOM      9  C   UNL     1       2.051   2.886  21.603  0.00  0.00    +0.000 C 
ATOM     10  O   UNL     1       3.089   2.683  20.646  0.00  0.00    +0.000 OA
ENDBRANCH   1  10
BRANCH   6  11
ATOM     11  C   UNL     1       5.894   6.394  16.983  0.00  0.00    +0.000 C 
BRANCH  11  12
ATOM     12  C   UNL     1       6.118   5.487  15.813  0.00  0.00    +0.000 A 
ATOM     13  C   UNL     1       5.364   4.506  15.194  0.00  0.00    +0.000 A 
ATOM     14  C   UNL     1       6.122   4.052  14.089  0.00  0.00    +0.000 A 
ATOM     15  C   UNL     1       7.296   4.762  14.110  0.00  0.00    +0.000 A 
ATOM     16  O   UNL     1       7.306   5.635  15.153  0.00  0.00    +0.000 OA
ENDBRANCH  11  12
ENDBRANCH   6  11
TORSDOF 3
ENDMDL
MODEL 3
REMARK VINA RESULT:      -6.1      1.690      2.083
REMARK  Name = 
REMARK  5 active torsions:
REMARK  status: ('A' for Active; 'I' for Inactive)
REMARK    1  A    between atoms: C_1  and  O_2
REMARK    2  A    between atoms: O_2  and  C_3
REMARK    3  A    between atoms: N_8  and  C_9
REMARK    4  A    between atoms: N_8  and  C_10
REMARK    5  A    between atoms: C_10  and  C_11
REMARK                            x       y       z     vdW  Elec       q    Type
REMARK                         _______ _______ _______ _____ _____    ______ ____
ROOT
ATOM      1  C   UNL     1       6.817   5.726  17.069  0.00  0.00    +0.000 A 
ATOM      2  C   UNL     1       7.739   5.467  18.044  0.00  0.00    +0.000 A 
ATOM      3  C   UNL     1       7.222   5.379  19.309  0.00  0.00    +0.000 A 
ATOM      4  N   UNL     1       5.905   5.488  19.583  0.00  0.00    +0.000 NA
ATOM      5  C   UNL     1       5.075   5.747  18.563  0.00  0.00    +0.000 A 
ATOM      6  N   UNL     1       3.736   5.915  18.807  0.00  0.00    +0.000 N 
ATOM      7  C   UNL     1       2.909   6.645  17.873  0.00  0.00    +0.000 C 
ATOM      8  N   UNL     1       5.503   5.872  17.302  0.00  0.00    +0.000 NA
ENDROOT
BRANCH   1  10
ATOM      9  C   UNL     1       6.528   5.017  14.879  0.00  0.00    +0.000 C 
ATOM     10  O   UNL     1       7.279   5.835  15.774  0.00  0.00    +0.000 OA
ENDBRANCH   1  10
BRANCH   6  11
ATOM     11  C   UNL     1       3.126   5.265  19.955  0.00  0.00    +0.000 C 
BRANCH  11  12
ATOM     12  C   UNL     1       2.247   4.090  19.656  0.00  0.00    +0.000 A 
ATOM     13  C   UNL     1       0.980   3.706  20.058  0.00  0.00    +0.000 A 
ATOM     14  C   UNL     1       0.685   2.507  19.365  0.00  0.00    +0.000 A 
ATOM     15  C   UNL     1       1.788   2.221  18.603  0.00  0.00    +0.000 A 
ATOM     16  O   UNL     1       2.745   3.173  18.772  0.00  0.00    +0.000 OA
ENDBRANCH  11  12
ENDBRANCH   6  11
TORSDOF 3
ENDMDL
MODEL 4
REMARK VINA RESULT:      -6.1      1.337      1.479
REMARK  Name = 
REMARK  5 active torsions:
REMARK  status: ('A' for Active; 'I' for Inactive)
REMARK    1  A    between atoms: C_1  and  O_2
REMARK    2  A    between atoms: O_2  and  C_3
REMARK    3  A    between atoms: N_8  and  C_9
REMARK    4  A    between atoms: N_8  and  C_10
REMARK    5  A    between atoms: C_10  and  C_11
REMARK                            x       y       z     vdW  Elec       q    Type
REMARK                         _______ _______ _______ _____ _____    ______ ____
ROOT
ATOM      1  C   UNL     1       6.653   6.544  17.308  0.00  0.00    +0.000 A 
ATOM      2  C   UNL     1       7.210   5.339  17.633  0.00  0.00    +0.000 A 
ATOM      3  C   UNL     1       6.321   4.411  18.108  0.00  0.00    +0.000 A 
ATOM      4  N   UNL     1       4.994   4.634  18.208  0.00  0.00    +0.000 NA
ATOM      5  C   UNL     1       4.540   5.850  17.871  0.00  0.00    +0.000 A 
ATOM      6  N   UNL     1       3.205   6.134  18.006  0.00  0.00    +0.000 N 
ATOM      7  C   UNL     1       2.757   7.504  18.123  0.00  0.00    +0.000 C 
ATOM      8  N   UNL     1       5.345   6.819  17.422  0.00  0.00    +0.000 NA
ENDROOT
BRANCH   1  10
ATOM      9  C   UNL     1       7.808   8.485  17.839  0.00  0.00    +0.000 C 
ATOM     10  O   UNL     1       7.500   7.523  16.832  0.00  0.00    +0.000 OA
ENDBRANCH   1  10
BRANCH   6  11
ATOM     11  C   UNL     1       2.228   5.061  17.925  0.00  0.00    +0.000 C 
BRANCH  11  12
ATOM     12  C   UNL     1       1.897   4.374  19.214  0.00  0.00    +0.000 A 
ATOM     13  C   UNL     1       1.132   3.272  19.551  0.00  0.00    +0.000 A 
ATOM     14  C   UNL     1       1.269   3.099  20.949  0.00  0.00    +0.000 A 
ATOM     15  C   UNL     1       2.087   4.111  21.384  0.00  0.00    +0.000 A 
ATOM     16  O   UNL     1       2.473   4.893  20.340  0.00  0.00    +0.000 OA
ENDBRANCH  11  12
ENDBRANCH   6  11
TORSDOF 3
ENDMDL
MODEL 5
REMARK VINA RESULT:      -6.0      1.944      2.502
REMARK  Name = 
REMARK  5 active torsions:
REMARK  status: ('A' for Active; 'I' for Inactive)
REMARK    1  A    between atoms: C_1  and  O_2
REMARK    2  A    between atoms: O_2  and  C_3
REMARK    3  A    between atoms: N_8  and  C_9
REMARK    4  A    between atoms: N_8  and  C_10
REMARK    5  A    between atoms: C_10  and  C_11
REMARK                            x       y       z     vdW  Elec       q    Type
REMARK                         _______ _______ _______ _____ _____    ______ ____
ROOT
ATOM      1  C   UNL     1       6.867   5.688  16.209  0.00  0.00    +0.000 A 
ATOM      2  C   UNL     1       6.691   5.294  14.913  0.00  0.00    +0.000 A 
ATOM      3  C   UNL     1       5.730   4.334  14.736  0.00  0.00    +0.000 A 
ATOM      4  N   UNL     1       4.975   3.843  15.740  0.00  0.00    +0.000 NA
ATOM      5  C   UNL     1       5.223   4.287  16.980  0.00  0.00    +0.000 A 
ATOM      6  N   UNL     1       4.512   3.774  18.036  0.00  0.00    +0.000 N 
ATOM      7  C   UNL     1       5.045   3.846  19.379  0.00  0.00    +0.000 C 
ATOM      8  N   UNL     1       6.161   5.203  17.242  0.00  0.00    +0.000 NA
ENDROOT
BRANCH   1  10
ATOM      9  C   UNL     1       7.438   7.524  17.507  0.00  0.00    +0.000 C 
ATOM     10  O   UNL     1       7.829   6.647  16.453  0.00  0.00    +0.000 OA
ENDBRANCH   1  10
BRANCH   6  11
ATOM     11  C   UNL     1       3.173   3.255  17.818  0.00  0.00    +0.000 C 
BRANCH  11  12
ATOM     12  C   UNL     1       2.256   3.282  19.002  0.00  0.00    +0.000 A 
ATOM     13  C   UNL     1       1.793   2.324  19.886  0.00  0.00    +0.000 A 
ATOM     14  C   UNL     1       0.990   3.005  20.832  0.00  0.00    +0.000 A 
ATOM     15  C   UNL     1       0.992   4.325  20.460  0.00  0.00    +0.000 A 
ATOM     16  O   UNL     1       1.756   4.506  19.349  0.00  0.00    +0.000 OA
ENDBRANCH  11  12
ENDBRANCH   6  11
TORSDOF 3
ENDMDL
MODEL 6
REMARK VINA RESULT:      -6.0      2.274      2.936
REMARK  Name = 
REMARK  5 active torsions:
REMARK  status: ('A' for Active; 'I' for Inactive)
REMARK    1  A    between atoms: C_1  and  O_2
REMARK    2  A    between atoms: O_2  and  C_3
REMARK    3  A    between atoms: N_8  and  C_9
REMARK    4  A    between atoms: N_8  and  C_10
REMARK    5  A    between atoms: C_10  and  C_11
REMARK                            x       y       z     vdW  Elec       q    Type
REMARK                         _______ _______ _______ _____ _____    ______ ____
ROOT
ATOM      1  C   UNL     1       6.042   4.712  15.922  0.00  0.00    +0.000 A 
ATOM      2  C   UNL     1       6.567   5.949  16.172  0.00  0.00    +0.000 A 
ATOM      3  C   UNL     1       5.812   6.729  17.006  0.00  0.00    +0.000 A 
ATOM      4  N   UNL     1       4.665   6.311  17.581  0.00  0.00    +0.000 NA
ATOM      5  C   UNL     1       4.225   5.083  17.272  0.00  0.00    +0.000 A 
ATOM      6  N   UNL     1       3.037   4.640  17.796  0.00  0.00    +0.000 N 
ATOM      7  C   UNL     1       2.304   3.577  17.146  0.00  0.00    +0.000 C 
ATOM      8  N   UNL     1       4.890   4.268  16.447  0.00  0.00    +0.000 NA
ENDROOT
BRANCH   1  10
ATOM      9  C   UNL     1       6.243   3.921  13.750  0.00  0.00    +0.000 C 
ATOM     10  O   UNL     1       6.754   3.882  15.081  0.00  0.00    +0.000 OA
ENDBRANCH   1  10
BRANCH   6  11
ATOM     11  C   UNL     1       2.569   5.166  19.067  0.00  0.00    +0.000 C 
BRANCH  11  12
ATOM     12  C   UNL     1       2.217   4.152  20.110  0.00  0.00    +0.000 A 
ATOM     13  C   UNL     1       1.035   3.756  20.710  0.00  0.00    +0.000 A 
ATOM     14  C   UNL     1       1.365   2.694  21.586  0.00  0.00    +0.000 A 
ATOM     15  C   UNL     1       2.722   2.519  21.486  0.00  0.00    +0.000 A 
ATOM     16  O   UNL     1       3.251   3.400  20.595  0.00  0.00    +0.000 OA
ENDBRANCH  11  12
ENDBRANCH   6  11
TORSDOF 3
ENDMDL
MODEL 7
REMARK VINA RESULT:      -5.9      1.896      2.475
REMARK  Name = 
REMARK  5 active torsions:
REMARK  status: ('A' for Active; 'I' for Inactive)
REMARK    1  A    between atoms: C_1  and  O_2
REMARK    2  A    between atoms: O_2  and  C_3
REMARK    3  A    between atoms: N_8  and  C_9
REMARK    4  A    between atoms: N_8  and  C_10
REMARK    5  A    between atoms: C_10  and  C_11
REMARK                            x       y       z     vdW  Elec       q    Type
REMARK                         _______ _______ _______ _____ _____    ______ ____
ROOT
ATOM      1  C   UNL     1       6.668   5.900  16.530  0.00  0.00    +0.000 A 
ATOM      2  C   UNL     1       6.746   4.789  15.738  0.00  0.00    +0.000 A 
ATOM      3  C   UNL     1       5.648   3.971  15.796  0.00  0.00    +0.000 A 
ATOM      4  N   UNL     1       4.551   4.248  16.531  0.00  0.00    +0.000 NA
ATOM      5  C   UNL     1       4.568   5.360  17.280  0.00  0.00    +0.000 A 
ATOM      6  N   UNL     1       3.493   5.651  18.081  0.00  0.00    +0.000 N 
ATOM      7  C   UNL     1       3.648   6.524  19.223  0.00  0.00    +0.000 C 
ATOM      8  N   UNL     1       5.610   6.197  17.300  0.00  0.00    +0.000 NA
ENDROOT
BRANCH   1  10
ATOM      9  C   UNL     1       7.620   7.770  17.519  0.00  0.00    +0.000 C 
ATOM     10  O   UNL     1       7.748   6.759  16.521  0.00  0.00    +0.000 OA
ENDBRANCH   1  10
BRANCH   6  11
ATOM     11  C   UNL     1       2.172   5.166  17.718  0.00  0.00    +0.000 C 
BRANCH  11  12
ATOM     12  C   UNL     1       1.604   4.090  18.589  0.00  0.00    +0.000 A 
ATOM     13  C   UNL     1       1.218   4.027  19.916  0.00  0.00    +0.000 A 
ATOM     14  C   UNL     1       0.698   2.726  20.123  0.00  0.00    +0.000 A 
ATOM     15  C   UNL     1       0.817   2.070  18.924  0.00  0.00    +0.000 A 
ATOM     16  O   UNL     1       1.366   2.887  17.986  0.00  0.00    +0.000 OA
ENDBRANCH  11  12
ENDBRANCH   6  11
TORSDOF 3
ENDMDL
MODEL 8
REMARK VINA RESULT:      -5.9      2.940      6.341
REMARK  Name = 
REMARK  5 active torsions:
REMARK  status: ('A' for Active; 'I' for Inactive)
REMARK    1  A    between atoms: C_1  and  O_2
REMARK    2  A    between atoms: O_2  and  C_3
REMARK    3  A    between atoms: N_8  and  C_9
REMARK    4  A    between atoms: N_8  and  C_10
REMARK    5  A    between atoms: C_10  and  C_11
REMARK                            x       y       z     vdW  Elec       q    Type
REMARK                         _______ _______ _______ _____ _____    ______ ____
ROOT
ATOM      1  C   UNL     1       2.514   4.027  18.985  0.00  0.00    +0.000 A 
ATOM      2  C   UNL     1       2.476   2.673  18.806  0.00  0.00    +0.000 A 
ATOM      3  C   UNL     1       3.409   2.187  17.930  0.00  0.00    +0.000 A 
ATOM      4  N   UNL     1       4.332   2.961  17.321  0.00  0.00    +0.000 NA
ATOM      5  C   UNL     1       4.289   4.281  17.553  0.00  0.00    +0.000 A 
ATOM      6  N   UNL     1       5.177   5.108  16.914  0.00  0.00    +0.000 N 
ATOM      7  C   UNL     1       4.879   6.513  16.750  0.00  0.00    +0.000 C 
ATOM      8  N   UNL     1       3.393   4.837  18.375  0.00  0.00    +0.000 NA
ENDROOT
BRANCH   1  10
ATOM      9  C   UNL     1       1.642   3.957  21.133  0.00  0.00    +0.000 C 
ATOM     10  O   UNL     1       1.591   4.577  19.850  0.00  0.00    +0.000 OA
ENDBRANCH   1  10
BRANCH   6  11
ATOM     11  C   UNL     1       6.469   4.592  16.495  0.00  0.00    +0.000 C 
BRANCH  11  12
ATOM     12  C   UNL     1       6.695   4.505  15.017  0.00  0.00    +0.000 A 
ATOM     13  C   UNL     1       6.138   3.751  14.000  0.00  0.00    +0.000 A 
ATOM     14  C   UNL     1       6.749   4.184  12.798  0.00  0.00    +0.000 A 
ATOM     15  C   UNL     1       7.651   5.155  13.153  0.00  0.00    +0.000 A 
ATOM     16  O   UNL     1       7.629   5.357  14.498  0.00  0.00    +0.000 OA
ENDBRANCH  11  12
ENDBRANCH   6  11
TORSDOF 3
ENDMDL
MODEL 9
REMARK VINA RESULT:      -5.9      1.993      2.446
REMARK  Name = 
REMARK  5 active torsions:
REMARK  status: ('A' for Active; 'I' for Inactive)
REMARK    1  A    between atoms: C_1  and  O_2
REMARK    2  A    between atoms: O_2  and  C_3
REMARK    3  A    between atoms: N_8  and  C_9
REMARK    4  A    between atoms: N_8  and  C_10
REMARK    5  A    between atoms: C_10  and  C_11
REMARK                            x       y       z     vdW  Elec       q    Type
REMARK                         _______ _______ _______ _____ _____    ______ ____
ROOT
ATOM      1  C   UNL     1       5.999   5.769  16.469  0.00  0.00    +0.000 A 
ATOM      2  C   UNL     1       6.861   5.084  17.279  0.00  0.00    +0.000 A 
ATOM      3  C   UNL     1       6.441   4.955  18.576  0.00  0.00    +0.000 A 
ATOM      4  N   UNL     1       5.254   5.416  19.024  0.00  0.00    +0.000 NA
ATOM      5  C   UNL     1       4.477   6.080  18.157  0.00  0.00    +0.000 A 
ATOM      6  N   UNL     1       3.286   6.609  18.585  0.00  0.00    +0.000 N 
ATOM      7  C   UNL     1       2.670   7.701  17.865  0.00  0.00    +0.000 C 
ATOM      8  N   UNL     1       4.825   6.272  16.880  0.00  0.00    +0.000 NA
ENDROOT
BRANCH   1  10
ATOM      9  C   UNL     1       6.630   4.692  14.513  0.00  0.00    +0.000 C 
ATOM     10  O   UNL     1       6.371   5.941  15.151  0.00  0.00    +0.000 OA
ENDBRANCH   1  10
BRANCH   6  11
ATOM     11  C   UNL     1       2.589   6.000  19.706  0.00  0.00    +0.000 C 
BRANCH  11  12
ATOM     12  C   UNL     1       1.927   4.685  19.432  0.00  0.00    +0.000 A 
ATOM     13  C   UNL     1       1.511   4.035  18.284  0.00  0.00    +0.000 A 
ATOM     14  C   UNL     1       1.006   2.778  18.693  0.00  0.00    +0.000 A 
ATOM     15  C   UNL     1       1.123   2.743  20.060  0.00  0.00    +0.000 A 
ATOM     16  O   UNL     1       1.679   3.896  20.520  0.00  0.00    +0.000 OA
ENDBRANCH  11  12
ENDBRANCH   6  11
TORSDOF 3
ENDMDL
