MODEL 1
REMARK VINA RESULT:      -6.8      0.000      0.000
REMARK  Name = 
REMARK  10 active torsions:
REMARK  status: ('A' for Active; 'I' for Inactive)
REMARK    1  A    between atoms: C_1  and  C_2
REMARK    2  A    between atoms: N_4  and  C_5
REMARK    3  A    between atoms: C_5  and  C_6
REMARK    4  A    between atoms: C_5  and  C_10
REMARK    5  A    between atoms: C_6  and  C_7
REMARK    6  A    between atoms: C_7  and  C_8
REMARK    7  A    between atoms: C_7  and  C_9
REMARK    8  A    between atoms: CA_12  and  C_13
REMARK    9  A    between atoms: C_13  and  OXT_15
REMARK   10  A    between atoms: C_17  and  N_18
REMARK                            x       y       z     vdW  Elec       q    Type
REMARK                         _______ _______ _______ _____ _____    ______ ____
ROOT
ATOM      1  C   UNL     1       4.581   4.146  17.467  0.00  0.00    +0.000 C 
ATOM      2  N   UNL     1       3.520   5.203  17.449  0.00  0.00    +0.000 NA
ATOM      3  CA  UNL     1       2.771   5.036  18.711  0.00  0.00    +0.000 C 
ATOM      4  C   UNL     1       3.861   4.751  19.728  0.00  0.00    +0.000 C 
ATOM      5  C   UNL     1       4.891   3.912  18.972  0.00  0.00    +0.000 C 
ATOM      6  H   UNL     1       2.949   5.043  16.621  0.00  0.00    +0.000 HD
ENDROOT
BRANCH   5   7
ATOM      7  N   UNL     1       4.797   2.494  19.327  0.00  0.00    +0.000 NA
ATOM      8  H   UNL     1       4.681   2.399  20.344  0.00  0.00    +0.000 HD
ATOM      9  H   UNL     1       5.679   2.024  19.131  0.00  0.00    +0.000 HD
ENDBRANCH   5   7
BRANCH   3  10
ATOM     10  C   UNL     1       1.740   3.909  18.614  0.00  0.00    +0.000 C 
ATOM     11  O   UNL     1       1.083   3.631  17.625  0.00  0.00    +0.000 OA
BRANCH  10  12
ATOM     12  OXT UNL     1       1.621   3.219  19.782  0.00  0.00    +0.000 OA
ATOM     13  HXT UNL     1       2.108   2.372  19.757  0.00  0.00    +0.000 HD
ENDBRANCH  10  12
ENDBRANCH   3  10
BRANCH   1  14
ATOM     14  C   UNL     1       5.814   4.600  16.626  0.00  0.00    +0.000 C 
BRANCH  14  18
ATOM     15  C   UNL     1       6.333   3.631  12.955  0.00  0.00    +0.000 C 
ATOM     16  C   UNL     1       6.491   4.462  14.203  0.00  0.00    +0.000 C 
ATOM     17  O   UNL     1       7.138   5.502  14.205  0.00  0.00    +0.000 OA
ATOM     18  N   UNL     1       5.876   3.929  15.313  0.00  0.00    +0.000 N 
ATOM     19  H   UNL     1       5.336   3.081  15.208  0.00  0.00    +0.000 HD
ENDBRANCH  14  18
BRANCH  14  20
ATOM     20  C   UNL     1       7.167   4.510  17.372  0.00  0.00    +0.000 C 
BRANCH  20  21
ATOM     21  C   UNL     1       7.721   5.873  17.854  0.00  0.00    +0.000 C 
ATOM     22  C   UNL     1       6.860   7.064  17.416  0.00  0.00    +0.000 C 
ATOM     23  C   UNL     1       7.833   5.881  19.382  0.00  0.00    +0.000 C 
ENDBRANCH  20  21
ENDBRANCH  14  20
ENDBRANCH   1  14
TORSDOF 7
ENDMDL
MODEL 2
REMARK VINA RESULT:      -6.7      1.774      3.405
REMARK  Name = 
REMARK  10 active torsions:
REMARK  status: ('A' for Active; 'I' for Inactive)
REMARK    1  A    between atoms: C_1  and  C_2
REMARK    2  A    between atoms: N_4  and  C_5
REMARK    3  A    between atoms: C_5  and  C_6
REMARK    4  A    between atoms: C_5  and  C_10
REMARK    5  A    between atoms: C_6  and  C_7
REMARK    6  A    between atoms: C_7  and  C_8
REMARK    7  A    between atoms: C_7  and  C_9
REMARK    8  A    between atoms: CA_12  and  C_13
REMARK    9  A    between atoms: C_13  and  OXT_15
REMARK   10  A    between atoms: C_17  and  N_18
REMARK                            x       y       z     vdW  Elec       q    Type
REMARK                         _______ _______ _______ _____ _____    ______ ____
ROOT
ATOM      1  C   UNL     1       4.077   4.103  17.910  0.00  0.00    +0.000 C 
ATOM      2  N   UNL     1       3.015   3.439  17.089  0.00  0.00    +0.000 NA
ATOM      3  CA  UNL     1       1.733   3.808  17.723  0.00  0.00    +0.000 C 
ATOM      4  C   UNL     1       1.931   5.269  18.084  0.00  0.00    +0.000 C 
ATOM      5  C   UNL     1       3.400   5.375  18.491  0.00  0.00    +0.000 C 
ATOM      6  H   UNL     1       3.198   2.437  17.111  0.00  0.00    +0.000 HD
ENDROOT
BRANCH   5   7
ATOM      7  N   UNL     1       3.552   5.448  19.947  0.00  0.00    +0.000 NA
ATOM      8  H   UNL     1       2.663   5.200  20.400  0.00  0.00    +0.000 HD
ATOM      9  H   UNL     1       3.718   6.412  20.234  0.00  0.00    +0.000 HD
ENDBRANCH   5   7
BRANCH   3  10
ATOM     10  C   UNL     1       1.429   2.931  18.940  0.00  0.00    +0.000 C 
ATOM     11  O   UNL     1       1.054   3.334  20.029  0.00  0.00    +0.000 OA
BRANCH  10  12
ATOM     12  OXT UNL     1       1.622   1.608  18.682  0.00  0.00    +0.000 OA
ATOM     13  HXT UNL     1       2.548   1.414  18.441  0.00  0.00    +0.000 HD
ENDBRANCH  10  12
ENDBRANCH   3  10
BRANCH   1  14
ATOM     14  C   UNL     1       5.336   4.393  17.036  0.00  0.00    +0.000 C 
BRANCH  14  18
ATOM     15  C   UNL     1       7.975   6.652  18.655  0.00  0.00    +0.000 C 
ATOM     16  C   UNL     1       7.401   5.376  18.093  0.00  0.00    +0.000 C 
ATOM     17  O   UNL     1       8.038   4.329  18.099  0.00  0.00    +0.000 OA
ATOM     18  N   UNL     1       6.139   5.514  17.562  0.00  0.00    +0.000 N 
ATOM     19  H   UNL     1       5.679   6.412  17.632  0.00  0.00    +0.000 HD
ENDBRANCH  14  18
BRANCH  14  20
ATOM     20  C   UNL     1       5.042   4.568  15.526  0.00  0.00    +0.000 C 
BRANCH  20  21
ATOM     21  C   UNL     1       6.126   3.977  14.594  0.00  0.00    +0.000 C 
ATOM     22  C   UNL     1       5.590   3.593  13.210  0.00  0.00    +0.000 C 
ATOM     23  C   UNL     1       7.270   4.981  14.418  0.00  0.00    +0.000 C 
ENDBRANCH  20  21
ENDBRANCH  14  20
ENDBRANCH   1  14
TORSDOF 7
ENDMDL
MODEL 3
REMARK VINA RESULT:      -6.7      1.171      1.477
REMARK  Name = 
REMARK  10 active torsions:
REMARK  status: ('A' for Active; 'I' for Inactive)
REMARK    1  A    between atoms: C_1  and  C_2
REMARK    2  A    between atoms: N_4  and  C_5
REMARK    3  A    between atoms: C_5  and  C_6
REMARK    4  A    between atoms: C_5  and  C_10
REMARK    5  A    between atoms: C_6  and  C_7
REMARK    6  A    between atoms: C_7  and  C_8
REMARK    7  A    between atoms: C_7  and  C_9
REMARK    8  A    between atoms: CA_12  and  C_13
REMARK    9  A    between atoms: C_13  and  OXT_15
REMARK   10  A    between atoms: C_17  and  N_18
REMARK                            x       y       z     vdW  Elec       q    Type
REMARK                         _______ _______ _______ _____ _____    ______ ____
ROOT
ATOM      1  C   UNL     1       4.576   4.221  17.708  0.00  0.00    +0.000 C 
ATOM      2  N   UNL     1       3.561   3.453  16.919  0.00  0.00    +0.000 NA
ATOM      3  CA  UNL     1       2.267   3.701  17.586  0.00  0.00    +0.000 C 
ATOM      4  C   UNL     1       2.333   5.177  17.935  0.00  0.00    +0.000 C 
ATOM      5  C   UNL     1       3.796   5.426  18.302  0.00  0.00    +0.000 C 
ATOM      6  H   UNL     1       3.841   2.473  16.941  0.00  0.00    +0.000 HD
ENDROOT
BRANCH   5   7
ATOM      7  N   UNL     1       3.979   5.524  19.753  0.00  0.00    +0.000 NA
ATOM      8  H   UNL     1       3.424   6.309  20.118  0.00  0.00    +0.000 HD
ATOM      9  H   UNL     1       4.942   5.777  19.968  0.00  0.00    +0.000 HD
ENDBRANCH   5   7
BRANCH   3  10
ATOM     10  C   UNL     1       2.081   2.808  18.815  0.00  0.00    +0.000 C 
ATOM     11  O   UNL     1       1.794   3.194  19.936  0.00  0.00    +0.000 OA
BRANCH  10  12
ATOM     12  OXT UNL     1       2.272   1.491  18.527  0.00  0.00    +0.000 OA
ATOM     13  HXT UNL     1       1.996   1.272  17.617  0.00  0.00    +0.000 HD
ENDBRANCH  10  12
ENDBRANCH   3  10
BRANCH   1  14
ATOM     14  C   UNL     1       5.777   4.625  16.799  0.00  0.00    +0.000 C 
BRANCH  14  18
ATOM     15  C   UNL     1       6.065   3.640  13.107  0.00  0.00    +0.000 C 
ATOM     16  C   UNL     1       6.330   4.455  14.347  0.00  0.00    +0.000 C 
ATOM     17  O   UNL     1       7.038   5.455  14.318  0.00  0.00    +0.000 OA
ATOM     18  N   UNL     1       5.738   3.956  15.484  0.00  0.00    +0.000 N 
ATOM     19  H   UNL     1       5.143   3.142  15.404  0.00  0.00    +0.000 HD
ENDBRANCH  14  18
BRANCH  14  20
ATOM     20  C   UNL     1       7.166   4.475  17.468  0.00  0.00    +0.000 C 
BRANCH  20  21
ATOM     21  C   UNL     1       7.737   5.790  18.050  0.00  0.00    +0.000 C 
ATOM     22  C   UNL     1       7.062   7.046  17.486  0.00  0.00    +0.000 C 
ATOM     23  C   UNL     1       7.590   5.795  19.576  0.00  0.00    +0.000 C 
ENDBRANCH  20  21
ENDBRANCH  14  20
ENDBRANCH   1  14
TORSDOF 7
ENDMDL
MODEL 4
REMARK VINA RESULT:      -6.7      1.937      3.846
REMARK  Name = 
REMARK  10 active torsions:
REMARK  status: ('A' for Active; 'I' for Inactive)
REMARK    1  A    between atoms: C_1  and  C_2
REMARK    2  A    between atoms: N_4  and  C_5
REMARK    3  A    between atoms: C_5  and  C_6
REMARK    4  A    between atoms: C_5  and  C_10
REMARK    5  A    between atoms: C_6  and  C_7
REMARK    6  A    between atoms: C_7  and  C_8
REMARK    7  A    between atoms: C_7  and  C_9
REMARK    8  A    between atoms: CA_12  and  C_13
REMARK    9  A    between atoms: C_13  and  OXT_15
REMARK   10  A    between atoms: C_17  and  N_18
REMARK                            x       y       z     vdW  Elec       q    Type
REMARK                         _______ _______ _______ _____ _____    ______ ____
ROOT
ATOM      1  C   UNL     1       5.331   4.611  17.400  0.00  0.00    +0.000 C 
ATOM      2  N   UNL     1       5.037   3.153  17.226  0.00  0.00    +0.000 NA
ATOM      3  CA  UNL     1       3.729   2.931  17.875  0.00  0.00    +0.000 C 
ATOM      4  C   UNL     1       2.926   4.154  17.469  0.00  0.00    +0.000 C 
ATOM      5  C   UNL     1       3.939   5.299  17.458  0.00  0.00    +0.000 C 
ATOM      6  H   UNL     1       5.796   2.637  17.669  0.00  0.00    +0.000 HD
ENDROOT
BRANCH   5   7
ATOM      7  N   UNL     1       3.806   6.148  18.645  0.00  0.00    +0.000 NA
ATOM      8  H   UNL     1       3.108   6.882  18.469  0.00  0.00    +0.000 HD
ATOM      9  H   UNL     1       4.672   6.660  18.808  0.00  0.00    +0.000 HD
ENDBRANCH   5   7
BRANCH   3  10
ATOM     10  C   UNL     1       3.866   2.787  19.393  0.00  0.00    +0.000 C 
ATOM     11  O   UNL     1       3.202   3.382  20.225  0.00  0.00    +0.000 OA
BRANCH  10  12
ATOM     12  OXT UNL     1       4.835   1.896  19.739  0.00  0.00    +0.000 OA
ATOM     13  HXT UNL     1       5.731   2.245  19.569  0.00  0.00    +0.000 HD
ENDBRANCH  10  12
ENDBRANCH   3  10
BRANCH   1  14
ATOM     14  C   UNL     1       6.247   5.122  16.245  0.00  0.00    +0.000 C 
BRANCH  14  18
ATOM     15  C   UNL     1       7.748   8.361  17.638  0.00  0.00    +0.000 C 
ATOM     16  C   UNL     1       7.456   6.883  17.581  0.00  0.00    +0.000 C 
ATOM     17  O   UNL     1       7.866   6.114  18.442  0.00  0.00    +0.000 OA
ATOM     18  N   UNL     1       6.731   6.496  16.477  0.00  0.00    +0.000 N 
ATOM     19  H   UNL     1       6.408   7.208  15.835  0.00  0.00    +0.000 HD
ENDBRANCH  14  18
BRANCH  14  20
ATOM     20  C   UNL     1       5.639   4.968  14.830  0.00  0.00    +0.000 C 
BRANCH  20  21
ATOM     21  C   UNL     1       6.526   4.175  13.839  0.00  0.00    +0.000 C 
ATOM     22  C   UNL     1       5.726   3.501  12.718  0.00  0.00    +0.000 C 
ATOM     23  C   UNL     1       7.569   5.105  13.211  0.00  0.00    +0.000 C 
ENDBRANCH  20  21
ENDBRANCH  14  20
ENDBRANCH   1  14
TORSDOF 7
ENDMDL
MODEL 5
REMARK VINA RESULT:      -6.6      2.301      5.655
REMARK  Name = 
REMARK  10 active torsions:
REMARK  status: ('A' for Active; 'I' for Inactive)
REMARK    1  A    between atoms: C_1  and  C_2
REMARK    2  A    between atoms: N_4  and  C_5
REMARK    3  A    between atoms: C_5  and  C_6
REMARK    4  A    between atoms: C_5  and  C_10
REMARK    5  A    between atoms: C_6  and  C_7
REMARK    6  A    between atoms: C_7  and  C_8
REMARK    7  A    between atoms: C_7  and  C_9
REMARK    8  A    between atoms: CA_12  and  C_13
REMARK    9  A    between atoms: C_13  and  OXT_15
REMARK   10  A    between atoms: C_17  and  N_18
REMARK                            x       y       z     vdW  Elec       q    Type
REMARK                         _______ _______ _______ _____ _____    ______ ____
ROOT
ATOM      1  C   UNL     1       4.486   5.626  18.142  0.00  0.00    +0.000 C 
ATOM      2  N   UNL     1       4.680   6.234  16.787  0.00  0.00    +0.000 NA
ATOM      3  CA  UNL     1       5.619   5.339  16.079  0.00  0.00    +0.000 C 
ATOM      4  C   UNL     1       5.146   3.953  16.479  0.00  0.00    +0.000 C 
ATOM      5  C   UNL     1       4.690   4.100  17.931  0.00  0.00    +0.000 C 
ATOM      6  H   UNL     1       5.052   7.172  16.927  0.00  0.00    +0.000 HD
ENDROOT
BRANCH   5   7
ATOM      7  N   UNL     1       5.679   3.554  18.865  0.00  0.00    +0.000 NA
ATOM      8  H   UNL     1       5.282   3.530  19.813  0.00  0.00    +0.000 HD
ATOM      9  H   UNL     1       6.474   4.187  18.943  0.00  0.00    +0.000 HD
ENDBRANCH   5   7
BRANCH   3  10
ATOM     10  C   UNL     1       7.071   5.610  16.479  0.00  0.00    +0.000 C 
ATOM     11  O   UNL     1       7.568   6.711  16.645  0.00  0.00    +0.000 OA
BRANCH  10  12
ATOM     12  OXT UNL     1       7.783   4.460  16.639  0.00  0.00    +0.000 OA
ATOM     13  HXT UNL     1       8.739   4.599  16.497  0.00  0.00    +0.000 HD
ENDBRANCH  10  12
ENDBRANCH   3  10
BRANCH   1  14
ATOM     14  C   UNL     1       3.087   6.010  18.713  0.00  0.00    +0.000 C 
BRANCH  14  18
ATOM     15  C   UNL     1       1.084   3.066  20.131  0.00  0.00    +0.000 C 
ATOM     16  C   UNL     1       1.893   4.337  20.172  0.00  0.00    +0.000 C 
ATOM     17  O   UNL     1       2.191   4.875  21.231  0.00  0.00    +0.000 OA
ATOM     18  N   UNL     1       2.226   4.831  18.931  0.00  0.00    +0.000 N 
ATOM     19  H   UNL     1       1.964   4.300  18.111  0.00  0.00    +0.000 HD
ENDBRANCH  14  18
BRANCH  14  20
ATOM     20  C   UNL     1       2.348   7.110  17.914  0.00  0.00    +0.000 C 
BRANCH  20  21
ATOM     21  C   UNL     1       2.180   8.447  18.675  0.00  0.00    +0.000 C 
ATOM     22  C   UNL     1       1.227   9.425  17.978  0.00  0.00    +0.000 C 
ATOM     23  C   UNL     1       1.662   8.180  20.093  0.00  0.00    +0.000 C 
ENDBRANCH  20  21
ENDBRANCH  14  20
ENDBRANCH   1  14
TORSDOF 7
ENDMDL
MODEL 6
REMARK VINA RESULT:      -6.6      0.740      1.034
REMARK  Name = 
REMARK  10 active torsions:
REMARK  status: ('A' for Active; 'I' for Inactive)
REMARK    1  A    between atoms: C_1  and  C_2
REMARK    2  A    between atoms: N_4  and  C_5
REMARK    3  A    between atoms: C_5  and  C_6
REMARK    4  A    between atoms: C_5  and  C_10
REMARK    5  A    between atoms: C_6  and  C_7
REMARK    6  A    between atoms: C_7  and  C_8
REMARK    7  A    between atoms: C_7  and  C_9
REMARK    8  A    between atoms: CA_12  and  C_13
REMARK    9  A    between atoms: C_13  and  OXT_15
REMARK   10  A    between atoms: C_17  and  N_18
REMARK                            x       y       z     vdW  Elec       q    Type
REMARK                         _______ _______ _______ _____ _____    ______ ____
ROOT
ATOM      1  C   UNL     1       4.620   3.654  17.537  0.00  0.00    +0.000 C 
ATOM      2  N   UNL     1       3.264   4.200  17.210  0.00  0.00    +0.000 NA
ATOM      3  CA  UNL     1       2.465   4.046  18.443  0.00  0.00    +0.000 C 
ATOM      4  C   UNL     1       3.443   4.425  19.541  0.00  0.00    +0.000 C 
ATOM      5  C   UNL     1       4.793   3.892  19.062  0.00  0.00    +0.000 C 
ATOM      6  H   UNL     1       2.901   3.658  16.428  0.00  0.00    +0.000 HD
ENDROOT
BRANCH   5   7
ATOM      7  N   UNL     1       5.164   2.659  19.762  0.00  0.00    +0.000 NA
ATOM      8  H   UNL     1       5.880   2.865  20.469  0.00  0.00    +0.000 HD
ATOM      9  H   UNL     1       5.625   2.016  19.119  0.00  0.00    +0.000 HD
ENDBRANCH   5   7
BRANCH   3  10
ATOM     10  C   UNL     1       1.925   2.622  18.594  0.00  0.00    +0.000 C 
ATOM     11  O   UNL     1       1.494   2.133  19.625  0.00  0.00    +0.000 OA
BRANCH  10  12
ATOM     12  OXT UNL     1       1.970   1.928  17.424  0.00  0.00    +0.000 OA
ATOM     13  HXT UNL     1       1.334   2.274  16.768  0.00  0.00    +0.000 HD
ENDBRANCH  10  12
ENDBRANCH   3  10
BRANCH   1  14
ATOM     14  C   UNL     1       5.709   4.341  16.656  0.00  0.00    +0.000 C 
BRANCH  14  18
ATOM     15  C   UNL     1       6.256   3.574  12.942  0.00  0.00    +0.000 C 
ATOM     16  C   UNL     1       6.349   4.369  14.220  0.00  0.00    +0.000 C 
ATOM     17  O   UNL     1       6.882   5.471  14.253  0.00  0.00    +0.000 OA
ATOM     18  N   UNL     1       5.816   3.731  15.317  0.00  0.00    +0.000 N 
ATOM     19  H   UNL     1       5.367   2.835  15.186  0.00  0.00    +0.000 HD
ENDBRANCH  14  18
BRANCH  14  20
ATOM     20  C   UNL     1       7.095   4.466  17.333  0.00  0.00    +0.000 C 
BRANCH  20  21
ATOM     21  C   UNL     1       7.502   5.916  17.689  0.00  0.00    +0.000 C 
ATOM     22  C   UNL     1       6.410   6.945  17.374  0.00  0.00    +0.000 C 
ATOM     23  C   UNL     1       7.855   6.012  19.177  0.00  0.00    +0.000 C 
ENDBRANCH  20  21
ENDBRANCH  14  20
ENDBRANCH   1  14
TORSDOF 7
ENDMDL
MODEL 7
REMARK VINA RESULT:      -6.6      1.852      3.649
REMARK  Name = 
REMARK  10 active torsions:
REMARK  status: ('A' for Active; 'I' for Inactive)
REMARK    1  A    between atoms: C_1  and  C_2
REMARK    2  A    between atoms: N_4  and  C_5
REMARK    3  A    between atoms: C_5  and  C_6
REMARK    4  A    between atoms: C_5  and  C_10
REMARK    5  A    between atoms: C_6  and  C_7
REMARK    6  A    between atoms: C_7  and  C_8
REMARK    7  A    between atoms: C_7  and  C_9
REMARK    8  A    between atoms: CA_12  and  C_13
REMARK    9  A    between atoms: C_13  and  OXT_15
REMARK   10  A    between atoms: C_17  and  N_18
REMARK                            x       y       z     vdW  Elec       q    Type
REMARK                         _______ _______ _______ _____ _____    ______ ____
ROOT
ATOM      1  C   UNL     1       4.132   3.790  18.187  0.00  0.00    +0.000 C 
ATOM      2  N   UNL     1       4.551   2.763  19.193  0.00  0.00    +0.000 NA
ATOM      3  CA  UNL     1       3.335   1.980  19.492  0.00  0.00    +0.000 C 
ATOM      4  C   UNL     1       2.682   1.818  18.132  0.00  0.00    +0.000 C 
ATOM      5  C   UNL     1       2.960   3.134  17.406  0.00  0.00    +0.000 C 
ATOM      6  H   UNL     1       4.913   3.264  20.003  0.00  0.00    +0.000 HD
ENDROOT
BRANCH   5   7
ATOM      7  N   UNL     1       1.777   3.998  17.384  0.00  0.00    +0.000 NA
ATOM      8  H   UNL     1       0.978   3.480  16.996  0.00  0.00    +0.000 HD
ATOM      9  H   UNL     1       1.916   4.768  16.731  0.00  0.00    +0.000 HD
ENDBRANCH   5   7
BRANCH   3  10
ATOM     10  C   UNL     1       2.434   2.694  20.502  0.00  0.00    +0.000 C 
ATOM     11  O   UNL     1       1.411   3.303  20.235  0.00  0.00    +0.000 OA
BRANCH  10  12
ATOM     12  OXT UNL     1       2.899   2.580  21.777  0.00  0.00    +0.000 OA
ATOM     13  HXT UNL     1       2.521   3.260  22.367  0.00  0.00    +0.000 HD
ENDBRANCH  10  12
ENDBRANCH   3  10
BRANCH   1  14
ATOM     14  C   UNL     1       5.343   4.200  17.294  0.00  0.00    +0.000 C 
BRANCH  14  18
ATOM     15  C   UNL     1       8.111   6.320  18.885  0.00  0.00    +0.000 C 
ATOM     16  C   UNL     1       7.515   5.143  18.154  0.00  0.00    +0.000 C 
ATOM     17  O   UNL     1       8.203   4.195  17.794  0.00  0.00    +0.000 OA
ATOM     18  N   UNL     1       6.166   5.258  17.912  0.00  0.00    +0.000 N 
ATOM     19  H   UNL     1       5.674   6.064  18.275  0.00  0.00    +0.000 HD
ENDBRANCH  14  18
BRANCH  14  20
ATOM     20  C   UNL     1       4.971   4.554  15.833  0.00  0.00    +0.000 C 
BRANCH  20  21
ATOM     21  C   UNL     1       5.953   3.999  14.774  0.00  0.00    +0.000 C 
ATOM     22  C   UNL     1       5.288   3.713  13.423  0.00  0.00    +0.000 C 
ATOM     23  C   UNL     1       7.103   4.989  14.556  0.00  0.00    +0.000 C 
ENDBRANCH  20  21
ENDBRANCH  14  20
ENDBRANCH   1  14
TORSDOF 7
ENDMDL
MODEL 8
REMARK VINA RESULT:      -6.6      1.442      2.211
REMARK  Name = 
REMARK  10 active torsions:
REMARK  status: ('A' for Active; 'I' for Inactive)
REMARK    1  A    between atoms: C_1  and  C_2
REMARK    2  A    between atoms: N_4  and  C_5
REMARK    3  A    between atoms: C_5  and  C_6
REMARK    4  A    between atoms: C_5  and  C_10
REMARK    5  A    between atoms: C_6  and  C_7
REMARK    6  A    between atoms: C_7  and  C_8
REMARK    7  A    between atoms: C_7  and  C_9
REMARK    8  A    between atoms: CA_12  and  C_13
REMARK    9  A    between atoms: C_13  and  OXT_15
REMARK   10  A    between atoms: C_17  and  N_18
REMARK                            x       y       z     vdW  Elec       q    Type
REMARK                         _______ _______ _______ _____ _____    ______ ____
ROOT
ATOM      1  C   UNL     1       4.851   4.439  17.522  0.00  0.00    +0.000 C 
ATOM      2  N   UNL     1       4.808   2.951  17.366  0.00  0.00    +0.000 NA
ATOM      3  CA  UNL     1       3.571   2.514  18.045  0.00  0.00    +0.000 C 
ATOM      4  C   UNL     1       2.563   3.576  17.646  0.00  0.00    +0.000 C 
ATOM      5  C   UNL     1       3.363   4.878  17.604  0.00  0.00    +0.000 C 
ATOM      6  H   UNL     1       5.653   2.578  17.796  0.00  0.00    +0.000 HD
ENDROOT
BRANCH   5   7
ATOM      7  N   UNL     1       3.110   5.705  18.787  0.00  0.00    +0.000 NA
ATOM      8  H   UNL     1       2.524   6.509  18.528  0.00  0.00    +0.000 HD
ATOM      9  H   UNL     1       3.979   6.125  19.114  0.00  0.00    +0.000 HD
ENDBRANCH   5   7
BRANCH   3  10
ATOM     10  C   UNL     1       3.761   2.413  19.560  0.00  0.00    +0.000 C 
ATOM     11  O   UNL     1       2.980   2.823  20.402  0.00  0.00    +0.000 OA
BRANCH  10  12
ATOM     12  OXT UNL     1       4.929   1.797  19.892  0.00  0.00    +0.000 OA
ATOM     13  HXT UNL     1       5.008   1.657  20.855  0.00  0.00    +0.000 HD
ENDBRANCH  10  12
ENDBRANCH   3  10
BRANCH   1  14
ATOM     14  C   UNL     1       5.642   5.086  16.344  0.00  0.00    +0.000 C 
BRANCH  14  18
ATOM     15  C   UNL     1       6.188   3.523  12.888  0.00  0.00    +0.000 C 
ATOM     16  C   UNL     1       6.419   4.488  14.023  0.00  0.00    +0.000 C 
ATOM     17  O   UNL     1       7.239   5.394  13.938  0.00  0.00    +0.000 OA
ATOM     18  N   UNL     1       5.659   4.231  15.141  0.00  0.00    +0.000 N 
ATOM     19  H   UNL     1       4.984   3.479  15.106  0.00  0.00    +0.000 HD
ENDBRANCH  14  18
BRANCH  14  20
ATOM     20  C   UNL     1       7.066   5.567  16.715  0.00  0.00    +0.000 C 
BRANCH  20  21
ATOM     21  C   UNL     1       7.122   6.495  17.953  0.00  0.00    +0.000 C 
ATOM     22  C   UNL     1       7.919   5.901  19.119  0.00  0.00    +0.000 C 
ATOM     23  C   UNL     1       7.742   7.843  17.569  0.00  0.00    +0.000 C 
ENDBRANCH  20  21
ENDBRANCH  14  20
ENDBRANCH   1  14
TORSDOF 7
ENDMDL
MODEL 9
REMARK VINA RESULT:      -6.6      1.382      3.204
REMARK  Name = 
REMARK  10 active torsions:
REMARK  status: ('A' for Active; 'I' for Inactive)
REMARK    1  A    between atoms: C_1  and  C_2
REMARK    2  A    between atoms: N_4  and  C_5
REMARK    3  A    between atoms: C_5  and  C_6
REMARK    4  A    between atoms: C_5  and  C_10
REMARK    5  A    between atoms: C_6  and  C_7
REMARK    6  A    between atoms: C_7  and  C_8
REMARK    7  A    between atoms: C_7  and  C_9
REMARK    8  A    between atoms: CA_12  and  C_13
REMARK    9  A    between atoms: C_13  and  OXT_15
REMARK   10  A    between atoms: C_17  and  N_18
REMARK                            x       y       z     vdW  Elec       q    Type
REMARK                         _______ _______ _______ _____ _____    ______ ____
ROOT
ATOM      1  C   UNL     1       4.373   3.546  17.743  0.00  0.00    +0.000 C 
ATOM      2  N   UNL     1       3.167   4.423  17.611  0.00  0.00    +0.000 NA
ATOM      3  CA  UNL     1       2.435   4.289  18.887  0.00  0.00    +0.000 C 
ATOM      4  C   UNL     1       3.543   4.285  19.925  0.00  0.00    +0.000 C 
ATOM      5  C   UNL     1       4.695   3.530  19.262  0.00  0.00    +0.000 C 
ATOM      6  H   UNL     1       2.636   4.089  16.809  0.00  0.00    +0.000 HD
ENDROOT
BRANCH   5   7
ATOM      7  N   UNL     1       4.809   2.162  19.775  0.00  0.00    +0.000 NA
ATOM      8  H   UNL     1       3.915   1.875  20.194  0.00  0.00    +0.000 HD
ATOM      9  H   UNL     1       5.469   2.132  20.551  0.00  0.00    +0.000 HD
ENDBRANCH   5   7
BRANCH   3  10
ATOM     10  C   UNL     1       1.584   3.017  18.922  0.00  0.00    +0.000 C 
ATOM     11  O   UNL     1       1.636   2.152  19.780  0.00  0.00    +0.000 OA
BRANCH  10  12
ATOM     12  OXT UNL     1       0.730   2.941  17.865  0.00  0.00    +0.000 OA
ATOM     13  HXT UNL     1       0.879   3.661  17.221  0.00  0.00    +0.000 HD
ENDBRANCH  10  12
ENDBRANCH   3  10
BRANCH   1  14
ATOM     14  C   UNL     1       5.534   4.082  16.850  0.00  0.00    +0.000 C 
BRANCH  14  18
ATOM     15  C   UNL     1       7.980   6.457  18.599  0.00  0.00    +0.000 C 
ATOM     16  C   UNL     1       7.527   5.187  17.924  0.00  0.00    +0.000 C 
ATOM     17  O   UNL     1       8.277   4.228  17.790  0.00  0.00    +0.000 OA
ATOM     18  N   UNL     1       6.231   5.229  17.463  0.00  0.00    +0.000 N 
ATOM     19  H   UNL     1       5.676   6.054  17.649  0.00  0.00    +0.000 HD
ENDBRANCH  14  18
BRANCH  14  20
ATOM     20  C   UNL     1       5.131   4.382  15.386  0.00  0.00    +0.000 C 
BRANCH  20  21
ATOM     21  C   UNL     1       6.170   3.927  14.333  0.00  0.00    +0.000 C 
ATOM     22  C   UNL     1       5.548   3.606  12.969  0.00  0.00    +0.000 C 
ATOM     23  C   UNL     1       7.235   5.013  14.146  0.00  0.00    +0.000 C 
ENDBRANCH  20  21
ENDBRANCH  14  20
ENDBRANCH   1  14
TORSDOF 7
ENDMDL
