MODEL 1
REMARK VINA RESULT:      -8.6      0.000      0.000
REMARK  Name = 
REMARK  3 active torsions:
REMARK  status: ('A' for Active; 'I' for Inactive)
REMARK    1  A    between atoms: C_2  and  O_3
REMARK    2  A    between atoms: C_2  and  C_4
REMARK    3  A    between atoms: C_13  and  C_14
REMARK                            x       y       z     vdW  Elec       q    Type
REMARK                         _______ _______ _______ _____ _____    ______ ____
ROOT
ATOM      1  C   UNL     1       6.467   4.857  15.955  0.00  0.00    +0.000 A 
ATOM      2  C   UNL     1       6.968   5.917  16.711  0.00  0.00    +0.000 A 
ATOM      3  C   UNL     1       6.413   6.145  17.952  0.00  0.00    +0.000 A 
ATOM      4  N   UNL     1       5.386   5.424  18.443  0.00  0.00    +0.000 NA
ATOM      5  C   UNL     1       4.923   4.381  17.702  0.00  0.00    +0.000 A 
ATOM      6  N   UNL     1       3.747   3.693  18.138  0.00  0.00    +0.000 N 
ATOM      7  N   UNL     1       3.564   2.382  17.803  0.00  0.00    +0.000 NA
ATOM      8  C   UNL     1       2.508   2.008  18.522  0.00  0.00    +0.000 A 
ATOM      9  C   UNL     1       1.897   3.088  19.173  0.00  0.00    +0.000 A 
ATOM     10  C   UNL     1       2.652   4.206  18.843  0.00  0.00    +0.000 A 
ATOM     11  C   UNL     1       5.469   4.031  16.473  0.00  0.00    +0.000 A 
ENDROOT
BRANCH  10  12
ATOM     12  C   UNL     1       2.350   5.629  19.090  0.00  0.00    +0.000 A 
ATOM     13  C   UNL     1       2.050   6.116  20.377  0.00  0.00    +0.000 A 
ATOM     14  C   UNL     1       1.714   7.455  20.595  0.00  0.00    +0.000 A 
ATOM     15  C   UNL     1       1.753   8.343  19.536  0.00  0.00    +0.000 A 
ATOM     16  F   UNL     1       1.444   9.631  19.742  0.00  0.00    +0.000 F 
ATOM     17  C   UNL     1       2.124   7.903  18.272  0.00  0.00    +0.000 A 
ATOM     18  F   UNL     1       2.205   8.773  17.256  0.00  0.00    +0.000 F 
ATOM     19  C   UNL     1       2.414   6.558  18.041  0.00  0.00    +0.000 A 
ENDBRANCH  10  12
BRANCH   1  21
ATOM     20  O   UNL     1       7.810   5.436  14.092  0.00  0.00    +0.000 OA
ATOM     21  C   UNL     1       7.011   4.660  14.595  0.00  0.00    +0.000 C 
BRANCH  21  22
ATOM     22  O   UNL     1       6.483   3.609  13.937  0.00  0.00    +0.000 OA
ATOM     23  H   UNL     1       7.118   2.998  13.519  0.00  0.00    +0.000 HD
ENDBRANCH  21  22
ENDBRANCH   1  21
TORSDOF 3
ENDMDL
MODEL 2
REMARK VINA RESULT:      -8.5      0.585      1.419
REMARK  Name = 
REMARK  3 active torsions:
REMARK  status: ('A' for Active; 'I' for Inactive)
REMARK    1  A    between atoms: C_2  and  O_3
REMARK    2  A    between atoms: C_2  and  C_4
REMARK    3  A    between atoms: C_13  and  C_14
REMARK                            x       y       z     vdW  Elec       q    Type
REMARK                         _______ _______ _______ _____ _____    ______ ____
ROOT
ATOM      1  C   UNL     1       6.504   4.931  15.862  0.00  0.00    +0.000 A 
ATOM      2  C   UNL     1       6.997   6.003  16.604  0.00  0.00    +0.000 A 
ATOM      3  C   UNL     1       6.428   6.255  17.834  0.00  0.00    +0.000 A 
ATOM      4  N   UNL     1       5.393   5.545  18.326  0.00  0.00    +0.000 NA
ATOM      5  C   UNL     1       4.937   4.490  17.598  0.00  0.00    +0.000 A 
ATOM      6  N   UNL     1       3.755   3.812  18.032  0.00  0.00    +0.000 N 
ATOM      7  N   UNL     1       3.573   2.495  17.719  0.00  0.00    +0.000 NA
ATOM      8  C   UNL     1       2.508   2.136  18.431  0.00  0.00    +0.000 A 
ATOM      9  C   UNL     1       1.892   3.229  19.055  0.00  0.00    +0.000 A 
ATOM     10  C   UNL     1       2.652   4.339  18.715  0.00  0.00    +0.000 A 
ATOM     11  C   UNL     1       5.498   4.116  16.383  0.00  0.00    +0.000 A 
ENDROOT
BRANCH  10  12
ATOM     12  C   UNL     1       2.351   5.767  18.931  0.00  0.00    +0.000 A 
ATOM     13  C   UNL     1       2.322   6.693  17.870  0.00  0.00    +0.000 A 
ATOM     14  C   UNL     1       2.088   8.053  18.088  0.00  0.00    +0.000 A 
ATOM     15  C   UNL     1       1.798   8.493  19.368  0.00  0.00    +0.000 A 
ATOM     16  F   UNL     1       1.561   9.795  19.581  0.00  0.00    +0.000 F 
ATOM     17  C   UNL     1       1.742   7.586  20.418  0.00  0.00    +0.000 A 
ATOM     18  F   UNL     1       1.417   8.006  21.649  0.00  0.00    +0.000 F 
ATOM     19  C   UNL     1       2.022   6.236  20.211  0.00  0.00    +0.000 A 
ENDBRANCH  10  12
BRANCH   1  21
ATOM     20  O   UNL     1       7.840   5.493  13.989  0.00  0.00    +0.000 OA
ATOM     21  C   UNL     1       7.064   4.708  14.512  0.00  0.00    +0.000 C 
BRANCH  21  22
ATOM     22  O   UNL     1       6.575   3.620  13.885  0.00  0.00    +0.000 OA
ATOM     23  H   UNL     1       5.998   3.786  13.117  0.00  0.00    +0.000 HD
ENDBRANCH  21  22
ENDBRANCH   1  21
TORSDOF 3
ENDMDL
MODEL 3
REMARK VINA RESULT:      -7.8      4.304      6.215
REMARK  Name = 
REMARK  3 active torsions:
REMARK  status: ('A' for Active; 'I' for Inactive)
REMARK    1  A    between atoms: C_2  and  O_3
REMARK    2  A    between atoms: C_2  and  C_4
REMARK    3  A    between atoms: C_13  and  C_14
REMARK                            x       y       z     vdW  Elec       q    Type
REMARK                         _______ _______ _______ _____ _____    ______ ____
ROOT
ATOM      1  C   UNL     1       1.416   8.088  20.732  0.00  0.00    +0.000 A 
ATOM      2  C   UNL     1       1.564   8.749  19.513  0.00  0.00    +0.000 A 
ATOM      3  C   UNL     1       2.079   8.038  18.450  0.00  0.00    +0.000 A 
ATOM      4  N   UNL     1       2.486   6.757  18.549  0.00  0.00    +0.000 NA
ATOM      5  C   UNL     1       2.316   6.122  19.740  0.00  0.00    +0.000 A 
ATOM      6  N   UNL     1       2.867   4.812  19.909  0.00  0.00    +0.000 N 
ATOM      7  N   UNL     1       2.292   3.942  20.789  0.00  0.00    +0.000 NA
ATOM      8  C   UNL     1       2.906   2.785  20.550  0.00  0.00    +0.000 A 
ATOM      9  C   UNL     1       3.984   2.928  19.666  0.00  0.00    +0.000 A 
ATOM     10  C   UNL     1       4.018   4.272  19.322  0.00  0.00    +0.000 A 
ATOM     11  C   UNL     1       1.738   6.735  20.844  0.00  0.00    +0.000 A 
ENDROOT
BRANCH  10  12
ATOM     12  C   UNL     1       5.059   5.011  18.582  0.00  0.00    +0.000 A 
ATOM     13  C   UNL     1       4.896   5.381  17.233  0.00  0.00    +0.000 A 
ATOM     14  C   UNL     1       5.907   6.033  16.523  0.00  0.00    +0.000 A 
ATOM     15  C   UNL     1       7.068   6.397  17.181  0.00  0.00    +0.000 A 
ATOM     16  F   UNL     1       8.036   7.035  16.507  0.00  0.00    +0.000 F 
ATOM     17  C   UNL     1       7.220   6.114  18.532  0.00  0.00    +0.000 A 
ATOM     18  F   UNL     1       8.327   6.507  19.178  0.00  0.00    +0.000 F 
ATOM     19  C   UNL     1       6.233   5.421  19.231  0.00  0.00    +0.000 A 
ENDBRANCH  10  12
BRANCH   1  21
ATOM     20  O   UNL     1       1.695   9.456  22.646  0.00  0.00    +0.000 OA
ATOM     21  C   UNL     1       0.934   8.872  21.889  0.00  0.00    +0.000 C 
BRANCH  21  22
ATOM     22  O   UNL     1      -0.399   8.810  22.080  0.00  0.00    +0.000 OA
ATOM     23  H   UNL     1      -0.789   7.917  22.113  0.00  0.00    +0.000 HD
ENDBRANCH  21  22
ENDBRANCH   1  21
TORSDOF 3
ENDMDL
MODEL 4
REMARK VINA RESULT:      -7.8      4.168      6.081
REMARK  Name = 
REMARK  3 active torsions:
REMARK  status: ('A' for Active; 'I' for Inactive)
REMARK    1  A    between atoms: C_2  and  O_3
REMARK    2  A    between atoms: C_2  and  C_4
REMARK    3  A    between atoms: C_13  and  C_14
REMARK                            x       y       z     vdW  Elec       q    Type
REMARK                         _______ _______ _______ _____ _____    ______ ____
ROOT
ATOM      1  C   UNL     1       1.449   8.021  20.729  0.00  0.00    +0.000 A 
ATOM      2  C   UNL     1       1.643   8.691  19.521  0.00  0.00    +0.000 A 
ATOM      3  C   UNL     1       2.192   7.986  18.471  0.00  0.00    +0.000 A 
ATOM      4  N   UNL     1       2.588   6.702  18.574  0.00  0.00    +0.000 NA
ATOM      5  C   UNL     1       2.374   6.058  19.752  0.00  0.00    +0.000 A 
ATOM      6  N   UNL     1       2.911   4.744  19.929  0.00  0.00    +0.000 N 
ATOM      7  N   UNL     1       2.302   3.869  20.782  0.00  0.00    +0.000 NA
ATOM      8  C   UNL     1       2.918   2.712  20.555  0.00  0.00    +0.000 A 
ATOM      9  C   UNL     1       4.028   2.856  19.710  0.00  0.00    +0.000 A 
ATOM     10  C   UNL     1       4.080   4.202  19.379  0.00  0.00    +0.000 A 
ATOM     11  C   UNL     1       1.760   6.666  20.841  0.00  0.00    +0.000 A 
ENDROOT
BRANCH  10  12
ATOM     12  C   UNL     1       5.150   4.942  18.682  0.00  0.00    +0.000 A 
ATOM     13  C   UNL     1       6.319   5.364  19.346  0.00  0.00    +0.000 A 
ATOM     14  C   UNL     1       7.305   6.108  18.694  0.00  0.00    +0.000 A 
ATOM     15  C   UNL     1       7.171   6.372  17.343  0.00  0.00    +0.000 A 
ATOM     16  F   UNL     1       8.120   7.076  16.709  0.00  0.00    +0.000 F 
ATOM     17  C   UNL     1       6.065   5.899  16.648  0.00  0.00    +0.000 A 
ATOM     18  F   UNL     1       5.958   6.117  15.330  0.00  0.00    +0.000 F 
ATOM     19  C   UNL     1       5.056   5.195  17.307  0.00  0.00    +0.000 A 
ENDBRANCH  10  12
BRANCH   1  21
ATOM     20  O   UNL     1      -0.255   9.061  22.003  0.00  0.00    +0.000 OA
ATOM     21  C   UNL     1       0.931   8.798  21.874  0.00  0.00    +0.000 C 
BRANCH  21  22
ATOM     22  O   UNL     1       1.887   9.258  22.706  0.00  0.00    +0.000 OA
ATOM     23  H   UNL     1       2.805   9.013  22.486  0.00  0.00    +0.000 HD
ENDBRANCH  21  22
ENDBRANCH   1  21
TORSDOF 3
ENDMDL
MODEL 5
REMARK VINA RESULT:      -7.7      4.294      6.105
REMARK  Name = 
REMARK  3 active torsions:
REMARK  status: ('A' for Active; 'I' for Inactive)
REMARK    1  A    between atoms: C_2  and  O_3
REMARK    2  A    between atoms: C_2  and  C_4
REMARK    3  A    between atoms: C_13  and  C_14
REMARK                            x       y       z     vdW  Elec       q    Type
REMARK                         _______ _______ _______ _____ _____    ______ ____
ROOT
ATOM      1  C   UNL     1       1.528   8.242  20.467  0.00  0.00    +0.000 A 
ATOM      2  C   UNL     1       1.674   8.669  19.147  0.00  0.00    +0.000 A 
ATOM      3  C   UNL     1       2.063   7.740  18.206  0.00  0.00    +0.000 A 
ATOM      4  N   UNL     1       2.350   6.459  18.511  0.00  0.00    +0.000 NA
ATOM      5  C   UNL     1       2.183   6.054  19.798  0.00  0.00    +0.000 A 
ATOM      6  N   UNL     1       2.615   4.742  20.171  0.00  0.00    +0.000 N 
ATOM      7  N   UNL     1       2.007   4.096  21.209  0.00  0.00    +0.000 NA
ATOM      8  C   UNL     1       2.495   2.859  21.152  0.00  0.00    +0.000 A 
ATOM      9  C   UNL     1       3.533   2.739  20.219  0.00  0.00    +0.000 A 
ATOM     10  C   UNL     1       3.676   3.995  19.646  0.00  0.00    +0.000 A 
ATOM     11  C   UNL     1       1.725   6.901  20.800  0.00  0.00    +0.000 A 
ENDROOT
BRANCH  10  12
ATOM     12  C   UNL     1       4.743   4.487  18.753  0.00  0.00    +0.000 A 
ATOM     13  C   UNL     1       5.808   5.278  19.229  0.00  0.00    +0.000 A 
ATOM     14  C   UNL     1       6.786   5.784  18.370  0.00  0.00    +0.000 A 
ATOM     15  C   UNL     1       6.756   5.438  17.031  0.00  0.00    +0.000 A 
ATOM     16  F   UNL     1       7.699   5.911  16.204  0.00  0.00    +0.000 F 
ATOM     17  C   UNL     1       5.761   4.595  16.553  0.00  0.00    +0.000 A 
ATOM     18  F   UNL     1       5.759   4.224  15.265  0.00  0.00    +0.000 F 
ATOM     19  C   UNL     1       4.756   4.126  17.399  0.00  0.00    +0.000 A 
ENDBRANCH  10  12
BRANCH   1  21
ATOM     20  O   UNL     1       1.759   9.319  22.564  0.00  0.00    +0.000 OA
ATOM     21  C   UNL     1       1.184   9.254  21.487  0.00  0.00    +0.000 C 
BRANCH  21  22
ATOM     22  O   UNL     1       0.134  10.033  21.160  0.00  0.00    +0.000 OA
ATOM     23  H   UNL     1      -0.117  10.045  20.217  0.00  0.00    +0.000 HD
ENDBRANCH  21  22
ENDBRANCH   1  21
TORSDOF 3
ENDMDL
MODEL 6
REMARK VINA RESULT:      -7.7      4.181      6.166
REMARK  Name = 
REMARK  3 active torsions:
REMARK  status: ('A' for Active; 'I' for Inactive)
REMARK    1  A    between atoms: C_2  and  O_3
REMARK    2  A    between atoms: C_2  and  C_4
REMARK    3  A    between atoms: C_13  and  C_14
REMARK                            x       y       z     vdW  Elec       q    Type
REMARK                         _______ _______ _______ _____ _____    ______ ____
ROOT
ATOM      1  C   UNL     1       1.516   8.096  20.646  0.00  0.00    +0.000 A 
ATOM      2  C   UNL     1       1.867   8.674  19.427  0.00  0.00    +0.000 A 
ATOM      3  C   UNL     1       2.207   7.835  18.387  0.00  0.00    +0.000 A 
ATOM      4  N   UNL     1       2.260   6.494  18.511  0.00  0.00    +0.000 NA
ATOM      5  C   UNL     1       1.896   5.946  19.701  0.00  0.00    +0.000 A 
ATOM      6  N   UNL     1       2.078   4.541  19.899  0.00  0.00    +0.000 N 
ATOM      7  N   UNL     1       1.271   3.866  20.768  0.00  0.00    +0.000 NA
ATOM      8  C   UNL     1       1.566   2.585  20.560  0.00  0.00    +0.000 A 
ATOM      9  C   UNL     1       2.668   2.425  19.709  0.00  0.00    +0.000 A 
ATOM     10  C   UNL     1       3.063   3.708  19.353  0.00  0.00    +0.000 A 
ATOM     11  C   UNL     1       1.468   6.708  20.781  0.00  0.00    +0.000 A 
ENDROOT
BRANCH  10  12
ATOM     12  C   UNL     1       4.282   4.134  18.640  0.00  0.00    +0.000 A 
ATOM     13  C   UNL     1       4.453   3.917  17.259  0.00  0.00    +0.000 A 
ATOM     14  C   UNL     1       5.631   4.276  16.600  0.00  0.00    +0.000 A 
ATOM     15  C   UNL     1       6.626   4.933  17.302  0.00  0.00    +0.000 A 
ATOM     16  F   UNL     1       7.753   5.291  16.672  0.00  0.00    +0.000 F 
ATOM     17  C   UNL     1       6.448   5.230  18.647  0.00  0.00    +0.000 A 
ATOM     18  F   UNL     1       7.393   5.906  19.315  0.00  0.00    +0.000 F 
ATOM     19  C   UNL     1       5.292   4.831  19.319  0.00  0.00    +0.000 A 
ENDBRANCH  10  12
BRANCH   1  21
ATOM     20  O   UNL     1       0.169   9.606  21.879  0.00  0.00    +0.000 OA
ATOM     21  C   UNL     1       1.225   8.998  21.781  0.00  0.00    +0.000 C 
BRANCH  21  22
ATOM     22  O   UNL     1       2.253   9.156  22.638  0.00  0.00    +0.000 OA
ATOM     23  H   UNL     1       2.277   8.548  23.400  0.00  0.00    +0.000 HD
ENDBRANCH  21  22
ENDBRANCH   1  21
TORSDOF 3
ENDMDL
MODEL 7
REMARK VINA RESULT:      -7.6      4.480      6.387
REMARK  Name = 
REMARK  3 active torsions:
REMARK  status: ('A' for Active; 'I' for Inactive)
REMARK    1  A    between atoms: C_2  and  O_3
REMARK    2  A    between atoms: C_2  and  C_4
REMARK    3  A    between atoms: C_13  and  C_14
REMARK                            x       y       z     vdW  Elec       q    Type
REMARK                         _______ _______ _______ _____ _____    ______ ____
ROOT
ATOM      1  C   UNL     1       0.406   9.731  18.743  0.00  0.00    +0.000 A 
ATOM      2  C   UNL     1       0.249   9.534  20.115  0.00  0.00    +0.000 A 
ATOM      3  C   UNL     1       1.096   8.646  20.742  0.00  0.00    +0.000 A 
ATOM      4  N   UNL     1       2.031   7.931  20.085  0.00  0.00    +0.000 NA
ATOM      5  C   UNL     1       2.184   8.150  18.752  0.00  0.00    +0.000 A 
ATOM      6  N   UNL     1       3.070   7.306  18.010  0.00  0.00    +0.000 N 
ATOM      7  N   UNL     1       3.678   7.780  16.884  0.00  0.00    +0.000 NA
ATOM      8  C   UNL     1       4.564   6.838  16.572  0.00  0.00    +0.000 A 
ATOM      9  C   UNL     1       4.420   5.689  17.361  0.00  0.00    +0.000 A 
ATOM     10  C   UNL     1       3.379   5.959  18.238  0.00  0.00    +0.000 A 
ATOM     11  C   UNL     1       1.426   9.079  18.050  0.00  0.00    +0.000 A 
ENDROOT
BRANCH  10  12
ATOM     12  C   UNL     1       2.677   5.036  19.151  0.00  0.00    +0.000 A 
ATOM     13  C   UNL     1       2.908   5.042  20.541  0.00  0.00    +0.000 A 
ATOM     14  C   UNL     1       2.280   4.131  21.393  0.00  0.00    +0.000 A 
ATOM     15  C   UNL     1       1.347   3.251  20.873  0.00  0.00    +0.000 A 
ATOM     16  F   UNL     1       0.732   2.382  21.688  0.00  0.00    +0.000 F 
ATOM     17  C   UNL     1       1.044   3.279  19.518  0.00  0.00    +0.000 A 
ATOM     18  F   UNL     1       0.108   2.456  19.024  0.00  0.00    +0.000 F 
ATOM     19  C   UNL     1       1.704   4.155  18.657  0.00  0.00    +0.000 A 
ENDBRANCH  10  12
BRANCH   1  21
ATOM     20  O   UNL     1      -1.516  10.202  17.441  0.00  0.00    +0.000 OA
ATOM     21  C   UNL     1      -0.551  10.626  18.060  0.00  0.00    +0.000 C 
BRANCH  21  22
ATOM     22  O   UNL     1      -0.216  11.931  18.106  0.00  0.00    +0.000 OA
ATOM     23  H   UNL     1      -0.923  12.550  18.367  0.00  0.00    +0.000 HD
ENDBRANCH  21  22
ENDBRANCH   1  21
TORSDOF 3
ENDMDL
MODEL 8
REMARK VINA RESULT:      -7.5      3.472      5.038
REMARK  Name = 
REMARK  3 active torsions:
REMARK  status: ('A' for Active; 'I' for Inactive)
REMARK    1  A    between atoms: C_2  and  O_3
REMARK    2  A    between atoms: C_2  and  C_4
REMARK    3  A    between atoms: C_13  and  C_14
REMARK                            x       y       z     vdW  Elec       q    Type
REMARK                         _______ _______ _______ _____ _____    ______ ____
ROOT
ATOM      1  C   UNL     1       8.003   7.487  18.272  0.00  0.00    +0.000 A 
ATOM      2  C   UNL     1       7.922   6.763  19.461  0.00  0.00    +0.000 A 
ATOM      3  C   UNL     1       7.472   5.462  19.396  0.00  0.00    +0.000 A 
ATOM      4  N   UNL     1       7.066   4.879  18.250  0.00  0.00    +0.000 NA
ATOM      5  C   UNL     1       7.170   5.593  17.097  0.00  0.00    +0.000 A 
ATOM      6  N   UNL     1       6.617   5.048  15.896  0.00  0.00    +0.000 N 
ATOM      7  N   UNL     1       7.144   5.396  14.686  0.00  0.00    +0.000 NA
ATOM      8  C   UNL     1       6.550   4.575  13.823  0.00  0.00    +0.000 A 
ATOM      9  C   UNL     1       5.524   3.830  14.420  0.00  0.00    +0.000 A 
ATOM     10  C   UNL     1       5.504   4.210  15.754  0.00  0.00    +0.000 A 
ATOM     11  C   UNL     1       7.682   6.884  17.055  0.00  0.00    +0.000 A 
ENDROOT
BRANCH  10  12
ATOM     12  C   UNL     1       4.503   3.892  16.790  0.00  0.00    +0.000 A 
ATOM     13  C   UNL     1       3.624   4.866  17.303  0.00  0.00    +0.000 A 
ATOM     14  C   UNL     1       2.714   4.571  18.321  0.00  0.00    +0.000 A 
ATOM     15  C   UNL     1       2.617   3.272  18.785  0.00  0.00    +0.000 A 
ATOM     16  F   UNL     1       1.737   2.981  19.754  0.00  0.00    +0.000 F 
ATOM     17  C   UNL     1       3.418   2.277  18.241  0.00  0.00    +0.000 A 
ATOM     18  F   UNL     1       3.291   1.010  18.660  0.00  0.00    +0.000 F 
ATOM     19  C   UNL     1       4.360   2.577  17.257  0.00  0.00    +0.000 A 
ENDBRANCH  10  12
BRANCH   1  21
ATOM     20  O   UNL     1       8.083   9.730  17.515  0.00  0.00    +0.000 OA
ATOM     21  C   UNL     1       8.414   8.905  18.353  0.00  0.00    +0.000 C 
BRANCH  21  22
ATOM     22  O   UNL     1       9.251   9.178  19.373  0.00  0.00    +0.000 OA
ATOM     23  H   UNL     1       9.391   8.463  20.021  0.00  0.00    +0.000 HD
ENDBRANCH  21  22
ENDBRANCH   1  21
TORSDOF 3
ENDMDL
MODEL 9
REMARK VINA RESULT:      -7.5      3.086      4.737
REMARK  Name = 
REMARK  3 active torsions:
REMARK  status: ('A' for Active; 'I' for Inactive)
REMARK    1  A    between atoms: C_2  and  O_3
REMARK    2  A    between atoms: C_2  and  C_4
REMARK    3  A    between atoms: C_13  and  C_14
REMARK                            x       y       z     vdW  Elec       q    Type
REMARK                         _______ _______ _______ _____ _____    ______ ____
ROOT
ATOM      1  C   UNL     1       7.952   7.377  18.239  0.00  0.00    +0.000 A 
ATOM      2  C   UNL     1       7.905   6.645  19.426  0.00  0.00    +0.000 A 
ATOM      3  C   UNL     1       7.450   5.346  19.366  0.00  0.00    +0.000 A 
ATOM      4  N   UNL     1       7.009   4.771  18.229  0.00  0.00    +0.000 NA
ATOM      5  C   UNL     1       7.080   5.492  17.078  0.00  0.00    +0.000 A 
ATOM      6  N   UNL     1       6.490   4.957  15.890  0.00  0.00    +0.000 N 
ATOM      7  N   UNL     1       6.982   5.312  14.667  0.00  0.00    +0.000 NA
ATOM      8  C   UNL     1       6.361   4.498  13.817  0.00  0.00    +0.000 A 
ATOM      9  C   UNL     1       5.351   3.750  14.439  0.00  0.00    +0.000 A 
ATOM     10  C   UNL     1       5.372   4.122  15.776  0.00  0.00    +0.000 A 
ATOM     11  C   UNL     1       7.593   6.783  17.029  0.00  0.00    +0.000 A 
ENDROOT
BRANCH  10  12
ATOM     12  C   UNL     1       4.402   3.799  16.840  0.00  0.00    +0.000 A 
ATOM     13  C   UNL     1       4.298   2.505  17.387  0.00  0.00    +0.000 A 
ATOM     14  C   UNL     1       3.342   2.192  18.356  0.00  0.00    +0.000 A 
ATOM     15  C   UNL     1       2.527   3.195  18.851  0.00  0.00    +0.000 A 
ATOM     16  F   UNL     1       1.617   2.904  19.791  0.00  0.00    +0.000 F 
ATOM     17  C   UNL     1       2.665   4.496  18.384  0.00  0.00    +0.000 A 
ATOM     18  F   UNL     1       1.906   5.475  18.896  0.00  0.00    +0.000 F 
ATOM     19  C   UNL     1       3.586   4.801  17.383  0.00  0.00    +0.000 A 
ENDBRANCH  10  12
BRANCH   1  21
ATOM     20  O   UNL     1       8.048   9.617  17.473  0.00  0.00    +0.000 OA
ATOM     21  C   UNL     1       8.368   8.794  18.317  0.00  0.00    +0.000 C 
BRANCH  21  22
ATOM     22  O   UNL     1       9.197   9.069  19.344  0.00  0.00    +0.000 OA
ATOM     23  H   UNL     1       9.790   9.834  19.227  0.00  0.00    +0.000 HD
ENDBRANCH  21  22
ENDBRANCH   1  21
TORSDOF 3
ENDMDL
