MODEL 1
REMARK VINA RESULT:      -8.6      0.000      0.000
REMARK  Name = 
REMARK  4 active torsions:
REMARK  status: ('A' for Active; 'I' for Inactive)
REMARK    1  A    between atoms: O_1  and  C_2
REMARK    2  A    between atoms: C_8  and  N_9
REMARK    3  A    between atoms: C_13  and  C_14
REMARK    4  A    between atoms: C_17  and  C_18
REMARK                            x       y       z     vdW  Elec       q    Type
REMARK                         _______ _______ _______ _____ _____    ______ ____
ROOT
ATOM      1  N   UNL     1       4.284   3.842  19.107  0.00  0.00    +0.000 N 
ATOM      2  C   UNL     1       4.211   2.582  19.652  0.00  0.00    +0.000 A 
ATOM      3  N   UNL     1       3.312   2.539  20.605  0.00  0.00    +0.000 NA
ATOM      4  N   UNL     1       2.723   3.771  20.669  0.00  0.00    +0.000 NA
ATOM      5  C   UNL     1       3.251   4.546  19.730  0.00  0.00    +0.000 A 
ENDROOT
BRANCH   1  12
ATOM      6  C   UNL     1       6.392   4.993  18.557  0.00  0.00    +0.000 A 
ATOM      7  C   UNL     1       7.371   5.338  17.622  0.00  0.00    +0.000 A 
ATOM      8  C   UNL     1       7.209   4.988  16.280  0.00  0.00    +0.000 A 
ATOM      9  C   UNL     1       6.056   4.327  15.872  0.00  0.00    +0.000 A 
ATOM     10 CL   UNL     1       5.865   3.879  14.223  0.00  0.00    +0.000 Cl
ATOM     11  C   UNL     1       5.064   3.998  16.795  0.00  0.00    +0.000 A 
ATOM     12  C   UNL     1       5.244   4.294  18.158  0.00  0.00    +0.000 A 
BRANCH   6  13
ATOM     13  O   UNL     1       6.615   5.275  19.874  0.00  0.00    +0.000 OA
ATOM     14  H   UNL     1       7.569   5.372  20.035  0.00  0.00    +0.000 HD
ENDBRANCH   6  13
ENDBRANCH   1  12
BRANCH   5  15
ATOM     15  C   UNL     1       2.740   5.884  19.396  0.00  0.00    +0.000 A 
ATOM     16  C   UNL     1       2.139   6.663  20.394  0.00  0.00    +0.000 A 
ATOM     17  C   UNL     1       1.685   7.960  20.118  0.00  0.00    +0.000 A 
ATOM     18  C   UNL     1       1.829   8.506  18.835  0.00  0.00    +0.000 A 
ATOM     19  C   UNL     1       2.393   7.714  17.826  0.00  0.00    +0.000 A 
ATOM     20  C   UNL     1       2.808   6.409  18.098  0.00  0.00    +0.000 A 
BRANCH  18  21
ATOM     21  C   UNL     1       1.391   9.915  18.521  0.00  0.00    +0.000 C 
ATOM     22  F   UNL     1       2.294  10.620  17.785  0.00  0.00    +0.000 F 
ATOM     23  F   UNL     1       0.226   9.948  17.814  0.00  0.00    +0.000 F 
ATOM     24  F   UNL     1       1.166  10.653  19.643  0.00  0.00    +0.000 F 
ENDBRANCH  18  21
ENDBRANCH   5  15
TORSDOF 4
ENDMDL
MODEL 2
REMARK VINA RESULT:      -8.5      0.123      1.275
REMARK  Name = 
REMARK  4 active torsions:
REMARK  status: ('A' for Active; 'I' for Inactive)
REMARK    1  A    between atoms: O_1  and  C_2
REMARK    2  A    between atoms: C_8  and  N_9
REMARK    3  A    between atoms: C_13  and  C_14
REMARK    4  A    between atoms: C_17  and  C_18
REMARK                            x       y       z     vdW  Elec       q    Type
REMARK                         _______ _______ _______ _____ _____    ______ ____
ROOT
ATOM      1  N   UNL     1       4.250   3.805  19.025  0.00  0.00    +0.000 N 
ATOM      2  C   UNL     1       4.112   2.533  19.527  0.00  0.00    +0.000 A 
ATOM      3  N   UNL     1       3.211   2.504  20.478  0.00  0.00    +0.000 NA
ATOM      4  N   UNL     1       2.686   3.760  20.585  0.00  0.00    +0.000 NA
ATOM      5  C   UNL     1       3.254   4.539  19.673  0.00  0.00    +0.000 A 
ENDROOT
BRANCH   1  12
ATOM      6  C   UNL     1       6.387   4.919  18.509  0.00  0.00    +0.000 A 
ATOM      7  C   UNL     1       7.386   5.246  17.589  0.00  0.00    +0.000 A 
ATOM      8  C   UNL     1       7.240   4.898  16.245  0.00  0.00    +0.000 A 
ATOM      9  C   UNL     1       6.082   4.257  15.819  0.00  0.00    +0.000 A 
ATOM     10 CL   UNL     1       5.910   3.811  14.167  0.00  0.00    +0.000 Cl
ATOM     11  C   UNL     1       5.070   3.946  16.726  0.00  0.00    +0.000 A 
ATOM     12  C   UNL     1       5.234   4.240  18.091  0.00  0.00    +0.000 A 
BRANCH   6  13
ATOM     13  O   UNL     1       6.593   5.198  19.829  0.00  0.00    +0.000 OA
ATOM     14  H   UNL     1       5.931   5.842  20.138  0.00  0.00    +0.000 HD
ENDBRANCH   6  13
ENDBRANCH   1  12
BRANCH   5  15
ATOM     15  C   UNL     1       2.813   5.913  19.386  0.00  0.00    +0.000 A 
ATOM     16  C   UNL     1       3.037   6.459  18.115  0.00  0.00    +0.000 A 
ATOM     17  C   UNL     1       2.588   7.746  17.795  0.00  0.00    +0.000 A 
ATOM     18  C   UNL     1       1.897   8.514  18.743  0.00  0.00    +0.000 A 
ATOM     19  C   UNL     1       1.708   7.987  20.027  0.00  0.00    +0.000 A 
ATOM     20  C   UNL     1       2.192   6.718  20.351  0.00  0.00    +0.000 A 
BRANCH  18  21
ATOM     21  C   UNL     1       1.363   9.886  18.413  0.00  0.00    +0.000 C 
ATOM     22  F   UNL     1       0.214   9.866  17.681  0.00  0.00    +0.000 F 
ATOM     23  F   UNL     1       1.081  10.613  19.531  0.00  0.00    +0.000 F 
ATOM     24  F   UNL     1       2.248  10.632  17.698  0.00  0.00    +0.000 F 
ENDBRANCH  18  21
ENDBRANCH   5  15
TORSDOF 4
ENDMDL
MODEL 3
REMARK VINA RESULT:      -8.4      4.574      6.716
REMARK  Name = 
REMARK  4 active torsions:
REMARK  status: ('A' for Active; 'I' for Inactive)
REMARK    1  A    between atoms: O_1  and  C_2
REMARK    2  A    between atoms: C_8  and  N_9
REMARK    3  A    between atoms: C_13  and  C_14
REMARK    4  A    between atoms: C_17  and  C_18
REMARK                            x       y       z     vdW  Elec       q    Type
REMARK                         _______ _______ _______ _____ _____    ______ ____
ROOT
ATOM      1  N   UNL     1       5.909   4.992  18.613  0.00  0.00    +0.000 N 
ATOM      2  C   UNL     1       6.650   5.388  19.701  0.00  0.00    +0.000 A 
ATOM      3  N   UNL     1       7.932   5.272  19.457  0.00  0.00    +0.000 NA
ATOM      4  N   UNL     1       8.068   4.848  18.166  0.00  0.00    +0.000 NA
ATOM      5  C   UNL     1       6.862   4.738  17.624  0.00  0.00    +0.000 A 
ENDROOT
BRANCH   1  12
ATOM      6  C   UNL     1       3.670   5.852  18.046  0.00  0.00    +0.000 A 
ATOM      7  C   UNL     1       2.295   5.644  17.917  0.00  0.00    +0.000 A 
ATOM      8  C   UNL     1       1.731   4.428  18.306  0.00  0.00    +0.000 A 
ATOM      9  C   UNL     1       2.538   3.438  18.856  0.00  0.00    +0.000 A 
ATOM     10 CL   UNL     1       1.847   1.932  19.319  0.00  0.00    +0.000 Cl
ATOM     11  C   UNL     1       3.908   3.644  19.011  0.00  0.00    +0.000 A 
ATOM     12  C   UNL     1       4.493   4.843  18.567  0.00  0.00    +0.000 A 
BRANCH   6  13
ATOM     13  O   UNL     1       4.205   7.018  17.582  0.00  0.00    +0.000 OA
ATOM     14  H   UNL     1       3.514   7.550  17.150  0.00  0.00    +0.000 HD
ENDBRANCH   6  13
ENDBRANCH   1  12
BRANCH   5  15
ATOM     15  C   UNL     1       6.632   4.468  16.196  0.00  0.00    +0.000 A 
ATOM     16  C   UNL     1       7.452   5.076  15.237  0.00  0.00    +0.000 A 
ATOM     17  C   UNL     1       7.288   4.803  13.873  0.00  0.00    +0.000 A 
ATOM     18  C   UNL     1       6.299   3.908  13.440  0.00  0.00    +0.000 A 
ATOM     19  C   UNL     1       5.452   3.330  14.394  0.00  0.00    +0.000 A 
ATOM     20  C   UNL     1       5.595   3.636  15.748  0.00  0.00    +0.000 A 
BRANCH  18  21
ATOM     21  C   UNL     1       6.129   3.560  11.982  0.00  0.00    +0.000 C 
ATOM     22  F   UNL     1       4.850   3.691  11.533  0.00  0.00    +0.000 F 
ATOM     23  F   UNL     1       6.892   4.346  11.171  0.00  0.00    +0.000 F 
ATOM     24  F   UNL     1       6.492   2.278  11.706  0.00  0.00    +0.000 F 
ENDBRANCH  18  21
ENDBRANCH   5  15
TORSDOF 4
ENDMDL
MODEL 4
REMARK VINA RESULT:      -8.4      3.722      4.971
REMARK  Name = 
REMARK  4 active torsions:
REMARK  status: ('A' for Active; 'I' for Inactive)
REMARK    1  A    between atoms: O_1  and  C_2
REMARK    2  A    between atoms: C_8  and  N_9
REMARK    3  A    between atoms: C_13  and  C_14
REMARK    4  A    between atoms: C_17  and  C_18
REMARK                            x       y       z     vdW  Elec       q    Type
REMARK                         _______ _______ _______ _____ _____    ______ ____
ROOT
ATOM      1  N   UNL     1       6.380   5.222  15.937  0.00  0.00    +0.000 N 
ATOM      2  C   UNL     1       6.850   5.116  14.650  0.00  0.00    +0.000 A 
ATOM      3  N   UNL     1       6.135   4.258  13.963  0.00  0.00    +0.000 NA
ATOM      4  N   UNL     1       5.129   3.819  14.777  0.00  0.00    +0.000 NA
ATOM      5  C   UNL     1       5.223   4.439  15.946  0.00  0.00    +0.000 A 
ENDROOT
BRANCH   1  12
ATOM      6  C   UNL     1       7.488   5.286  18.137  0.00  0.00    +0.000 A 
ATOM      7  C   UNL     1       8.177   6.000  19.121  0.00  0.00    +0.000 A 
ATOM      8  C   UNL     1       8.377   7.373  18.978  0.00  0.00    +0.000 A 
ATOM      9  C   UNL     1       7.857   8.036  17.871  0.00  0.00    +0.000 A 
ATOM     10 CL   UNL     1       8.120   9.725  17.685  0.00  0.00    +0.000 Cl
ATOM     11  C   UNL     1       7.149   7.336  16.895  0.00  0.00    +0.000 A 
ATOM     12  C   UNL     1       6.994   5.943  17.001  0.00  0.00    +0.000 A 
BRANCH   6  13
ATOM     13  O   UNL     1       7.379   3.932  18.263  0.00  0.00    +0.000 OA
ATOM     14  H   UNL     1       6.639   3.608  17.720  0.00  0.00    +0.000 HD
ENDBRANCH   6  13
ENDBRANCH   1  12
BRANCH   5  15
ATOM     15  C   UNL     1       4.208   4.340  17.005  0.00  0.00    +0.000 A 
ATOM     16  C   UNL     1       3.847   3.079  17.501  0.00  0.00    +0.000 A 
ATOM     17  C   UNL     1       2.918   2.954  18.542  0.00  0.00    +0.000 A 
ATOM     18  C   UNL     1       2.333   4.093  19.114  0.00  0.00    +0.000 A 
ATOM     19  C   UNL     1       2.662   5.351  18.593  0.00  0.00    +0.000 A 
ATOM     20  C   UNL     1       3.558   5.466  17.530  0.00  0.00    +0.000 A 
BRANCH  18  21
ATOM     21  C   UNL     1       1.364   3.991  20.266  0.00  0.00    +0.000 C 
ATOM     22  F   UNL     1       1.908   3.460  21.396  0.00  0.00    +0.000 F 
ATOM     23  F   UNL     1       0.863   5.205  20.628  0.00  0.00    +0.000 F 
ATOM     24  F   UNL     1       0.284   3.216  19.971  0.00  0.00    +0.000 F 
ENDBRANCH  18  21
ENDBRANCH   5  15
TORSDOF 4
ENDMDL
MODEL 5
REMARK VINA RESULT:      -8.4      3.843      5.047
REMARK  Name = 
REMARK  4 active torsions:
REMARK  status: ('A' for Active; 'I' for Inactive)
REMARK    1  A    between atoms: O_1  and  C_2
REMARK    2  A    between atoms: C_8  and  N_9
REMARK    3  A    between atoms: C_13  and  C_14
REMARK    4  A    between atoms: C_17  and  C_18
REMARK                            x       y       z     vdW  Elec       q    Type
REMARK                         _______ _______ _______ _____ _____    ______ ____
ROOT
ATOM      1  N   UNL     1       6.352   5.174  15.895  0.00  0.00    +0.000 N 
ATOM      2  C   UNL     1       6.793   5.147  14.593  0.00  0.00    +0.000 A 
ATOM      3  N   UNL     1       6.101   4.287  13.886  0.00  0.00    +0.000 NA
ATOM      4  N   UNL     1       5.138   3.765  14.703  0.00  0.00    +0.000 NA
ATOM      5  C   UNL     1       5.234   4.337  15.896  0.00  0.00    +0.000 A 
ENDROOT
BRANCH   1  12
ATOM      6  C   UNL     1       7.445   5.198  18.104  0.00  0.00    +0.000 A 
ATOM      7  C   UNL     1       8.128   5.893  19.105  0.00  0.00    +0.000 A 
ATOM      8  C   UNL     1       8.331   7.269  18.987  0.00  0.00    +0.000 A 
ATOM      9  C   UNL     1       7.820   7.951  17.888  0.00  0.00    +0.000 A 
ATOM     10 CL   UNL     1       8.086   9.643  17.733  0.00  0.00    +0.000 Cl
ATOM     11  C   UNL     1       7.117   7.269  16.895  0.00  0.00    +0.000 A 
ATOM     12  C   UNL     1       6.960   5.875  16.976  0.00  0.00    +0.000 A 
BRANCH   6  13
ATOM     13  O   UNL     1       7.334   3.842  18.205  0.00  0.00    +0.000 OA
ATOM     14  H   UNL     1       6.504   3.546  17.791  0.00  0.00    +0.000 HD
ENDBRANCH   6  13
ENDBRANCH   1  12
BRANCH   5  15
ATOM     15  C   UNL     1       4.252   4.142  16.974  0.00  0.00    +0.000 A 
ATOM     16  C   UNL     1       3.565   5.249  17.491  0.00  0.00    +0.000 A 
ATOM     17  C   UNL     1       2.591   5.091  18.485  0.00  0.00    +0.000 A 
ATOM     18  C   UNL     1       2.280   3.816  18.980  0.00  0.00    +0.000 A 
ATOM     19  C   UNL     1       2.994   2.714  18.494  0.00  0.00    +0.000 A 
ATOM     20  C   UNL     1       3.990   2.883  17.531  0.00  0.00    +0.000 A 
BRANCH  18  21
ATOM     21  C   UNL     1       1.204   3.611  20.018  0.00  0.00    +0.000 C 
ATOM     22  F   UNL     1       0.626   4.768  20.446  0.00  0.00    +0.000 F 
ATOM     23  F   UNL     1       0.185   2.832  19.559  0.00  0.00    +0.000 F 
ATOM     24  F   UNL     1       1.672   2.992  21.137  0.00  0.00    +0.000 F 
ENDBRANCH  18  21
ENDBRANCH   5  15
TORSDOF 4
ENDMDL
MODEL 6
REMARK VINA RESULT:      -8.3      4.417      6.650
REMARK  Name = 
REMARK  4 active torsions:
REMARK  status: ('A' for Active; 'I' for Inactive)
REMARK    1  A    between atoms: O_1  and  C_2
REMARK    2  A    between atoms: C_8  and  N_9
REMARK    3  A    between atoms: C_13  and  C_14
REMARK    4  A    between atoms: C_17  and  C_18
REMARK                            x       y       z     vdW  Elec       q    Type
REMARK                         _______ _______ _______ _____ _____    ______ ____
ROOT
ATOM      1  N   UNL     1       6.122   5.229  18.637  0.00  0.00    +0.000 N 
ATOM      2  C   UNL     1       6.972   5.515  19.678  0.00  0.00    +0.000 A 
ATOM      3  N   UNL     1       8.191   5.116  19.406  0.00  0.00    +0.000 NA
ATOM      4  N   UNL     1       8.182   4.606  18.139  0.00  0.00    +0.000 NA
ATOM      5  C   UNL     1       6.960   4.728  17.638  0.00  0.00    +0.000 A 
ENDROOT
BRANCH   1  12
ATOM      6  C   UNL     1       3.864   4.385  19.149  0.00  0.00    +0.000 A 
ATOM      7  C   UNL     1       2.486   4.598  19.235  0.00  0.00    +0.000 A 
ATOM      8  C   UNL     1       1.939   5.811  18.811  0.00  0.00    +0.000 A 
ATOM      9  C   UNL     1       2.765   6.790  18.270  0.00  0.00    +0.000 A 
ATOM     10 CL   UNL     1       2.094   8.291  17.766  0.00  0.00    +0.000 Cl
ATOM     11  C   UNL     1       4.139   6.577  18.160  0.00  0.00    +0.000 A 
ATOM     12  C   UNL     1       4.706   5.383  18.639  0.00  0.00    +0.000 A 
BRANCH   6  13
ATOM     13  O   UNL     1       4.381   3.224  19.646  0.00  0.00    +0.000 OA
ATOM     14  H   UNL     1       5.117   2.922  19.086  0.00  0.00    +0.000 HD
ENDBRANCH   6  13
ENDBRANCH   1  12
BRANCH   5  15
ATOM     15  C   UNL     1       6.621   4.439  16.236  0.00  0.00    +0.000 A 
ATOM     16  C   UNL     1       7.403   4.986  15.209  0.00  0.00    +0.000 A 
ATOM     17  C   UNL     1       7.135   4.692  13.866  0.00  0.00    +0.000 A 
ATOM     18  C   UNL     1       6.077   3.838  13.522  0.00  0.00    +0.000 A 
ATOM     19  C   UNL     1       5.269   3.324  14.544  0.00  0.00    +0.000 A 
ATOM     20  C   UNL     1       5.518   3.651  15.878  0.00  0.00    +0.000 A 
BRANCH  18  21
ATOM     21  C   UNL     1       5.792   3.469  12.087  0.00  0.00    +0.000 C 
ATOM     22  F   UNL     1       5.972   2.147  11.815  0.00  0.00    +0.000 F 
ATOM     23  F   UNL     1       4.510   3.754  11.725  0.00  0.00    +0.000 F 
ATOM     24  F   UNL     1       6.585   4.142  11.209  0.00  0.00    +0.000 F 
ENDBRANCH  18  21
ENDBRANCH   5  15
TORSDOF 4
ENDMDL
MODEL 7
REMARK VINA RESULT:      -8.2      4.451      6.611
REMARK  Name = 
REMARK  4 active torsions:
REMARK  status: ('A' for Active; 'I' for Inactive)
REMARK    1  A    between atoms: O_1  and  C_2
REMARK    2  A    between atoms: C_8  and  N_9
REMARK    3  A    between atoms: C_13  and  C_14
REMARK    4  A    between atoms: C_17  and  C_18
REMARK                            x       y       z     vdW  Elec       q    Type
REMARK                         _______ _______ _______ _____ _____    ______ ____
ROOT
ATOM      1  N   UNL     1       6.005   5.084  18.675  0.00  0.00    +0.000 N 
ATOM      2  C   UNL     1       6.778   5.515  19.727  0.00  0.00    +0.000 A 
ATOM      3  N   UNL     1       8.051   5.344  19.468  0.00  0.00    +0.000 NA
ATOM      4  N   UNL     1       8.149   4.846  18.200  0.00  0.00    +0.000 NA
ATOM      5  C   UNL     1       6.931   4.746  17.685  0.00  0.00    +0.000 A 
ENDROOT
BRANCH   1  12
ATOM      6  C   UNL     1       3.787   5.960  18.052  0.00  0.00    +0.000 A 
ATOM      7  C   UNL     1       2.404   5.787  17.960  0.00  0.00    +0.000 A 
ATOM      8  C   UNL     1       1.807   4.635  18.475  0.00  0.00    +0.000 A 
ATOM      9  C   UNL     1       2.589   3.677  19.112  0.00  0.00    +0.000 A 
ATOM     10 CL   UNL     1       1.857   2.249  19.730  0.00  0.00    +0.000 Cl
ATOM     11  C   UNL     1       3.968   3.851  19.228  0.00  0.00    +0.000 A 
ATOM     12  C   UNL     1       4.585   4.980  18.660  0.00  0.00    +0.000 A 
BRANCH   6  13
ATOM     13  O   UNL     1       4.352   7.055  17.468  0.00  0.00    +0.000 OA
ATOM     14  H   UNL     1       3.821   7.846  17.664  0.00  0.00    +0.000 HD
ENDBRANCH   6  13
ENDBRANCH   1  12
BRANCH   5  15
ATOM     15  C   UNL     1       6.665   4.406  16.279  0.00  0.00    +0.000 A 
ATOM     16  C   UNL     1       5.666   3.474  15.969  0.00  0.00    +0.000 A 
ATOM     17  C   UNL     1       5.357   3.165  14.638  0.00  0.00    +0.000 A 
ATOM     18  C   UNL     1       6.042   3.788  13.586  0.00  0.00    +0.000 A 
ATOM     19  C   UNL     1       7.069   4.690  13.893  0.00  0.00    +0.000 A 
ATOM     20  C   UNL     1       7.398   4.965  15.221  0.00  0.00    +0.000 A 
BRANCH  18  21
ATOM     21  C   UNL     1       5.701   3.508  12.143  0.00  0.00    +0.000 C 
ATOM     22  F   UNL     1       4.427   3.849  11.804  0.00  0.00    +0.000 F 
ATOM     23  F   UNL     1       6.511   4.183  11.281  0.00  0.00    +0.000 F 
ATOM     24  F   UNL     1       5.833   2.191  11.824  0.00  0.00    +0.000 F 
ENDBRANCH  18  21
ENDBRANCH   5  15
TORSDOF 4
ENDMDL
MODEL 8
REMARK VINA RESULT:      -8.1      4.387      6.613
REMARK  Name = 
REMARK  4 active torsions:
REMARK  status: ('A' for Active; 'I' for Inactive)
REMARK    1  A    between atoms: O_1  and  C_2
REMARK    2  A    between atoms: C_8  and  N_9
REMARK    3  A    between atoms: C_13  and  C_14
REMARK    4  A    between atoms: C_17  and  C_18
REMARK                            x       y       z     vdW  Elec       q    Type
REMARK                         _______ _______ _______ _____ _____    ______ ____
ROOT
ATOM      1  N   UNL     1       6.103   5.233  18.617  0.00  0.00    +0.000 N 
ATOM      2  C   UNL     1       6.908   5.574  19.677  0.00  0.00    +0.000 A 
ATOM      3  N   UNL     1       8.148   5.210  19.455  0.00  0.00    +0.000 NA
ATOM      4  N   UNL     1       8.198   4.668  18.203  0.00  0.00    +0.000 NA
ATOM      5  C   UNL     1       6.989   4.735  17.659  0.00  0.00    +0.000 A 
ENDROOT
BRANCH   1  12
ATOM      6  C   UNL     1       3.859   4.283  18.980  0.00  0.00    +0.000 A 
ATOM      7  C   UNL     1       2.471   4.445  19.021  0.00  0.00    +0.000 A 
ATOM      8  C   UNL     1       1.898   5.663  18.652  0.00  0.00    +0.000 A 
ATOM      9  C   UNL     1       2.709   6.702  18.208  0.00  0.00    +0.000 A 
ATOM     10 CL   UNL     1       2.006   8.209  17.770  0.00  0.00    +0.000 Cl
ATOM     11  C   UNL     1       4.093   6.542  18.142  0.00  0.00    +0.000 A 
ATOM     12  C   UNL     1       4.683   5.340  18.569  0.00  0.00    +0.000 A 
BRANCH   6  13
ATOM     13  O   UNL     1       4.396   3.111  19.425  0.00  0.00    +0.000 OA
ATOM     14  H   UNL     1       4.642   2.551  18.668  0.00  0.00    +0.000 HD
ENDBRANCH   6  13
ENDBRANCH   1  12
BRANCH   5  15
ATOM     15  C   UNL     1       6.707   4.399  16.255  0.00  0.00    +0.000 A 
ATOM     16  C   UNL     1       5.673   3.502  15.954  0.00  0.00    +0.000 A 
ATOM     17  C   UNL     1       5.349   3.198  14.625  0.00  0.00    +0.000 A 
ATOM     18  C   UNL     1       6.052   3.792  13.568  0.00  0.00    +0.000 A 
ATOM     19  C   UNL     1       7.112   4.657  13.867  0.00  0.00    +0.000 A 
ATOM     20  C   UNL     1       7.455   4.926  15.193  0.00  0.00    +0.000 A 
BRANCH  18  21
ATOM     21  C   UNL     1       5.696   3.518  12.127  0.00  0.00    +0.000 C 
ATOM     22  F   UNL     1       4.392   3.772  11.826  0.00  0.00    +0.000 F 
ATOM     23  F   UNL     1       6.432   4.269  11.261  0.00  0.00    +0.000 F 
ATOM     24  F   UNL     1       5.915   2.222  11.775  0.00  0.00    +0.000 F 
ENDBRANCH  18  21
ENDBRANCH   5  15
TORSDOF 4
ENDMDL
MODEL 9
REMARK VINA RESULT:      -8.1      1.650      2.090
REMARK  Name = 
REMARK  4 active torsions:
REMARK  status: ('A' for Active; 'I' for Inactive)
REMARK    1  A    between atoms: O_1  and  C_2
REMARK    2  A    between atoms: C_8  and  N_9
REMARK    3  A    between atoms: C_13  and  C_14
REMARK    4  A    between atoms: C_17  and  C_18
REMARK                            x       y       z     vdW  Elec       q    Type
REMARK                         _______ _______ _______ _____ _____    ______ ____
ROOT
ATOM      1  N   UNL     1       3.861   4.055  19.612  0.00  0.00    +0.000 N 
ATOM      2  C   UNL     1       3.701   2.826  20.207  0.00  0.00    +0.000 A 
ATOM      3  N   UNL     1       2.754   2.868  21.113  0.00  0.00    +0.000 NA
ATOM      4  N   UNL     1       2.223   4.126  21.093  0.00  0.00    +0.000 NA
ATOM      5  C   UNL     1       2.832   4.833  20.150  0.00  0.00    +0.000 A 
ENDROOT
BRANCH   1  12
ATOM      6  C   UNL     1       4.833   4.037  17.348  0.00  0.00    +0.000 A 
ATOM      7  C   UNL     1       5.797   4.491  16.445  0.00  0.00    +0.000 A 
ATOM      8  C   UNL     1       6.823   5.330  16.880  0.00  0.00    +0.000 A 
ATOM      9  C   UNL     1       6.903   5.684  18.223  0.00  0.00    +0.000 A 
ATOM     10 CL   UNL     1       8.156   6.734  18.757  0.00  0.00    +0.000 Cl
ATOM     11  C   UNL     1       5.958   5.218  19.136  0.00  0.00    +0.000 A 
ATOM     12  C   UNL     1       4.888   4.420  18.695  0.00  0.00    +0.000 A 
BRANCH   6  13
ATOM     13  O   UNL     1       3.795   3.285  16.878  0.00  0.00    +0.000 OA
ATOM     14  H   UNL     1       3.171   3.850  16.391  0.00  0.00    +0.000 HD
ENDBRANCH   6  13
ENDBRANCH   1  12
BRANCH   5  15
ATOM     15  C   UNL     1       2.403   6.176  19.732  0.00  0.00    +0.000 A 
ATOM     16  C   UNL     1       1.817   7.037  20.669  0.00  0.00    +0.000 A 
ATOM     17  C   UNL     1       1.441   8.339  20.314  0.00  0.00    +0.000 A 
ATOM     18  C   UNL     1       1.649   8.809  19.010  0.00  0.00    +0.000 A 
ATOM     19  C   UNL     1       2.196   7.936  18.060  0.00  0.00    +0.000 A 
ATOM     20  C   UNL     1       2.534   6.628  18.411  0.00  0.00    +0.000 A 
BRANCH  18  21
ATOM     21  C   UNL     1       1.294  10.220  18.610  0.00  0.00    +0.000 C 
ATOM     22  F   UNL     1       0.112  10.320  17.941  0.00  0.00    +0.000 F 
ATOM     23  F   UNL     1       1.186  11.049  19.686  0.00  0.00    +0.000 F 
ATOM     24  F   UNL     1       2.231  10.782  17.799  0.00  0.00    +0.000 F 
ENDBRANCH  18  21
ENDBRANCH   5  15
TORSDOF 4
ENDMDL
