MODEL 1
REMARK VINA RESULT:      -6.9      0.000      0.000
REMARK  Name = 
REMARK  10 active torsions:
REMARK  status: ('A' for Active; 'I' for Inactive)
REMARK    1  A    between atoms: C_1  and  C_2
REMARK    2  A    between atoms: C_2  and  N_3
REMARK    3  A    between atoms: N_3  and  C_4
REMARK    4  A    between atoms: N_3  and  C_11
REMARK    5  A    between atoms: C_4  and  O_5
REMARK    6  A    between atoms: O_5  and  O_6
REMARK    7  A    between atoms: O_6  and  C_7
REMARK    8  A    between atoms: C_7  and  C_8
REMARK    9  A    between atoms: C_7  and  C_9
REMARK   10  A    between atoms: C_7  and  C_10
REMARK                            x       y       z     vdW  Elec       q    Type
REMARK                         _______ _______ _______ _____ _____    ______ ____
ROOT
ATOM      1  C   UNL     1       3.898   4.981  17.810  0.00  0.00    +0.000 A 
ATOM      2  C   UNL     1       4.714   4.854  16.617  0.00  0.00    +0.000 A 
ATOM      3  C   UNL     1       5.368   3.692  16.106  0.00  0.00    +0.000 A 
ATOM      4  C   UNL     1       6.133   3.689  14.936  0.00  0.00    +0.000 A 
ATOM      5  C   UNL     1       6.315   4.874  14.260  0.00  0.00    +0.000 A 
ATOM      6 CL   UNL     1       7.306   4.917  12.856  0.00  0.00    +0.000 Cl
ATOM      7  C   UNL     1       5.705   6.030  14.728  0.00  0.00    +0.000 A 
ATOM      8  C   UNL     1       4.907   6.030  15.871  0.00  0.00    +0.000 A 
ATOM      9  N   UNL     1       4.350   7.199  16.177  0.00  0.00    +0.000 NA
ATOM     10  C   UNL     1       3.573   7.341  17.242  0.00  0.00    +0.000 A 
ATOM     11  N   UNL     1       3.033   8.544  17.350  0.00  0.00    +0.000 NA
ATOM     12  C   UNL     1       2.226   8.780  18.372  0.00  0.00    +0.000 A 
ATOM     13  N   UNL     1       1.573   9.989  18.430  0.00  0.00    +0.000 N 
ATOM     14  N   UNL     1       2.000   7.926  19.350  0.00  0.00    +0.000 NA
ATOM     15  C   UNL     1       2.541   6.711  19.223  0.00  0.00    +0.000 A 
ATOM     16  N   UNL     1       2.246   5.902  20.318  0.00  0.00    +0.000 N 
ATOM     17  C   UNL     1       3.343   6.294  18.132  0.00  0.00    +0.000 A 
ATOM     18  H   UNL     1       2.070  10.691  17.901  0.00  0.00    +0.000 HD
ATOM     19  H   UNL     1       1.311  10.205  19.381  0.00  0.00    +0.000 HD
ATOM     20  H   UNL     1       1.626   6.426  20.931  0.00  0.00    +0.000 HD
ATOM     21  H   UNL     1       1.830   5.034  19.991  0.00  0.00    +0.000 HD
ENDROOT
BRANCH   1  22
ATOM     22  N   UNL     1       3.563   3.873  18.649  0.00  0.00    +0.000 N 
BRANCH  22  24
ATOM     23  C   UNL     1       1.516   2.462  18.907  0.00  0.00    +0.000 C 
ATOM     24  C   UNL     1       2.769   2.764  18.106  0.00  0.00    +0.000 C 
ENDBRANCH  22  24
BRANCH  22  25
ATOM     25  C   UNL     1       4.601   3.528  19.645  0.00  0.00    +0.000 C 
BRANCH  25  26
ATOM     26  O   UNL     1       5.916   3.827  19.200  0.00  0.00    +0.000 OA
BRANCH  26  27
ATOM     27  O   UNL     1       6.216   5.172  19.661  0.00  0.00    +0.000 OA
BRANCH  27  28
ATOM     28  C   UNL     1       7.467   5.521  19.059  0.00  0.00    +0.000 C 
ATOM     29  C   UNL     1       7.359   6.885  18.362  0.00  0.00    +0.000 C 
ATOM     30  C   UNL     1       8.465   5.607  20.212  0.00  0.00    +0.000 C 
ATOM     31  C   UNL     1       7.885   4.420  18.079  0.00  0.00    +0.000 C 
ENDBRANCH  27  28
ENDBRANCH  26  27
ENDBRANCH  25  26
ENDBRANCH  22  25
ENDBRANCH   1  22
TORSDOF 6
ENDMDL
MODEL 2
REMARK VINA RESULT:      -6.8      6.792      9.971
REMARK  Name = 
REMARK  10 active torsions:
REMARK  status: ('A' for Active; 'I' for Inactive)
REMARK    1  A    between atoms: C_1  and  C_2
REMARK    2  A    between atoms: C_2  and  N_3
REMARK    3  A    between atoms: N_3  and  C_4
REMARK    4  A    between atoms: N_3  and  C_11
REMARK    5  A    between atoms: C_4  and  O_5
REMARK    6  A    between atoms: O_5  and  O_6
REMARK    7  A    between atoms: O_6  and  C_7
REMARK    8  A    between atoms: C_7  and  C_8
REMARK    9  A    between atoms: C_7  and  C_9
REMARK   10  A    between atoms: C_7  and  C_10
REMARK                            x       y       z     vdW  Elec       q    Type
REMARK                         _______ _______ _______ _____ _____    ______ ____
ROOT
ATOM      1  C   UNL     1      -0.793  11.407  19.718  0.00  0.00    +0.000 A 
ATOM      2  C   UNL     1      -1.564  11.873  20.854  0.00  0.00    +0.000 A 
ATOM      3  C   UNL     1      -2.501  12.949  20.912  0.00  0.00    +0.000 A 
ATOM      4  C   UNL     1      -3.192  13.309  22.072  0.00  0.00    +0.000 A 
ATOM      5  C   UNL     1      -2.925  12.631  23.241  0.00  0.00    +0.000 A 
ATOM      6 CL   UNL     1      -3.707  13.094  24.698  0.00  0.00    +0.000 Cl
ATOM      7  C   UNL     1      -2.013  11.585  23.231  0.00  0.00    +0.000 A 
ATOM      8  C   UNL     1      -1.353  11.194  22.067  0.00  0.00    +0.000 A 
ATOM      9  N   UNL     1      -0.541  10.148  22.196  0.00  0.00    +0.000 NA
ATOM     10  C   UNL     1       0.154   9.676  21.170  0.00  0.00    +0.000 A 
ATOM     11  N   UNL     1       0.843   8.582  21.451  0.00  0.00    +0.000 NA
ATOM     12  C   UNL     1       1.555   8.024  20.486  0.00  0.00    +0.000 A 
ATOM     13  N   UNL     1       2.182   6.826  20.739  0.00  0.00    +0.000 N 
ATOM     14  N   UNL     1       1.707   8.541  19.283  0.00  0.00    +0.000 NA
ATOM     15  C   UNL     1       0.997   9.639  19.008  0.00  0.00    +0.000 A 
ATOM     16  N   UNL     1       1.248  10.101  17.718  0.00  0.00    +0.000 N 
ATOM     17  C   UNL     1       0.120  10.282  19.916  0.00  0.00    +0.000 A 
ATOM     18  H   UNL     1       2.340   6.705  21.729  0.00  0.00    +0.000 HD
ATOM     19  H   UNL     1       2.963   6.696  20.112  0.00  0.00    +0.000 HD
ATOM     20  H   UNL     1       1.877   9.439  17.270  0.00  0.00    +0.000 HD
ATOM     21  H   UNL     1       0.366  10.199  17.220  0.00  0.00    +0.000 HD
ENDROOT
BRANCH   1  22
ATOM     22  N   UNL     1      -0.927  11.954  18.404  0.00  0.00    +0.000 N 
BRANCH  22  24
ATOM     23  C   UNL     1      -2.368  10.188  17.375  0.00  0.00    +0.000 C 
ATOM     24  C   UNL     1      -2.135  11.668  17.618  0.00  0.00    +0.000 C 
ENDBRANCH  22  24
BRANCH  22  25
ATOM     25  C   UNL     1      -0.322  13.292  18.237  0.00  0.00    +0.000 C 
BRANCH  25  26
ATOM     26  O   UNL     1       1.085  13.291  18.432  0.00  0.00    +0.000 OA
BRANCH  26  27
ATOM     27  O   UNL     1       1.351  14.177  19.552  0.00  0.00    +0.000 OA
BRANCH  27  28
ATOM     28  C   UNL     1       2.581  14.841  19.242  0.00  0.00    +0.000 C 
ATOM     29  C   UNL     1       3.405  14.001  18.258  0.00  0.00    +0.000 C 
ATOM     30  C   UNL     1       2.177  16.160  18.586  0.00  0.00    +0.000 C 
ATOM     31  C   UNL     1       3.353  15.110  20.538  0.00  0.00    +0.000 C 
ENDBRANCH  27  28
ENDBRANCH  26  27
ENDBRANCH  25  26
ENDBRANCH  22  25
ENDBRANCH   1  22
TORSDOF 6
ENDMDL
MODEL 3
REMARK VINA RESULT:      -6.6      2.899      5.515
REMARK  Name = 
REMARK  10 active torsions:
REMARK  status: ('A' for Active; 'I' for Inactive)
REMARK    1  A    between atoms: C_1  and  C_2
REMARK    2  A    between atoms: C_2  and  N_3
REMARK    3  A    between atoms: N_3  and  C_4
REMARK    4  A    between atoms: N_3  and  C_11
REMARK    5  A    between atoms: C_4  and  O_5
REMARK    6  A    between atoms: O_5  and  O_6
REMARK    7  A    between atoms: O_6  and  C_7
REMARK    8  A    between atoms: C_7  and  C_8
REMARK    9  A    between atoms: C_7  and  C_9
REMARK   10  A    between atoms: C_7  and  C_10
REMARK                            x       y       z     vdW  Elec       q    Type
REMARK                         _______ _______ _______ _____ _____    ______ ____
ROOT
ATOM      1  C   UNL     1       3.903   5.323  18.790  0.00  0.00    +0.000 A 
ATOM      2  C   UNL     1       3.251   6.605  18.608  0.00  0.00    +0.000 A 
ATOM      3  C   UNL     1       3.579   7.647  17.688  0.00  0.00    +0.000 A 
ATOM      4  C   UNL     1       2.872   8.850  17.601  0.00  0.00    +0.000 A 
ATOM      5  C   UNL     1       1.834   9.075  18.478  0.00  0.00    +0.000 A 
ATOM      6 CL   UNL     1       0.990  10.571  18.441  0.00  0.00    +0.000 Cl
ATOM      7  C   UNL     1       1.489   8.092  19.395  0.00  0.00    +0.000 A 
ATOM      8  C   UNL     1       2.164   6.874  19.458  0.00  0.00    +0.000 A 
ATOM      9  N   UNL     1       1.697   6.009  20.355  0.00  0.00    +0.000 NA
ATOM     10  C   UNL     1       2.249   4.816  20.524  0.00  0.00    +0.000 A 
ATOM     11  N   UNL     1       1.609   4.050  21.393  0.00  0.00    +0.000 NA
ATOM     12  C   UNL     1       2.073   2.832  21.617  0.00  0.00    +0.000 A 
ATOM     13  N   UNL     1       1.351   1.992  22.432  0.00  0.00    +0.000 N 
ATOM     14  N   UNL     1       3.194   2.360  21.107  0.00  0.00    +0.000 NA
ATOM     15  C   UNL     1       3.824   3.138  20.223  0.00  0.00    +0.000 A 
ATOM     16  N   UNL     1       4.998   2.544  19.764  0.00  0.00    +0.000 N 
ATOM     17  C   UNL     1       3.384   4.422  19.817  0.00  0.00    +0.000 A 
ATOM     18  H   UNL     1       0.761   2.518  23.059  0.00  0.00    +0.000 HD
ATOM     19  H   UNL     1       1.949   1.279  22.825  0.00  0.00    +0.000 HD
ATOM     20  H   UNL     1       5.056   1.616  20.177  0.00  0.00    +0.000 HD
ATOM     21  H   UNL     1       4.985   2.518  18.747  0.00  0.00    +0.000 HD
ENDROOT
BRANCH   1  22
ATOM     22  N   UNL     1       4.989   4.875  17.974  0.00  0.00    +0.000 N 
BRANCH  22  24
ATOM     23  C   UNL     1       7.129   6.136  17.698  0.00  0.00    +0.000 C 
ATOM     24  C   UNL     1       6.370   5.054  18.441  0.00  0.00    +0.000 C 
ENDBRANCH  22  24
BRANCH  22  25
ATOM     25  C   UNL     1       4.699   3.654  17.193  0.00  0.00    +0.000 C 
BRANCH  25  26
ATOM     26  O   UNL     1       4.691   3.883  15.791  0.00  0.00    +0.000 OA
BRANCH  26  27
ATOM     27  O   UNL     1       6.010   3.524  15.302  0.00  0.00    +0.000 OA
BRANCH  27  28
ATOM     28  C   UNL     1       6.276   4.408  14.208  0.00  0.00    +0.000 C 
ATOM     29  C   UNL     1       6.002   3.700  12.874  0.00  0.00    +0.000 C 
ATOM     30  C   UNL     1       5.308   5.576  14.383  0.00  0.00    +0.000 C 
ATOM     31  C   UNL     1       7.723   4.903  14.295  0.00  0.00    +0.000 C 
ENDBRANCH  27  28
ENDBRANCH  26  27
ENDBRANCH  25  26
ENDBRANCH  22  25
ENDBRANCH   1  22
TORSDOF 6
ENDMDL
MODEL 4
REMARK VINA RESULT:      -6.5      8.065      9.971
REMARK  Name = 
REMARK  10 active torsions:
REMARK  status: ('A' for Active; 'I' for Inactive)
REMARK    1  A    between atoms: C_1  and  C_2
REMARK    2  A    between atoms: C_2  and  N_3
REMARK    3  A    between atoms: N_3  and  C_4
REMARK    4  A    between atoms: N_3  and  C_11
REMARK    5  A    between atoms: C_4  and  O_5
REMARK    6  A    between atoms: O_5  and  O_6
REMARK    7  A    between atoms: O_6  and  C_7
REMARK    8  A    between atoms: C_7  and  C_8
REMARK    9  A    between atoms: C_7  and  C_9
REMARK   10  A    between atoms: C_7  and  C_10
REMARK                            x       y       z     vdW  Elec       q    Type
REMARK                         _______ _______ _______ _____ _____    ______ ____
ROOT
ATOM      1  C   UNL     1      -1.449  11.579  20.505  0.00  0.00    +0.000 A 
ATOM      2  C   UNL     1      -1.786  11.139  19.165  0.00  0.00    +0.000 A 
ATOM      3  C   UNL     1      -1.061  10.253  18.312  0.00  0.00    +0.000 A 
ATOM      4  C   UNL     1      -1.487   9.896  17.029  0.00  0.00    +0.000 A 
ATOM      5  C   UNL     1      -2.639  10.463  16.531  0.00  0.00    +0.000 A 
ATOM      6 CL   UNL     1      -3.152  10.097  14.932  0.00  0.00    +0.000 Cl
ATOM      7  C   UNL     1      -3.369  11.338  17.324  0.00  0.00    +0.000 A 
ATOM      8  C   UNL     1      -2.971  11.664  18.619  0.00  0.00    +0.000 A 
ATOM      9  N   UNL     1      -3.789  12.479  19.279  0.00  0.00    +0.000 NA
ATOM     10  C   UNL     1      -3.528  12.875  20.517  0.00  0.00    +0.000 A 
ATOM     11  N   UNL     1      -4.486  13.612  21.055  0.00  0.00    +0.000 NA
ATOM     12  C   UNL     1      -4.326  14.041  22.296  0.00  0.00    +0.000 A 
ATOM     13  N   UNL     1      -5.365  14.711  22.900  0.00  0.00    +0.000 N 
ATOM     14  N   UNL     1      -3.228  13.868  23.004  0.00  0.00    +0.000 NA
ATOM     15  C   UNL     1      -2.273  13.113  22.455  0.00  0.00    +0.000 A 
ATOM     16  N   UNL     1      -1.159  13.012  23.285  0.00  0.00    +0.000 N 
ATOM     17  C   UNL     1      -2.355  12.510  21.176  0.00  0.00    +0.000 A 
ATOM     18  H   UNL     1      -5.974  15.126  22.211  0.00  0.00    +0.000 HD
ATOM     19  H   UNL     1      -5.022  15.297  23.647  0.00  0.00    +0.000 HD
ATOM     20  H   UNL     1      -1.375  13.499  24.153  0.00  0.00    +0.000 HD
ATOM     21  H   UNL     1      -0.939  12.030  23.433  0.00  0.00    +0.000 HD
ENDROOT
BRANCH   1  22
ATOM     22  N   UNL     1      -0.308  11.101  21.222  0.00  0.00    +0.000 N 
BRANCH  22  24
ATOM     23  C   UNL     1      -0.172   9.641  23.246  0.00  0.00    +0.000 C 
ATOM     24  C   UNL     1      -0.298   9.725  21.736  0.00  0.00    +0.000 C 
ENDBRANCH  22  24
BRANCH  22  25
ATOM     25  C   UNL     1       0.981  11.648  20.748  0.00  0.00    +0.000 C 
BRANCH  25  26
ATOM     26  O   UNL     1       1.187  12.998  21.141  0.00  0.00    +0.000 OA
BRANCH  26  27
ATOM     27  O   UNL     1       1.716  13.693  19.981  0.00  0.00    +0.000 OA
BRANCH  27  28
ATOM     28  C   UNL     1       0.993  14.926  19.900  0.00  0.00    +0.000 C 
ATOM     29  C   UNL     1      -0.266  14.748  19.040  0.00  0.00    +0.000 C 
ATOM     30  C   UNL     1       0.595  15.260  21.337  0.00  0.00    +0.000 C 
ATOM     31  C   UNL     1       1.909  16.017  19.337  0.00  0.00    +0.000 C 
ENDBRANCH  27  28
ENDBRANCH  26  27
ENDBRANCH  25  26
ENDBRANCH  22  25
ENDBRANCH   1  22
TORSDOF 6
ENDMDL
MODEL 5
REMARK VINA RESULT:      -6.5      7.569     11.000
REMARK  Name = 
REMARK  10 active torsions:
REMARK  status: ('A' for Active; 'I' for Inactive)
REMARK    1  A    between atoms: C_1  and  C_2
REMARK    2  A    between atoms: C_2  and  N_3
REMARK    3  A    between atoms: N_3  and  C_4
REMARK    4  A    between atoms: N_3  and  C_11
REMARK    5  A    between atoms: C_4  and  O_5
REMARK    6  A    between atoms: O_5  and  O_6
REMARK    7  A    between atoms: O_6  and  C_7
REMARK    8  A    between atoms: C_7  and  C_8
REMARK    9  A    between atoms: C_7  and  C_9
REMARK   10  A    between atoms: C_7  and  C_10
REMARK                            x       y       z     vdW  Elec       q    Type
REMARK                         _______ _______ _______ _____ _____    ______ ____
ROOT
ATOM      1  C   UNL     1      -2.556  12.468  19.766  0.00  0.00    +0.000 A 
ATOM      2  C   UNL     1      -3.668  12.972  20.548  0.00  0.00    +0.000 A 
ATOM      3  C   UNL     1      -3.634  13.691  21.781  0.00  0.00    +0.000 A 
ATOM      4  C   UNL     1      -4.779  14.132  22.450  0.00  0.00    +0.000 A 
ATOM      5  C   UNL     1      -6.014  13.816  21.928  0.00  0.00    +0.000 A 
ATOM      6 CL   UNL     1      -7.442  14.284  22.762  0.00  0.00    +0.000 Cl
ATOM      7  C   UNL     1      -6.093  13.109  20.736  0.00  0.00    +0.000 A 
ATOM      8  C   UNL     1      -4.953  12.704  20.044  0.00  0.00    +0.000 A 
ATOM      9  N   UNL     1      -5.178  12.075  18.894  0.00  0.00    +0.000 NA
ATOM     10  C   UNL     1      -4.184  11.630  18.138  0.00  0.00    +0.000 A 
ATOM     11  N   UNL     1      -4.581  11.106  16.989  0.00  0.00    +0.000 NA
ATOM     12  C   UNL     1      -3.659  10.650  16.157  0.00  0.00    +0.000 A 
ATOM     13  N   UNL     1      -4.055  10.208  14.916  0.00  0.00    +0.000 N 
ATOM     14  N   UNL     1      -2.372  10.590  16.436  0.00  0.00    +0.000 NA
ATOM     15  C   UNL     1      -1.984  11.132  17.592  0.00  0.00    +0.000 A 
ATOM     16  N   UNL     1      -0.610  10.999  17.784  0.00  0.00    +0.000 N 
ATOM     17  C   UNL     1      -2.852  11.743  18.531  0.00  0.00    +0.000 A 
ATOM     18  H   UNL     1      -5.025   9.930  14.925  0.00  0.00    +0.000 HD
ATOM     19  H   UNL     1      -3.378   9.561  14.537  0.00  0.00    +0.000 HD
ATOM     20  H   UNL     1      -0.222  10.565  16.950  0.00  0.00    +0.000 HD
ATOM     21  H   UNL     1      -0.207  11.914  17.972  0.00  0.00    +0.000 HD
ENDROOT
BRANCH   1  22
ATOM     22  N   UNL     1      -1.188  12.698  20.111  0.00  0.00    +0.000 N 
BRANCH  22  24
ATOM     23  C   UNL     1      -0.170  14.430  18.624  0.00  0.00    +0.000 C 
ATOM     24  C   UNL     1      -0.634  14.055  20.019  0.00  0.00    +0.000 C 
ENDBRANCH  22  24
BRANCH  22  25
ATOM     25  C   UNL     1      -0.686  11.843  21.208  0.00  0.00    +0.000 C 
BRANCH  25  26
ATOM     26  O   UNL     1      -0.778  10.456  20.915  0.00  0.00    +0.000 OA
BRANCH  26  27
ATOM     27  O   UNL     1       0.531  10.042  20.440  0.00  0.00    +0.000 OA
BRANCH  27  28
ATOM     28  C   UNL     1       0.854   8.854  21.171  0.00  0.00    +0.000 C 
ATOM     29  C   UNL     1       1.555   9.215  22.488  0.00  0.00    +0.000 C 
ATOM     30  C   UNL     1      -0.484   8.179  21.463  0.00  0.00    +0.000 C 
ATOM     31  C   UNL     1       1.727   7.944  20.300  0.00  0.00    +0.000 C 
ENDBRANCH  27  28
ENDBRANCH  26  27
ENDBRANCH  25  26
ENDBRANCH  22  25
ENDBRANCH   1  22
TORSDOF 6
ENDMDL
MODEL 6
REMARK VINA RESULT:      -6.4      6.932     10.473
REMARK  Name = 
REMARK  10 active torsions:
REMARK  status: ('A' for Active; 'I' for Inactive)
REMARK    1  A    between atoms: C_1  and  C_2
REMARK    2  A    between atoms: C_2  and  N_3
REMARK    3  A    between atoms: N_3  and  C_4
REMARK    4  A    between atoms: N_3  and  C_11
REMARK    5  A    between atoms: C_4  and  O_5
REMARK    6  A    between atoms: O_5  and  O_6
REMARK    7  A    between atoms: O_6  and  C_7
REMARK    8  A    between atoms: C_7  and  C_8
REMARK    9  A    between atoms: C_7  and  C_9
REMARK   10  A    between atoms: C_7  and  C_10
REMARK                            x       y       z     vdW  Elec       q    Type
REMARK                         _______ _______ _______ _____ _____    ______ ____
ROOT
ATOM      1  C   UNL     1      -0.478  11.404  19.801  0.00  0.00    +0.000 A 
ATOM      2  C   UNL     1      -1.290  11.881  20.903  0.00  0.00    +0.000 A 
ATOM      3  C   UNL     1      -2.154  13.017  20.945  0.00  0.00    +0.000 A 
ATOM      4  C   UNL     1      -2.895  13.383  22.072  0.00  0.00    +0.000 A 
ATOM      5  C   UNL     1      -2.752  12.646  23.227  0.00  0.00    +0.000 A 
ATOM      6 CL   UNL     1      -3.597  13.109  24.649  0.00  0.00    +0.000 Cl
ATOM      7  C   UNL     1      -1.914  11.539  23.233  0.00  0.00    +0.000 A 
ATOM      8  C   UNL     1      -1.206  11.146  22.098  0.00  0.00    +0.000 A 
ATOM      9  N   UNL     1      -0.476  10.042  22.236  0.00  0.00    +0.000 NA
ATOM     10  C   UNL     1       0.252   9.560  21.238  0.00  0.00    +0.000 A 
ATOM     11  N   UNL     1       0.845   8.411  21.518  0.00  0.00    +0.000 NA
ATOM     12  C   UNL     1       1.581   7.840  20.578  0.00  0.00    +0.000 A 
ATOM     13  N   UNL     1       2.108   6.593  20.822  0.00  0.00    +0.000 N 
ATOM     14  N   UNL     1       1.847   8.389  19.409  0.00  0.00    +0.000 NA
ATOM     15  C   UNL     1       1.233   9.543  19.135  0.00  0.00    +0.000 A 
ATOM     16  N   UNL     1       1.599  10.033  17.883  0.00  0.00    +0.000 N 
ATOM     17  C   UNL     1       0.342  10.212  20.010  0.00  0.00    +0.000 A 
ATOM     18  H   UNL     1       2.191   6.425  21.814  0.00  0.00    +0.000 HD
ATOM     19  H   UNL     1       2.919   6.431  20.241  0.00  0.00    +0.000 HD
ATOM     20  H   UNL     1       2.211   9.345  17.450  0.00  0.00    +0.000 HD
ATOM     21  H   UNL     1       0.761  10.211  17.335  0.00  0.00    +0.000 HD
ENDROOT
BRANCH   1  22
ATOM     22  N   UNL     1      -0.487  12.007  18.504  0.00  0.00    +0.000 N 
BRANCH  22  24
ATOM     23  C   UNL     1      -2.219  10.612  17.362  0.00  0.00    +0.000 C 
ATOM     24  C   UNL     1      -1.723  12.003  17.710  0.00  0.00    +0.000 C 
ENDBRANCH  22  24
BRANCH  22  25
ATOM     25  C   UNL     1       0.385  13.194  18.378  0.00  0.00    +0.000 C 
BRANCH  25  26
ATOM     26  O   UNL     1      -0.315  14.417  18.553  0.00  0.00    +0.000 OA
BRANCH  26  27
ATOM     27  O   UNL     1       0.334  15.116  19.648  0.00  0.00    +0.000 OA
BRANCH  27  28
ATOM     28  C   UNL     1       0.556  16.452  19.183  0.00  0.00    +0.000 C 
ATOM     29  C   UNL     1      -0.567  16.873  18.225  0.00  0.00    +0.000 C 
ATOM     30  C   UNL     1       0.528  17.329  20.433  0.00  0.00    +0.000 C 
ATOM     31  C   UNL     1       1.930  16.534  18.510  0.00  0.00    +0.000 C 
ENDBRANCH  27  28
ENDBRANCH  26  27
ENDBRANCH  25  26
ENDBRANCH  22  25
ENDBRANCH   1  22
TORSDOF 6
ENDMDL
MODEL 7
REMARK VINA RESULT:      -6.4      8.032      9.927
REMARK  Name = 
REMARK  10 active torsions:
REMARK  status: ('A' for Active; 'I' for Inactive)
REMARK    1  A    between atoms: C_1  and  C_2
REMARK    2  A    between atoms: C_2  and  N_3
REMARK    3  A    between atoms: N_3  and  C_4
REMARK    4  A    between atoms: N_3  and  C_11
REMARK    5  A    between atoms: C_4  and  O_5
REMARK    6  A    between atoms: O_5  and  O_6
REMARK    7  A    between atoms: O_6  and  C_7
REMARK    8  A    between atoms: C_7  and  C_8
REMARK    9  A    between atoms: C_7  and  C_9
REMARK   10  A    between atoms: C_7  and  C_10
REMARK                            x       y       z     vdW  Elec       q    Type
REMARK                         _______ _______ _______ _____ _____    ______ ____
ROOT
ATOM      1  C   UNL     1      -1.385  11.625  20.392  0.00  0.00    +0.000 A 
ATOM      2  C   UNL     1      -1.813  11.142  19.094  0.00  0.00    +0.000 A 
ATOM      3  C   UNL     1      -1.123  10.270  18.198  0.00  0.00    +0.000 A 
ATOM      4  C   UNL     1      -1.638   9.868  16.962  0.00  0.00    +0.000 A 
ATOM      5  C   UNL     1      -2.852  10.375  16.553  0.00  0.00    +0.000 A 
ATOM      6 CL   UNL     1      -3.481   9.954  15.010  0.00  0.00    +0.000 Cl
ATOM      7  C   UNL     1      -3.551  11.235  17.390  0.00  0.00    +0.000 A 
ATOM      8  C   UNL     1      -3.061  11.605  18.641  0.00  0.00    +0.000 A 
ATOM      9  N   UNL     1      -3.857  12.398  19.353  0.00  0.00    +0.000 NA
ATOM     10  C   UNL     1      -3.511  12.830  20.557  0.00  0.00    +0.000 A 
ATOM     11  N   UNL     1      -4.453  13.537  21.161  0.00  0.00    +0.000 NA
ATOM     12  C   UNL     1      -4.209  13.998  22.376  0.00  0.00    +0.000 A 
ATOM     13  N   UNL     1      -5.222  14.636  23.054  0.00  0.00    +0.000 N 
ATOM     14  N   UNL     1      -3.049  13.888  22.992  0.00  0.00    +0.000 NA
ATOM     15  C   UNL     1      -2.111  13.163  22.378  0.00  0.00    +0.000 A 
ATOM     16  N   UNL     1      -0.928  13.128  23.113  0.00  0.00    +0.000 N 
ATOM     17  C   UNL     1      -2.273  12.530  21.121  0.00  0.00    +0.000 A 
ATOM     18  H   UNL     1      -5.905  15.010  22.411  0.00  0.00    +0.000 HD
ATOM     19  H   UNL     1      -4.845  15.252  23.759  0.00  0.00    +0.000 HD
ATOM     20  H   UNL     1      -1.092  13.622  23.987  0.00  0.00    +0.000 HD
ATOM     21  H   UNL     1      -0.653  12.159  23.259  0.00  0.00    +0.000 HD
ENDROOT
BRANCH   1  22
ATOM     22  N   UNL     1      -0.168  11.211  21.019  0.00  0.00    +0.000 N 
BRANCH  22  24
ATOM     23  C   UNL     1      -0.423   9.620  22.930  0.00  0.00    +0.000 C 
ATOM     24  C   UNL     1      -0.024   9.824  21.480  0.00  0.00    +0.000 C 
ENDBRANCH  22  24
BRANCH  22  25
ATOM     25  C   UNL     1       1.044  11.869  20.487  0.00  0.00    +0.000 C 
BRANCH  25  26
ATOM     26  O   UNL     1       1.575  12.847  21.369  0.00  0.00    +0.000 OA
BRANCH  26  27
ATOM     27  O   UNL     1       1.011  14.124  20.965  0.00  0.00    +0.000 OA
BRANCH  27  28
ATOM     28  C   UNL     1       2.066  15.081  21.111  0.00  0.00    +0.000 C 
ATOM     29  C   UNL     1       3.392  14.369  21.411  0.00  0.00    +0.000 C 
ATOM     30  C   UNL     1       2.155  15.797  19.765  0.00  0.00    +0.000 C 
ATOM     31  C   UNL     1       1.699  16.076  22.216  0.00  0.00    +0.000 C 
ENDBRANCH  27  28
ENDBRANCH  26  27
ENDBRANCH  25  26
ENDBRANCH  22  25
ENDBRANCH   1  22
TORSDOF 6
ENDMDL
MODEL 8
REMARK VINA RESULT:      -6.4      2.772      5.221
REMARK  Name = 
REMARK  10 active torsions:
REMARK  status: ('A' for Active; 'I' for Inactive)
REMARK    1  A    between atoms: C_1  and  C_2
REMARK    2  A    between atoms: C_2  and  N_3
REMARK    3  A    between atoms: N_3  and  C_4
REMARK    4  A    between atoms: N_3  and  C_11
REMARK    5  A    between atoms: C_4  and  O_5
REMARK    6  A    between atoms: O_5  and  O_6
REMARK    7  A    between atoms: O_6  and  C_7
REMARK    8  A    between atoms: C_7  and  C_8
REMARK    9  A    between atoms: C_7  and  C_9
REMARK   10  A    between atoms: C_7  and  C_10
REMARK                            x       y       z     vdW  Elec       q    Type
REMARK                         _______ _______ _______ _____ _____    ______ ____
ROOT
ATOM      1  C   UNL     1       3.388   5.893  18.459  0.00  0.00    +0.000 A 
ATOM      2  C   UNL     1       2.665   7.144  18.574  0.00  0.00    +0.000 A 
ATOM      3  C   UNL     1       2.714   8.281  17.712  0.00  0.00    +0.000 A 
ATOM      4  C   UNL     1       1.966   9.443  17.923  0.00  0.00    +0.000 A 
ATOM      5  C   UNL     1       1.175   9.527  19.048  0.00  0.00    +0.000 A 
ATOM      6 CL   UNL     1       0.295  10.967  19.371  0.00  0.00    +0.000 Cl
ATOM      7  C   UNL     1       1.107   8.447  19.918  0.00  0.00    +0.000 A 
ATOM      8  C   UNL     1       1.819   7.271  19.689  0.00  0.00    +0.000 A 
ATOM      9  N   UNL     1       1.624   6.304  20.582  0.00  0.00    +0.000 NA
ATOM     10  C   UNL     1       2.244   5.136  20.488  0.00  0.00    +0.000 A 
ATOM     11  N   UNL     1       1.871   4.259  21.407  0.00  0.00    +0.000 NA
ATOM     12  C   UNL     1       2.420   3.056  21.385  0.00  0.00    +0.000 A 
ATOM     13  N   UNL     1       1.957   2.105  22.265  0.00  0.00    +0.000 N 
ATOM     14  N   UNL     1       3.392   2.699  20.569  0.00  0.00    +0.000 NA
ATOM     15  C   UNL     1       3.751   3.589  19.640  0.00  0.00    +0.000 A 
ATOM     16  N   UNL     1       4.791   3.109  18.847  0.00  0.00    +0.000 N 
ATOM     17  C   UNL     1       3.177   4.874  19.487  0.00  0.00    +0.000 A 
ATOM     18  H   UNL     1       1.525   2.538  23.068  0.00  0.00    +0.000 HD
ATOM     19  H   UNL     1       2.659   1.398  22.424  0.00  0.00    +0.000 HD
ATOM     20  H   UNL     1       4.986   2.153  19.138  0.00  0.00    +0.000 HD
ATOM     21  H   UNL     1       4.524   3.172  17.868  0.00  0.00    +0.000 HD
ENDROOT
BRANCH   1  22
ATOM     22  N   UNL     1       4.249   5.584  17.359  0.00  0.00    +0.000 N 
BRANCH  22  24
ATOM     23  C   UNL     1       4.980   4.158  15.441  0.00  0.00    +0.000 C 
ATOM     24  C   UNL     1       3.887   4.500  16.436  0.00  0.00    +0.000 C 
ENDBRANCH  22  24
BRANCH  22  25
ATOM     25  C   UNL     1       4.938   6.756  16.778  0.00  0.00    +0.000 C 
BRANCH  25  26
ATOM     26  O   UNL     1       6.132   7.094  17.468  0.00  0.00    +0.000 OA
BRANCH  26  27
ATOM     27  O   UNL     1       6.204   6.223  18.629  0.00  0.00    +0.000 OA
BRANCH  27  28
ATOM     28  C   UNL     1       7.578   5.840  18.746  0.00  0.00    +0.000 C 
ATOM     29  C   UNL     1       7.905   4.723  17.745  0.00  0.00    +0.000 C 
ATOM     30  C   UNL     1       8.382   7.093  18.406  0.00  0.00    +0.000 C 
ATOM     31  C   UNL     1       7.863   5.404  20.188  0.00  0.00    +0.000 C 
ENDBRANCH  27  28
ENDBRANCH  26  27
ENDBRANCH  25  26
ENDBRANCH  22  25
ENDBRANCH   1  22
TORSDOF 6
ENDMDL
MODEL 9
REMARK VINA RESULT:      -6.2      7.731     10.220
REMARK  Name = 
REMARK  10 active torsions:
REMARK  status: ('A' for Active; 'I' for Inactive)
REMARK    1  A    between atoms: C_1  and  C_2
REMARK    2  A    between atoms: C_2  and  N_3
REMARK    3  A    between atoms: N_3  and  C_4
REMARK    4  A    between atoms: N_3  and  C_11
REMARK    5  A    between atoms: C_4  and  O_5
REMARK    6  A    between atoms: O_5  and  O_6
REMARK    7  A    between atoms: O_6  and  C_7
REMARK    8  A    between atoms: C_7  and  C_8
REMARK    9  A    between atoms: C_7  and  C_9
REMARK   10  A    between atoms: C_7  and  C_10
REMARK                            x       y       z     vdW  Elec       q    Type
REMARK                         _______ _______ _______ _____ _____    ______ ____
ROOT
ATOM      1  C   UNL     1       0.413  11.805  20.494  0.00  0.00    +0.000 A 
ATOM      2  C   UNL     1      -0.197  12.537  21.587  0.00  0.00    +0.000 A 
ATOM      3  C   UNL     1      -1.133  12.068  22.558  0.00  0.00    +0.000 A 
ATOM      4  C   UNL     1      -1.657  12.871  23.575  0.00  0.00    +0.000 A 
ATOM      5  C   UNL     1      -1.298  14.200  23.622  0.00  0.00    +0.000 A 
ATOM      6 CL   UNL     1      -1.977  15.229  24.819  0.00  0.00    +0.000 Cl
ATOM      7  C   UNL     1      -0.399  14.699  22.690  0.00  0.00    +0.000 A 
ATOM      8  C   UNL     1       0.159  13.893  21.699  0.00  0.00    +0.000 A 
ATOM      9  N   UNL     1       1.039  14.493  20.904  0.00  0.00    +0.000 NA
ATOM     10  C   UNL     1       1.640  13.844  19.916  0.00  0.00    +0.000 A 
ATOM     11  N   UNL     1       2.548  14.566  19.279  0.00  0.00    +0.000 NA
ATOM     12  C   UNL     1       3.216  14.000  18.287  0.00  0.00    +0.000 A 
ATOM     13  N   UNL     1       4.238  14.705  17.695  0.00  0.00    +0.000 N 
ATOM     14  N   UNL     1       2.969  12.792  17.821  0.00  0.00    +0.000 NA
ATOM     15  C   UNL     1       2.058  12.070  18.480  0.00  0.00    +0.000 A 
ATOM     16  N   UNL     1       1.872  10.821  17.891  0.00  0.00    +0.000 N 
ATOM     17  C   UNL     1       1.342  12.516  19.617  0.00  0.00    +0.000 A 
ATOM     18  H   UNL     1       4.113  15.698  17.825  0.00  0.00    +0.000 HD
ATOM     19  H   UNL     1       4.409  14.365  16.760  0.00  0.00    +0.000 HD
ATOM     20  H   UNL     1       2.534  10.740  17.123  0.00  0.00    +0.000 HD
ATOM     21  H   UNL     1       1.998  10.097  18.594  0.00  0.00    +0.000 HD
ENDROOT
BRANCH   1  22
ATOM     22  N   UNL     1       0.197  10.409  20.270  0.00  0.00    +0.000 N 
BRANCH  22  24
ATOM     23  C   UNL     1      -0.231   8.485  21.808  0.00  0.00    +0.000 C 
ATOM     24  C   UNL     1       0.786   9.427  21.190  0.00  0.00    +0.000 C 
ENDBRANCH  22  24
BRANCH  22  25
ATOM     25  C   UNL     1      -1.126  10.081  19.699  0.00  0.00    +0.000 C 
BRANCH  25  26
ATOM     26  O   UNL     1      -1.141  10.120  18.280  0.00  0.00    +0.000 OA
BRANCH  26  27
ATOM     27  O   UNL     1      -2.435   9.607  17.862  0.00  0.00    +0.000 OA
BRANCH  27  28
ATOM     28  C   UNL     1      -2.917  10.520  16.870  0.00  0.00    +0.000 C 
ATOM     29  C   UNL     1      -2.973   9.833  15.499  0.00  0.00    +0.000 C 
ATOM     30  C   UNL     1      -4.326  10.901  17.317  0.00  0.00    +0.000 C 
ATOM     31  C   UNL     1      -2.017  11.760  16.842  0.00  0.00    +0.000 C 
ENDBRANCH  27  28
ENDBRANCH  26  27
ENDBRANCH  25  26
ENDBRANCH  22  25
ENDBRANCH   1  22
TORSDOF 6
ENDMDL
