MODEL 1
REMARK VINA RESULT:      -6.9      0.000      0.000
REMARK  Name = 
REMARK  5 active torsions:
REMARK  status: ('A' for Active; 'I' for Inactive)
REMARK    1  A    between atoms: C_2  and  C_3
REMARK    2  A    between atoms: C_3  and  N_4
REMARK    3  A    between atoms: N_13  and  C_14
REMARK    4  A    between atoms: N_17  and  C_18
REMARK    5  A    between atoms: C_18  and  C_19
REMARK                            x       y       z     vdW  Elec       q    Type
REMARK                         _______ _______ _______ _____ _____    ______ ____
ROOT
ATOM      1  O   UNL     1       1.868   4.875  18.182  0.00  0.00    +0.000 OA
ATOM      2  C   UNL     1       2.797   5.667  18.339  0.00  0.00    +0.000 C 
ATOM      3  N   UNL     1       3.821   5.672  17.434  0.00  0.00    +0.000 N 
ATOM      4  H   UNL     1       3.720   4.978  16.701  0.00  0.00    +0.000 HD
ENDROOT
BRANCH   3   5
ATOM      5  C   UNL     1       5.030   6.480  17.468  0.00  0.00    +0.000 C 
ATOM      6  C   UNL     1       6.086   5.886  18.398  0.00  0.00    +0.000 C 
ATOM      7  C   UNL     1       7.386   6.162  17.662  0.00  0.00    +0.000 C 
ATOM      8  N   UNL     1       7.060   5.968  16.239  0.00  0.00    +0.000 NA
ATOM      9  C   UNL     1       5.723   6.583  16.100  0.00  0.00    +0.000 C 
BRANCH   8  10
ATOM     10  C   UNL     1       7.070   4.535  15.893  0.00  0.00    +0.000 C 
BRANCH  10  11
ATOM     11  C   UNL     1       6.853   4.338  14.420  0.00  0.00    +0.000 A 
ATOM     12  C   UNL     1       7.640   4.938  13.380  0.00  0.00    +0.000 A 
ATOM     13  C   UNL     1       7.206   4.594  12.120  0.00  0.00    +0.000 A 
ATOM     14  S   UNL     1       5.866   3.536  12.170  0.00  0.00    +0.000 S 
ATOM     15  C   UNL     1       5.861   3.538  13.878  0.00  0.00    +0.000 A 
ENDBRANCH  10  11
ENDBRANCH   8  10
ENDBRANCH   3   5
BRANCH   2  16
ATOM     16  C   UNL     1       2.816   6.654  19.487  0.00  0.00    +0.000 C 
BRANCH  16  17
ATOM     17  N   UNL     1       2.085   7.872  19.194  0.00  0.00    +0.000 N 
ATOM     18  C   UNL     1       2.002   8.480  17.970  0.00  0.00    +0.000 A 
ATOM     19  N   UNL     1       1.254   9.558  18.013  0.00  0.00    +0.000 NA
ATOM     20  C   UNL     1       0.815   9.643  19.310  0.00  0.00    +0.000 A 
ATOM     21  C   UNL     1      -0.036  10.586  19.901  0.00  0.00    +0.000 A 
ATOM     22  C   UNL     1      -0.345  10.460  21.261  0.00  0.00    +0.000 A 
ATOM     23  C   UNL     1       0.191   9.419  22.018  0.00  0.00    +0.000 A 
ATOM     24  C   UNL     1       1.044   8.465  21.447  0.00  0.00    +0.000 A 
ATOM     25  C   UNL     1       1.332   8.602  20.080  0.00  0.00    +0.000 A 
ENDBRANCH  16  17
ENDBRANCH   2  16
TORSDOF 5
ENDMDL
MODEL 2
REMARK VINA RESULT:      -6.9      1.893      2.694
REMARK  Name = 
REMARK  5 active torsions:
REMARK  status: ('A' for Active; 'I' for Inactive)
REMARK    1  A    between atoms: C_2  and  C_3
REMARK    2  A    between atoms: C_3  and  N_4
REMARK    3  A    between atoms: N_13  and  C_14
REMARK    4  A    between atoms: N_17  and  C_18
REMARK    5  A    between atoms: C_18  and  C_19
REMARK                            x       y       z     vdW  Elec       q    Type
REMARK                         _______ _______ _______ _____ _____    ______ ____
ROOT
ATOM      1  O   UNL     1       4.237   2.084  19.030  0.00  0.00    +0.000 OA
ATOM      2  C   UNL     1       4.235   3.252  18.642  0.00  0.00    +0.000 C 
ATOM      3  N   UNL     1       5.419   3.930  18.576  0.00  0.00    +0.000 N 
ATOM      4  H   UNL     1       6.217   3.386  18.886  0.00  0.00    +0.000 HD
ENDROOT
BRANCH   3   5
ATOM      5  C   UNL     1       5.626   5.322  18.204  0.00  0.00    +0.000 C 
ATOM      6  C   UNL     1       7.052   5.784  18.497  0.00  0.00    +0.000 C 
ATOM      7  C   UNL     1       7.365   6.695  17.323  0.00  0.00    +0.000 C 
ATOM      8  N   UNL     1       6.723   6.050  16.165  0.00  0.00    +0.000 NA
ATOM      9  C   UNL     1       5.429   5.577  16.701  0.00  0.00    +0.000 C 
BRANCH   8  10
ATOM     10  C   UNL     1       7.564   4.955  15.648  0.00  0.00    +0.000 C 
BRANCH  10  11
ATOM     11  C   UNL     1       7.155   4.580  14.251  0.00  0.00    +0.000 A 
ATOM     12  C   UNL     1       7.768   5.070  13.050  0.00  0.00    +0.000 A 
ATOM     13  C   UNL     1       7.179   4.569  11.910  0.00  0.00    +0.000 A 
ATOM     14  S   UNL     1       5.900   3.496  12.268  0.00  0.00    +0.000 S 
ATOM     15  C   UNL     1       6.130   3.700  13.949  0.00  0.00    +0.000 A 
ENDBRANCH  10  11
ENDBRANCH   8  10
ENDBRANCH   3   5
BRANCH   2  16
ATOM     16  C   UNL     1       2.960   3.943  18.206  0.00  0.00    +0.000 C 
BRANCH  16  17
ATOM     17  N   UNL     1       2.449   4.861  19.206  0.00  0.00    +0.000 N 
ATOM     18  C   UNL     1       2.115   4.537  20.493  0.00  0.00    +0.000 A 
ATOM     19  N   UNL     1       1.698   5.585  21.165  0.00  0.00    +0.000 NA
ATOM     20  C   UNL     1       1.783   6.636  20.288  0.00  0.00    +0.000 A 
ATOM     21  C   UNL     1       1.489   7.991  20.491  0.00  0.00    +0.000 A 
ATOM     22  C   UNL     1       1.661   8.887  19.429  0.00  0.00    +0.000 A 
ATOM     23  C   UNL     1       2.108   8.440  18.187  0.00  0.00    +0.000 A 
ATOM     24  C   UNL     1       2.409   7.089  17.962  0.00  0.00    +0.000 A 
ATOM     25  C   UNL     1       2.242   6.209  19.042  0.00  0.00    +0.000 A 
ENDBRANCH  16  17
ENDBRANCH   2  16
TORSDOF 5
ENDMDL
MODEL 3
REMARK VINA RESULT:      -6.8      2.901      4.186
REMARK  Name = 
REMARK  5 active torsions:
REMARK  status: ('A' for Active; 'I' for Inactive)
REMARK    1  A    between atoms: C_2  and  C_3
REMARK    2  A    between atoms: C_3  and  N_4
REMARK    3  A    between atoms: N_13  and  C_14
REMARK    4  A    between atoms: N_17  and  C_18
REMARK    5  A    between atoms: C_18  and  C_19
REMARK                            x       y       z     vdW  Elec       q    Type
REMARK                         _______ _______ _______ _____ _____    ______ ____
ROOT
ATOM      1  O   UNL     1       2.218   9.501  17.432  0.00  0.00    +0.000 OA
ATOM      2  C   UNL     1       2.069   8.591  18.247  0.00  0.00    +0.000 C 
ATOM      3  N   UNL     1       2.592   7.360  17.967  0.00  0.00    +0.000 N 
ATOM      4  H   UNL     1       3.055   7.310  17.066  0.00  0.00    +0.000 HD
ENDROOT
BRANCH   3   5
ATOM      5  C   UNL     1       2.479   6.146  18.762  0.00  0.00    +0.000 C 
ATOM      6  C   UNL     1       2.045   4.951  17.916  0.00  0.00    +0.000 C 
ATOM      7  C   UNL     1       2.848   3.804  18.506  0.00  0.00    +0.000 C 
ATOM      8  N   UNL     1       4.156   4.393  18.839  0.00  0.00    +0.000 NA
ATOM      9  C   UNL     1       3.811   5.717  19.397  0.00  0.00    +0.000 C 
BRANCH   8  10
ATOM     10  C   UNL     1       5.007   4.481  17.638  0.00  0.00    +0.000 C 
BRANCH  10  11
ATOM     11  C   UNL     1       6.090   5.507  17.823  0.00  0.00    +0.000 A 
ATOM     12  C   UNL     1       7.154   5.422  18.782  0.00  0.00    +0.000 A 
ATOM     13  C   UNL     1       7.994   6.511  18.741  0.00  0.00    +0.000 A 
ATOM     14  S   UNL     1       7.529   7.635  17.542  0.00  0.00    +0.000 S 
ATOM     15  C   UNL     1       6.199   6.668  17.078  0.00  0.00    +0.000 A 
ENDBRANCH  10  11
ENDBRANCH   8  10
ENDBRANCH   3   5
BRANCH   2  16
ATOM     16  C   UNL     1       1.351   8.810  19.562  0.00  0.00    +0.000 C 
BRANCH  16  17
ATOM     17  N   UNL     1       0.590  10.045  19.588  0.00  0.00    +0.000 N 
ATOM     18  C   UNL     1       0.880  11.146  20.347  0.00  0.00    +0.000 A 
ATOM     19  N   UNL     1       0.019  12.117  20.143  0.00  0.00    +0.000 NA
ATOM     20  C   UNL     1      -0.852  11.636  19.199  0.00  0.00    +0.000 A 
ATOM     21  C   UNL     1      -1.949  12.267  18.596  0.00  0.00    +0.000 A 
ATOM     22  C   UNL     1      -2.695  11.564  17.644  0.00  0.00    +0.000 A 
ATOM     23  C   UNL     1      -2.360  10.253  17.305  0.00  0.00    +0.000 A 
ATOM     24  C   UNL     1      -1.268   9.603  17.895  0.00  0.00    +0.000 A 
ATOM     25  C   UNL     1      -0.525  10.329  18.838  0.00  0.00    +0.000 A 
ENDBRANCH  16  17
ENDBRANCH   2  16
TORSDOF 5
ENDMDL
MODEL 4
REMARK VINA RESULT:      -6.6      4.180      7.870
REMARK  Name = 
REMARK  5 active torsions:
REMARK  status: ('A' for Active; 'I' for Inactive)
REMARK    1  A    between atoms: C_2  and  C_3
REMARK    2  A    between atoms: C_3  and  N_4
REMARK    3  A    between atoms: N_13  and  C_14
REMARK    4  A    between atoms: N_17  and  C_18
REMARK    5  A    between atoms: C_18  and  C_19
REMARK                            x       y       z     vdW  Elec       q    Type
REMARK                         _______ _______ _______ _____ _____    ______ ____
ROOT
ATOM      1  O   UNL     1       5.531   6.824  17.248  0.00  0.00    +0.000 OA
ATOM      2  C   UNL     1       4.332   6.679  17.487  0.00  0.00    +0.000 C 
ATOM      3  N   UNL     1       3.613   7.751  17.934  0.00  0.00    +0.000 N 
ATOM      4  H   UNL     1       4.167   8.594  18.049  0.00  0.00    +0.000 HD
ENDROOT
BRANCH   3   5
ATOM      5  C   UNL     1       2.212   7.779  18.327  0.00  0.00    +0.000 C 
ATOM      6  C   UNL     1       2.040   8.158  19.797  0.00  0.00    +0.000 C 
ATOM      7  C   UNL     1       0.790   9.021  19.784  0.00  0.00    +0.000 C 
ATOM      8  N   UNL     1       0.883   9.799  18.538  0.00  0.00    +0.000 NA
ATOM      9  C   UNL     1       1.390   8.822  17.552  0.00  0.00    +0.000 C 
BRANCH   8  10
ATOM     10  C   UNL     1       1.781  10.955  18.713  0.00  0.00    +0.000 C 
BRANCH  10  11
ATOM     11  C   UNL     1       1.074  12.081  19.414  0.00  0.00    +0.000 A 
ATOM     12  C   UNL     1       1.571  12.783  20.562  0.00  0.00    +0.000 A 
ATOM     13  C   UNL     1       0.707  13.758  21.005  0.00  0.00    +0.000 A 
ATOM     14  S   UNL     1      -0.699  13.855  20.039  0.00  0.00    +0.000 S 
ATOM     15  C   UNL     1      -0.154  12.589  19.028  0.00  0.00    +0.000 A 
ENDBRANCH  10  11
ENDBRANCH   8  10
ENDBRANCH   3   5
BRANCH   2  16
ATOM     16  C   UNL     1       3.631   5.356  17.268  0.00  0.00    +0.000 C 
BRANCH  16  17
ATOM     17  N   UNL     1       3.816   4.432  18.372  0.00  0.00    +0.000 N 
ATOM     18  C   UNL     1       4.998   3.844  18.732  0.00  0.00    +0.000 A 
ATOM     19  N   UNL     1       4.855   3.070  19.783  0.00  0.00    +0.000 NA
ATOM     20  C   UNL     1       3.533   3.174  20.132  0.00  0.00    +0.000 A 
ATOM     21  C   UNL     1       2.844   2.579  21.198  0.00  0.00    +0.000 A 
ATOM     22  C   UNL     1       1.478   2.843  21.353  0.00  0.00    +0.000 A 
ATOM     23  C   UNL     1       0.809   3.677  20.457  0.00  0.00    +0.000 A 
ATOM     24  C   UNL     1       1.478   4.284  19.385  0.00  0.00    +0.000 A 
ATOM     25  C   UNL     1       2.850   4.016  19.255  0.00  0.00    +0.000 A 
ENDBRANCH  16  17
ENDBRANCH   2  16
TORSDOF 5
ENDMDL
MODEL 5
REMARK VINA RESULT:      -6.6      3.486      7.750
REMARK  Name = 
REMARK  5 active torsions:
REMARK  status: ('A' for Active; 'I' for Inactive)
REMARK    1  A    between atoms: C_2  and  C_3
REMARK    2  A    between atoms: C_3  and  N_4
REMARK    3  A    between atoms: N_13  and  C_14
REMARK    4  A    between atoms: N_17  and  C_18
REMARK    5  A    between atoms: C_18  and  C_19
REMARK                            x       y       z     vdW  Elec       q    Type
REMARK                         _______ _______ _______ _____ _____    ______ ____
ROOT
ATOM      1  O   UNL     1       0.939   3.696  20.456  0.00  0.00    +0.000 OA
ATOM      2  C   UNL     1       1.833   4.517  20.249  0.00  0.00    +0.000 C 
ATOM      3  N   UNL     1       1.492   5.803  19.942  0.00  0.00    +0.000 N 
ATOM      4  H   UNL     1       0.491   5.959  19.895  0.00  0.00    +0.000 HD
ENDROOT
BRANCH   3   5
ATOM      5  C   UNL     1       2.385   6.903  19.608  0.00  0.00    +0.000 C 
ATOM      6  C   UNL     1       2.606   7.018  18.101  0.00  0.00    +0.000 C 
ATOM      7  C   UNL     1       2.656   8.520  17.876  0.00  0.00    +0.000 C 
ATOM      8  N   UNL     1       1.653   9.072  18.802  0.00  0.00    +0.000 NA
ATOM      9  C   UNL     1       1.836   8.274  20.033  0.00  0.00    +0.000 C 
BRANCH   8  10
ATOM     10  C   UNL     1       0.297   8.947  18.235  0.00  0.00    +0.000 C 
BRANCH  10  11
ATOM     11  C   UNL     1      -0.441  10.253  18.321  0.00  0.00    +0.000 A 
ATOM     12  C   UNL     1      -1.713  10.526  17.716  0.00  0.00    +0.000 A 
ATOM     13  C   UNL     1      -2.147  11.812  17.945  0.00  0.00    +0.000 A 
ATOM     14  S   UNL     1      -1.043  12.699  18.901  0.00  0.00    +0.000 S 
ATOM     15  C   UNL     1       0.018  11.364  19.008  0.00  0.00    +0.000 A 
ENDBRANCH  10  11
ENDBRANCH   8  10
ENDBRANCH   3   5
BRANCH   2  16
ATOM     16  C   UNL     1       3.296   4.143  20.356  0.00  0.00    +0.000 C 
BRANCH  16  17
ATOM     17  N   UNL     1       3.926   3.959  19.062  0.00  0.00    +0.000 N 
ATOM     18  C   UNL     1       3.412   3.237  18.019  0.00  0.00    +0.000 A 
ATOM     19  N   UNL     1       4.203   3.268  16.971  0.00  0.00    +0.000 NA
ATOM     20  C   UNL     1       5.262   4.058  17.339  0.00  0.00    +0.000 A 
ATOM     21  C   UNL     1       6.383   4.449  16.594  0.00  0.00    +0.000 A 
ATOM     22  C   UNL     1       7.341   5.274  17.195  0.00  0.00    +0.000 A 
ATOM     23  C   UNL     1       7.190   5.693  18.516  0.00  0.00    +0.000 A 
ATOM     24  C   UNL     1       6.077   5.316  19.279  0.00  0.00    +0.000 A 
ATOM     25  C   UNL     1       5.121   4.499  18.655  0.00  0.00    +0.000 A 
ENDBRANCH  16  17
ENDBRANCH   2  16
TORSDOF 5
ENDMDL
MODEL 6
REMARK VINA RESULT:      -6.6      4.140      8.605
REMARK  Name = 
REMARK  5 active torsions:
REMARK  status: ('A' for Active; 'I' for Inactive)
REMARK    1  A    between atoms: C_2  and  C_3
REMARK    2  A    between atoms: C_3  and  N_4
REMARK    3  A    between atoms: N_13  and  C_14
REMARK    4  A    between atoms: N_17  and  C_18
REMARK    5  A    between atoms: C_18  and  C_19
REMARK                            x       y       z     vdW  Elec       q    Type
REMARK                         _______ _______ _______ _____ _____    ______ ____
ROOT
ATOM      1  O   UNL     1       2.729   8.388  17.058  0.00  0.00    +0.000 OA
ATOM      2  C   UNL     1       2.225   8.448  18.179  0.00  0.00    +0.000 C 
ATOM      3  N   UNL     1       1.506   9.558  18.522  0.00  0.00    +0.000 N 
ATOM      4  H   UNL     1       1.473  10.263  17.794  0.00  0.00    +0.000 HD
ENDROOT
BRANCH   3   5
ATOM      5  C   UNL     1       0.883   9.850  19.805  0.00  0.00    +0.000 C 
ATOM      6  C   UNL     1       1.233  11.252  20.301  0.00  0.00    +0.000 C 
ATOM      7  C   UNL     1      -0.060  11.720  20.947  0.00  0.00    +0.000 C 
ATOM      8  N   UNL     1      -1.126  11.183  20.085  0.00  0.00    +0.000 NA
ATOM      9  C   UNL     1      -0.653   9.824  19.748  0.00  0.00    +0.000 C 
BRANCH   8  10
ATOM     10  C   UNL     1      -1.313  12.036  18.897  0.00  0.00    +0.000 C 
BRANCH  10  11
ATOM     11  C   UNL     1      -2.556  11.646  18.148  0.00  0.00    +0.000 A 
ATOM     12  C   UNL     1      -2.585  11.084  16.828  0.00  0.00    +0.000 A 
ATOM     13  C   UNL     1      -3.864  10.838  16.382  0.00  0.00    +0.000 A 
ATOM     14  S   UNL     1      -5.040  11.261  17.546  0.00  0.00    +0.000 S 
ATOM     15  C   UNL     1      -3.840  11.777  18.648  0.00  0.00    +0.000 A 
ENDBRANCH  10  11
ENDBRANCH   8  10
ENDBRANCH   3   5
BRANCH   2  16
ATOM     16  C   UNL     1       2.355   7.313  19.172  0.00  0.00    +0.000 C 
BRANCH  16  17
ATOM     17  N   UNL     1       3.124   6.197  18.652  0.00  0.00    +0.000 N 
ATOM     18  C   UNL     1       4.440   6.239  18.279  0.00  0.00    +0.000 A 
ATOM     19  N   UNL     1       4.864   5.067  17.865  0.00  0.00    +0.000 NA
ATOM     20  C   UNL     1       3.789   4.226  17.994  0.00  0.00    +0.000 A 
ATOM     21  C   UNL     1       3.693   2.854  17.721  0.00  0.00    +0.000 A 
ATOM     22  C   UNL     1       2.473   2.204  17.938  0.00  0.00    +0.000 A 
ATOM     23  C   UNL     1       1.366   2.909  18.408  0.00  0.00    +0.000 A 
ATOM     24  C   UNL     1       1.438   4.280  18.688  0.00  0.00    +0.000 A 
ATOM     25  C   UNL     1       2.674   4.911  18.476  0.00  0.00    +0.000 A 
ENDBRANCH  16  17
ENDBRANCH   2  16
TORSDOF 5
ENDMDL
MODEL 7
REMARK VINA RESULT:      -6.5      4.027      8.428
REMARK  Name = 
REMARK  5 active torsions:
REMARK  status: ('A' for Active; 'I' for Inactive)
REMARK    1  A    between atoms: C_2  and  C_3
REMARK    2  A    between atoms: C_3  and  N_4
REMARK    3  A    between atoms: N_13  and  C_14
REMARK    4  A    between atoms: N_17  and  C_18
REMARK    5  A    between atoms: C_18  and  C_19
REMARK                            x       y       z     vdW  Elec       q    Type
REMARK                         _______ _______ _______ _____ _____    ______ ____
ROOT
ATOM      1  O   UNL     1       2.743   8.310  17.095  0.00  0.00    +0.000 OA
ATOM      2  C   UNL     1       2.255   8.435  18.218  0.00  0.00    +0.000 C 
ATOM      3  N   UNL     1       1.438   9.501  18.469  0.00  0.00    +0.000 N 
ATOM      4  H   UNL     1       1.325  10.122  17.675  0.00  0.00    +0.000 HD
ENDROOT
BRANCH   3   5
ATOM      5  C   UNL     1       0.813   9.861  19.733  0.00  0.00    +0.000 C 
ATOM      6  C   UNL     1       1.202  11.269  20.179  0.00  0.00    +0.000 C 
ATOM      7  C   UNL     1      -0.081  11.801  20.793  0.00  0.00    +0.000 C 
ATOM      8  N   UNL     1      -1.156  11.265  19.940  0.00  0.00    +0.000 NA
ATOM      9  C   UNL     1      -0.722   9.881  19.660  0.00  0.00    +0.000 C 
BRANCH   8  10
ATOM     10  C   UNL     1      -1.304  12.078  18.719  0.00  0.00    +0.000 C 
BRANCH  10  11
ATOM     11  C   UNL     1      -2.482  11.616  17.908  0.00  0.00    +0.000 A 
ATOM     12  C   UNL     1      -3.847  11.626  18.351  0.00  0.00    +0.000 A 
ATOM     13  C   UNL     1      -4.717  11.131  17.406  0.00  0.00    +0.000 A 
ATOM     14  S   UNL     1      -3.910  10.667  15.974  0.00  0.00    +0.000 S 
ATOM     15  C   UNL     1      -2.394  11.124  16.617  0.00  0.00    +0.000 A 
ENDBRANCH  10  11
ENDBRANCH   8  10
ENDBRANCH   3   5
BRANCH   2  16
ATOM     16  C   UNL     1       2.511   7.423  19.314  0.00  0.00    +0.000 C 
BRANCH  16  17
ATOM     17  N   UNL     1       2.811   6.099  18.798  0.00  0.00    +0.000 N 
ATOM     18  C   UNL     1       3.720   5.811  17.817  0.00  0.00    +0.000 A 
ATOM     19  N   UNL     1       3.782   4.521  17.578  0.00  0.00    +0.000 NA
ATOM     20  C   UNL     1       2.894   3.947  18.451  0.00  0.00    +0.000 A 
ATOM     21  C   UNL     1       2.583   2.594  18.642  0.00  0.00    +0.000 A 
ATOM     22  C   UNL     1       1.632   2.248  19.610  0.00  0.00    +0.000 A 
ATOM     23  C   UNL     1       0.997   3.234  20.365  0.00  0.00    +0.000 A 
ATOM     24  C   UNL     1       1.293   4.592  20.191  0.00  0.00    +0.000 A 
ATOM     25  C   UNL     1       2.258   4.917  19.225  0.00  0.00    +0.000 A 
ENDBRANCH  16  17
ENDBRANCH   2  16
TORSDOF 5
ENDMDL
MODEL 8
REMARK VINA RESULT:      -6.4      2.717      3.613
REMARK  Name = 
REMARK  5 active torsions:
REMARK  status: ('A' for Active; 'I' for Inactive)
REMARK    1  A    between atoms: C_2  and  C_3
REMARK    2  A    between atoms: C_3  and  N_4
REMARK    3  A    between atoms: N_13  and  C_14
REMARK    4  A    between atoms: N_17  and  C_18
REMARK    5  A    between atoms: C_18  and  C_19
REMARK                            x       y       z     vdW  Elec       q    Type
REMARK                         _______ _______ _______ _____ _____    ______ ____
ROOT
ATOM      1  O   UNL     1       2.590   8.944  17.743  0.00  0.00    +0.000 OA
ATOM      2  C   UNL     1       2.317   7.979  18.456  0.00  0.00    +0.000 C 
ATOM      3  N   UNL     1       2.551   6.719  17.981  0.00  0.00    +0.000 N 
ATOM      4  H   UNL     1       2.925   6.703  17.038  0.00  0.00    +0.000 HD
ENDROOT
BRANCH   3   5
ATOM      5  C   UNL     1       2.248   5.454  18.634  0.00  0.00    +0.000 C 
ATOM      6  C   UNL     1       1.648   4.441  17.661  0.00  0.00    +0.000 C 
ATOM      7  C   UNL     1       2.263   3.127  18.112  0.00  0.00    +0.000 C 
ATOM      8  N   UNL     1       3.641   3.471  18.500  0.00  0.00    +0.000 NA
ATOM      9  C   UNL     1       3.494   4.760  19.207  0.00  0.00    +0.000 C 
BRANCH   8  10
ATOM     10  C   UNL     1       4.508   3.565  17.311  0.00  0.00    +0.000 C 
BRANCH  10  11
ATOM     11  C   UNL     1       5.540   4.643  17.485  0.00  0.00    +0.000 A 
ATOM     12  C   UNL     1       5.662   5.812  16.661  0.00  0.00    +0.000 A 
ATOM     13  C   UNL     1       6.708   6.623  17.040  0.00  0.00    +0.000 A 
ATOM     14  S   UNL     1       7.541   6.002  18.396  0.00  0.00    +0.000 S 
ATOM     15  C   UNL     1       6.505   4.645  18.477  0.00  0.00    +0.000 A 
ENDBRANCH  10  11
ENDBRANCH   8  10
ENDBRANCH   3   5
BRANCH   2  16
ATOM     16  C   UNL     1       1.761   8.153  19.853  0.00  0.00    +0.000 C 
BRANCH  16  17
ATOM     17  N   UNL     1       0.879   9.300  19.968  0.00  0.00    +0.000 N 
ATOM     18  C   UNL     1       0.483  10.110  18.938  0.00  0.00    +0.000 A 
ATOM     19  N   UNL     1      -0.330  11.055  19.349  0.00  0.00    +0.000 NA
ATOM     20  C   UNL     1      -0.486  10.839  20.694  0.00  0.00    +0.000 A 
ATOM     21  C   UNL     1      -1.270  11.538  21.623  0.00  0.00    +0.000 A 
ATOM     22  C   UNL     1      -1.268  11.121  22.960  0.00  0.00    +0.000 A 
ATOM     23  C   UNL     1      -0.492  10.035  23.364  0.00  0.00    +0.000 A 
ATOM     24  C   UNL     1       0.298   9.322  22.453  0.00  0.00    +0.000 A 
ATOM     25  C   UNL     1       0.273   9.748  21.116  0.00  0.00    +0.000 A 
ENDBRANCH  16  17
ENDBRANCH   2  16
TORSDOF 5
ENDMDL
MODEL 9
REMARK VINA RESULT:      -6.4      4.565      9.791
REMARK  Name = 
REMARK  5 active torsions:
REMARK  status: ('A' for Active; 'I' for Inactive)
REMARK    1  A    between atoms: C_2  and  C_3
REMARK    2  A    between atoms: C_3  and  N_4
REMARK    3  A    between atoms: N_13  and  C_14
REMARK    4  A    between atoms: N_17  and  C_18
REMARK    5  A    between atoms: C_18  and  C_19
REMARK                            x       y       z     vdW  Elec       q    Type
REMARK                         _______ _______ _______ _____ _____    ______ ____
ROOT
ATOM      1  O   UNL     1       2.145   6.742  20.552  0.00  0.00    +0.000 OA
ATOM      2  C   UNL     1       1.852   7.725  19.873  0.00  0.00    +0.000 C 
ATOM      3  N   UNL     1       1.315   8.819  20.490  0.00  0.00    +0.000 N 
ATOM      4  H   UNL     1       1.188   8.701  21.489  0.00  0.00    +0.000 HD
ENDROOT
BRANCH   3   5
ATOM      5  C   UNL     1       0.851  10.050  19.868  0.00  0.00    +0.000 C 
ATOM      6  C   UNL     1      -0.658  10.032  19.628  0.00  0.00    +0.000 C 
ATOM      7  C   UNL     1      -1.069  11.464  19.923  0.00  0.00    +0.000 C 
ATOM      8  N   UNL     1      -0.225  11.871  21.059  0.00  0.00    +0.000 NA
ATOM      9  C   UNL     1       1.096  11.294  20.737  0.00  0.00    +0.000 C 
BRANCH   8  10
ATOM     10  C   UNL     1      -0.780  11.362  22.327  0.00  0.00    +0.000 C 
BRANCH  10  11
ATOM     11  C   UNL     1      -1.647  12.397  22.986  0.00  0.00    +0.000 A 
ATOM     12  C   UNL     1      -3.004  12.195  23.405  0.00  0.00    +0.000 A 
ATOM     13  C   UNL     1      -3.561  13.322  23.967  0.00  0.00    +0.000 A 
ATOM     14  S   UNL     1      -2.458  14.625  24.014  0.00  0.00    +0.000 S 
ATOM     15  C   UNL     1      -1.235  13.685  23.280  0.00  0.00    +0.000 A 
ENDBRANCH  10  11
ENDBRANCH   8  10
ENDBRANCH   3   5
BRANCH   2  16
ATOM     16  C   UNL     1       2.101   7.763  18.380  0.00  0.00    +0.000 C 
BRANCH  16  17
ATOM     17  N   UNL     1       3.052   6.759  17.942  0.00  0.00    +0.000 N 
ATOM     18  C   UNL     1       4.358   6.989  17.603  0.00  0.00    +0.000 A 
ATOM     19  N   UNL     1       4.973   5.880  17.264  0.00  0.00    +0.000 NA
ATOM     20  C   UNL     1       4.039   4.887  17.409  0.00  0.00    +0.000 A 
ATOM     21  C   UNL     1       4.168   3.506  17.209  0.00  0.00    +0.000 A 
ATOM     22  C   UNL     1       3.057   2.683  17.428  0.00  0.00    +0.000 A 
ATOM     23  C   UNL     1       1.838   3.227  17.829  0.00  0.00    +0.000 A 
ATOM     24  C   UNL     1       1.686   4.605  18.037  0.00  0.00    +0.000 A 
ATOM     25  C   UNL     1       2.815   5.411  17.824  0.00  0.00    +0.000 A 
ENDBRANCH  16  17
ENDBRANCH   2  16
TORSDOF 5
ENDMDL
