MODEL 1
REMARK VINA RESULT:      -8.7      0.000      0.000
REMARK  Name = 
REMARK  5 active torsions:
REMARK  status: ('A' for Active; 'I' for Inactive)
REMARK    1  A    between atoms: C_1  and  N_2
REMARK    2  A    between atoms: C_8  and  C_9
REMARK    3  A    between atoms: C_11  and  C_12
REMARK    4  A    between atoms: N_14  and  C_15
REMARK    5  A    between atoms: C_26  and  C_27
REMARK                            x       y       z     vdW  Elec       q    Type
REMARK                         _______ _______ _______ _____ _____    ______ ____
ROOT
ATOM      1  C   UNL     1      -0.201  11.989  19.646  0.00  0.00    +0.000 A 
ATOM      2  C   UNL     1       0.156  10.675  19.271  0.00  0.00    +0.000 A 
ATOM      3  C   UNL     1       1.330  10.378  18.556  0.00  0.00    +0.000 A 
ATOM      4  C   UNL     1       2.194  11.402  18.191  0.00  0.00    +0.000 A 
ATOM      5  C   UNL     1       1.888  12.708  18.564  0.00  0.00    +0.000 A 
ATOM      6  C   UNL     1       0.707  13.021  19.281  0.00  0.00    +0.000 A 
ATOM      7  C   UNL     1       0.497  14.479  19.605  0.00  0.00    +0.000 C 
ENDROOT
BRANCH   1  15
ATOM      8  C   UNL     1      -7.584  12.486  23.557  0.00  0.00    +0.000 C 
ATOM      9  N   UNL     1      -6.427  12.882  24.329  0.00  0.00    +0.000 N 
ATOM     10  C   UNL     1      -5.219  12.689  23.674  0.00  0.00    +0.000 A 
ATOM     11  N   UNL     1      -4.169  12.384  24.447  0.00  0.00    +0.000 NA
ATOM     12  C   UNL     1      -2.994  12.187  23.819  0.00  0.00    +0.000 A 
ATOM     13  C   UNL     1      -2.824  12.269  22.445  0.00  0.00    +0.000 A 
ATOM     14  C   UNL     1      -1.602  12.049  21.760  0.00  0.00    +0.000 A 
ATOM     15  C   UNL     1      -1.495  12.198  20.360  0.00  0.00    +0.000 A 
ATOM     16  C   UNL     1      -2.669  12.587  19.701  0.00  0.00    +0.000 A 
ATOM     17  C   UNL     1      -3.886  12.746  20.378  0.00  0.00    +0.000 A 
ATOM     18  C   UNL     1      -3.980  12.601  21.746  0.00  0.00    +0.000 A 
ATOM     19  N   UNL     1      -5.160  12.800  22.342  0.00  0.00    +0.000 NA
ATOM     20  H   UNL     1      -6.329  12.446  25.238  0.00  0.00    +0.000 HD
ENDBRANCH   1  15
BRANCH   3  21
ATOM     21  C   UNL     1       1.551   8.975  18.129  0.00  0.00    +0.000 C 
ATOM     22  O   UNL     1       0.784   8.531  17.275  0.00  0.00    +0.000 OA
ATOM     23  N   UNL     1       2.567   8.286  18.768  0.00  0.00    +0.000 N 
ATOM     24  H   UNL     1       2.969   8.701  19.597  0.00  0.00    +0.000 HD
BRANCH  23  25
ATOM     25  C   UNL     1       2.991   6.972  18.447  0.00  0.00    +0.000 A 
ATOM     26  C   UNL     1       3.893   6.709  17.407  0.00  0.00    +0.000 A 
ATOM     27  C   UNL     1       4.287   5.402  17.091  0.00  0.00    +0.000 A 
ATOM     28  C   UNL     1       3.798   4.326  17.820  0.00  0.00    +0.000 A 
ATOM     29  C   UNL     1       2.921   4.580  18.861  0.00  0.00    +0.000 A 
ATOM     30  C   UNL     1       2.519   5.884  19.182  0.00  0.00    +0.000 A 
ATOM     31  C   UNL     1       1.530   5.866  20.305  0.00  0.00    +0.000 C 
ATOM     32  C   UNL     1       1.414   4.380  20.683  0.00  0.00    +0.000 C 
ATOM     33  C   UNL     1       2.281   3.552  19.732  0.00  0.00    +0.000 C 
ENDBRANCH  23  25
ENDBRANCH   3  21
TORSDOF 3
ENDMDL
MODEL 2
REMARK VINA RESULT:      -8.7      3.458      4.775
REMARK  Name = 
REMARK  5 active torsions:
REMARK  status: ('A' for Active; 'I' for Inactive)
REMARK    1  A    between atoms: C_1  and  N_2
REMARK    2  A    between atoms: C_8  and  C_9
REMARK    3  A    between atoms: C_11  and  C_12
REMARK    4  A    between atoms: N_14  and  C_15
REMARK    5  A    between atoms: C_26  and  C_27
REMARK                            x       y       z     vdW  Elec       q    Type
REMARK                         _______ _______ _______ _____ _____    ______ ____
ROOT
ATOM      1  C   UNL     1       0.272  10.876  20.739  0.00  0.00    +0.000 A 
ATOM      2  C   UNL     1       0.936   9.869  20.004  0.00  0.00    +0.000 A 
ATOM      3  C   UNL     1       1.119   8.563  20.494  0.00  0.00    +0.000 A 
ATOM      4  C   UNL     1       0.635   8.223  21.750  0.00  0.00    +0.000 A 
ATOM      5  C   UNL     1      -0.046   9.182  22.493  0.00  0.00    +0.000 A 
ATOM      6  C   UNL     1      -0.234  10.501  22.014  0.00  0.00    +0.000 A 
ATOM      7  C   UNL     1      -0.977  11.439  22.932  0.00  0.00    +0.000 C 
ENDROOT
BRANCH   1  15
ATOM      8  C   UNL     1      -0.838  18.630  17.789  0.00  0.00    +0.000 C 
ATOM      9  N   UNL     1       0.408  18.385  18.481  0.00  0.00    +0.000 N 
ATOM     10  C   UNL     1       0.504  17.117  19.037  0.00  0.00    +0.000 A 
ATOM     11  N   UNL     1       1.214  17.019  20.168  0.00  0.00    +0.000 NA
ATOM     12  C   UNL     1       1.306  15.794  20.720  0.00  0.00    +0.000 A 
ATOM     13  C   UNL     1       0.707  14.659  20.194  0.00  0.00    +0.000 A 
ATOM     14  C   UNL     1       0.775  13.363  20.766  0.00  0.00    +0.000 A 
ATOM     15  C   UNL     1       0.177  12.243  20.146  0.00  0.00    +0.000 A 
ATOM     16  C   UNL     1      -0.473  12.498  18.932  0.00  0.00    +0.000 A 
ATOM     17  C   UNL     1      -0.585  13.792  18.404  0.00  0.00    +0.000 A 
ATOM     18  C   UNL     1       0.004  14.878  19.014  0.00  0.00    +0.000 A 
ATOM     19  N   UNL     1      -0.107  16.083  18.446  0.00  0.00    +0.000 NA
ATOM     20  H   UNL     1       0.642  19.037  19.220  0.00  0.00    +0.000 HD
ENDBRANCH   1  15
BRANCH   3  21
ATOM     21  C   UNL     1       1.920   7.618  19.677  0.00  0.00    +0.000 C 
ATOM     22  O   UNL     1       2.161   7.956  18.520  0.00  0.00    +0.000 OA
ATOM     23  N   UNL     1       2.277   6.426  20.283  0.00  0.00    +0.000 N 
ATOM     24  H   UNL     1       1.827   6.188  21.157  0.00  0.00    +0.000 HD
BRANCH  23  25
ATOM     25  C   UNL     1       3.108   5.433  19.707  0.00  0.00    +0.000 A 
ATOM     26  C   UNL     1       4.486   5.619  19.533  0.00  0.00    +0.000 A 
ATOM     27  C   UNL     1       5.290   4.635  18.944  0.00  0.00    +0.000 A 
ATOM     28  C   UNL     1       4.735   3.431  18.528  0.00  0.00    +0.000 A 
ATOM     29  C   UNL     1       3.377   3.234  18.714  0.00  0.00    +0.000 A 
ATOM     30  C   UNL     1       2.565   4.214  19.299  0.00  0.00    +0.000 A 
ATOM     31  C   UNL     1       1.137   3.765  19.326  0.00  0.00    +0.000 C 
ATOM     32  C   UNL     1       1.177   2.346  18.734  0.00  0.00    +0.000 C 
ATOM     33  C   UNL     1       2.610   2.020  18.309  0.00  0.00    +0.000 C 
ENDBRANCH  23  25
ENDBRANCH   3  21
TORSDOF 3
ENDMDL
MODEL 3
REMARK VINA RESULT:      -8.7      1.137      2.027
REMARK  Name = 
REMARK  5 active torsions:
REMARK  status: ('A' for Active; 'I' for Inactive)
REMARK    1  A    between atoms: C_1  and  N_2
REMARK    2  A    between atoms: C_8  and  C_9
REMARK    3  A    between atoms: C_11  and  C_12
REMARK    4  A    between atoms: N_14  and  C_15
REMARK    5  A    between atoms: C_26  and  C_27
REMARK                            x       y       z     vdW  Elec       q    Type
REMARK                         _______ _______ _______ _____ _____    ______ ____
ROOT
ATOM      1  C   UNL     1      -0.200  11.574  19.659  0.00  0.00    +0.000 A 
ATOM      2  C   UNL     1       0.296  10.255  19.744  0.00  0.00    +0.000 A 
ATOM      3  C   UNL     1       1.458   9.833  19.074  0.00  0.00    +0.000 A 
ATOM      4  C   UNL     1       2.168  10.732  18.289  0.00  0.00    +0.000 A 
ATOM      5  C   UNL     1       1.723  12.048  18.202  0.00  0.00    +0.000 A 
ATOM      6  C   UNL     1       0.553  12.485  18.868  0.00  0.00    +0.000 A 
ATOM      7  C   UNL     1       0.182  13.934  18.671  0.00  0.00    +0.000 C 
ENDROOT
BRANCH   1  15
ATOM      8  C   UNL     1      -7.468  12.741  23.643  0.00  0.00    +0.000 C 
ATOM      9  N   UNL     1      -6.283  13.198  24.334  0.00  0.00    +0.000 N 
ATOM     10  C   UNL     1      -5.097  12.895  23.681  0.00  0.00    +0.000 A 
ATOM     11  N   UNL     1      -4.035  12.660  24.462  0.00  0.00    +0.000 NA
ATOM     12  C   UNL     1      -2.881  12.356  23.838  0.00  0.00    +0.000 A 
ATOM     13  C   UNL     1      -2.744  12.265  22.460  0.00  0.00    +0.000 A 
ATOM     14  C   UNL     1      -1.546  11.930  21.780  0.00  0.00    +0.000 A 
ATOM     15  C   UNL     1      -1.471  11.904  20.371  0.00  0.00    +0.000 A 
ATOM     16  C   UNL     1      -2.651  12.238  19.695  0.00  0.00    +0.000 A 
ATOM     17  C   UNL     1      -3.847  12.511  20.375  0.00  0.00    +0.000 A 
ATOM     18  C   UNL     1      -3.909  12.538  21.751  0.00  0.00    +0.000 A 
ATOM     19  N   UNL     1      -5.069  12.839  22.344  0.00  0.00    +0.000 NA
ATOM     20  H   UNL     1      -6.172  12.875  25.288  0.00  0.00    +0.000 HD
ENDBRANCH   1  15
BRANCH   3  21
ATOM     21  C   UNL     1       1.828   8.398  19.155  0.00  0.00    +0.000 C 
ATOM     22  O   UNL     1       1.684   7.852  20.248  0.00  0.00    +0.000 OA
ATOM     23  N   UNL     1       2.343   7.826  18.004  0.00  0.00    +0.000 N 
ATOM     24  H   UNL     1       2.609   8.444  17.249  0.00  0.00    +0.000 HD
BRANCH  23  25
ATOM     25  C   UNL     1       2.675   6.457  17.851  0.00  0.00    +0.000 A 
ATOM     26  C   UNL     1       1.743   5.432  18.067  0.00  0.00    +0.000 A 
ATOM     27  C   UNL     1       2.092   4.083  17.928  0.00  0.00    +0.000 A 
ATOM     28  C   UNL     1       3.382   3.726  17.554  0.00  0.00    +0.000 A 
ATOM     29  C   UNL     1       4.302   4.734  17.321  0.00  0.00    +0.000 A 
ATOM     30  C   UNL     1       3.962   6.086  17.459  0.00  0.00    +0.000 A 
ATOM     31  C   UNL     1       5.153   6.955  17.204  0.00  0.00    +0.000 C 
ATOM     32  C   UNL     1       6.269   5.966  16.827  0.00  0.00    +0.000 C 
ATOM     33  C   UNL     1       5.729   4.538  16.936  0.00  0.00    +0.000 C 
ENDBRANCH  23  25
ENDBRANCH   3  21
TORSDOF 3
ENDMDL
MODEL 4
REMARK VINA RESULT:      -8.5      3.260      4.960
REMARK  Name = 
REMARK  5 active torsions:
REMARK  status: ('A' for Active; 'I' for Inactive)
REMARK    1  A    between atoms: C_1  and  N_2
REMARK    2  A    between atoms: C_8  and  C_9
REMARK    3  A    between atoms: C_11  and  C_12
REMARK    4  A    between atoms: N_14  and  C_15
REMARK    5  A    between atoms: C_26  and  C_27
REMARK                            x       y       z     vdW  Elec       q    Type
REMARK                         _______ _______ _______ _____ _____    ______ ____
ROOT
ATOM      1  C   UNL     1       0.563  11.094  20.601  0.00  0.00    +0.000 A 
ATOM      2  C   UNL     1       1.183  10.036  19.898  0.00  0.00    +0.000 A 
ATOM      3  C   UNL     1       1.178   8.708  20.360  0.00  0.00    +0.000 A 
ATOM      4  C   UNL     1       0.544   8.395  21.554  0.00  0.00    +0.000 A 
ATOM      5  C   UNL     1      -0.100   9.406  22.262  0.00  0.00    +0.000 A 
ATOM      6  C   UNL     1      -0.099  10.747  21.810  0.00  0.00    +0.000 A 
ATOM      7  C   UNL     1      -0.823  11.740  22.686  0.00  0.00    +0.000 C 
ENDROOT
BRANCH   1  15
ATOM      8  C   UNL     1       0.872  18.601  16.914  0.00  0.00    +0.000 C 
ATOM      9  N   UNL     1       0.131  18.532  18.154  0.00  0.00    +0.000 N 
ATOM     10  C   UNL     1       0.024  17.250  18.675  0.00  0.00    +0.000 A 
ATOM     11  N   UNL     1      -1.098  16.979  19.352  0.00  0.00    +0.000 NA
ATOM     12  C   UNL     1      -1.215  15.735  19.855  0.00  0.00    +0.000 A 
ATOM     13  C   UNL     1      -0.259  14.742  19.699  0.00  0.00    +0.000 A 
ATOM     14  C   UNL     1      -0.367  13.420  20.204  0.00  0.00    +0.000 A 
ATOM     15  C   UNL     1       0.671  12.476  20.046  0.00  0.00    +0.000 A 
ATOM     16  C   UNL     1       1.809  12.934  19.371  0.00  0.00    +0.000 A 
ATOM     17  C   UNL     1       1.884  14.223  18.825  0.00  0.00    +0.000 A 
ATOM     18  C   UNL     1       0.867  15.139  18.987  0.00  0.00    +0.000 A 
ATOM     19  N   UNL     1       1.009  16.366  18.474  0.00  0.00    +0.000 NA
ATOM     20  H   UNL     1      -0.809  18.908  18.131  0.00  0.00    +0.000 HD
ENDBRANCH   1  15
BRANCH   3  21
ATOM     21  C   UNL     1       1.948   7.700  19.590  0.00  0.00    +0.000 C 
ATOM     22  O   UNL     1       2.215   7.982  18.423  0.00  0.00    +0.000 OA
ATOM     23  N   UNL     1       2.249   6.519  20.247  0.00  0.00    +0.000 N 
ATOM     24  H   UNL     1       1.781   6.334  21.123  0.00  0.00    +0.000 HD
BRANCH  23  25
ATOM     25  C   UNL     1       3.045   5.471  19.719  0.00  0.00    +0.000 A 
ATOM     26  C   UNL     1       4.417   5.624  19.474  0.00  0.00    +0.000 A 
ATOM     27  C   UNL     1       5.185   4.584  18.935  0.00  0.00    +0.000 A 
ATOM     28  C   UNL     1       4.600   3.358  18.642  0.00  0.00    +0.000 A 
ATOM     29  C   UNL     1       3.249   3.195  18.899  0.00  0.00    +0.000 A 
ATOM     30  C   UNL     1       2.473   4.230  19.435  0.00  0.00    +0.000 A 
ATOM     31  C   UNL     1       1.043   3.805  19.558  0.00  0.00    +0.000 C 
ATOM     32  C   UNL     1       1.043   2.342  19.083  0.00  0.00    +0.000 C 
ATOM     33  C   UNL     1       2.454   1.963  18.627  0.00  0.00    +0.000 C 
ENDBRANCH  23  25
ENDBRANCH   3  21
TORSDOF 3
ENDMDL
MODEL 5
REMARK VINA RESULT:      -8.4      2.198      9.579
REMARK  Name = 
REMARK  5 active torsions:
REMARK  status: ('A' for Active; 'I' for Inactive)
REMARK    1  A    between atoms: C_1  and  N_2
REMARK    2  A    between atoms: C_8  and  C_9
REMARK    3  A    between atoms: C_11  and  C_12
REMARK    4  A    between atoms: N_14  and  C_15
REMARK    5  A    between atoms: C_26  and  C_27
REMARK                            x       y       z     vdW  Elec       q    Type
REMARK                         _______ _______ _______ _____ _____    ______ ____
ROOT
ATOM      1  C   UNL     1       0.493  10.810  18.789  0.00  0.00    +0.000 A 
ATOM      2  C   UNL     1      -0.916  10.820  18.891  0.00  0.00    +0.000 A 
ATOM      3  C   UNL     1      -1.681  11.992  18.760  0.00  0.00    +0.000 A 
ATOM      4  C   UNL     1      -1.050  13.206  18.520  0.00  0.00    +0.000 A 
ATOM      5  C   UNL     1       0.335  13.231  18.389  0.00  0.00    +0.000 A 
ATOM      6  C   UNL     1       1.118  12.059  18.522  0.00  0.00    +0.000 A 
ATOM      7  C   UNL     1       2.608  12.238  18.371  0.00  0.00    +0.000 C 
ENDROOT
BRANCH   1  15
ATOM      8  C   UNL     1       3.968   3.247  19.669  0.00  0.00    +0.000 C 
ATOM      9  N   UNL     1       4.697   4.190  18.850  0.00  0.00    +0.000 N 
ATOM     10  C   UNL     1       4.035   5.394  18.653  0.00  0.00    +0.000 A 
ATOM     11  N   UNL     1       4.250   6.002  17.479  0.00  0.00    +0.000 NA
ATOM     12  C   UNL     1       3.606   7.166  17.275  0.00  0.00    +0.000 A 
ATOM     13  C   UNL     1       2.742   7.747  18.192  0.00  0.00    +0.000 A 
ATOM     14  C   UNL     1       2.039   8.963  17.993  0.00  0.00    +0.000 A 
ATOM     15  C   UNL     1       1.212   9.517  18.994  0.00  0.00    +0.000 A 
ATOM     16  C   UNL     1       1.143   8.795  20.192  0.00  0.00    +0.000 A 
ATOM     17  C   UNL     1       1.795   7.565  20.359  0.00  0.00    +0.000 A 
ATOM     18  C   UNL     1       2.603   7.033  19.377  0.00  0.00    +0.000 A 
ATOM     19  N   UNL     1       3.228   5.873  19.606  0.00  0.00    +0.000 NA
ATOM     20  H   UNL     1       4.970   3.863  17.931  0.00  0.00    +0.000 HD
ENDBRANCH   1  15
BRANCH   3  21
ATOM     21  C   UNL     1      -3.145  11.898  18.986  0.00  0.00    +0.000 C 
ATOM     22  O   UNL     1      -3.738  10.999  18.393  0.00  0.00    +0.000 OA
ATOM     23  N   UNL     1      -3.707  12.863  19.805  0.00  0.00    +0.000 N 
ATOM     24  H   UNL     1      -3.141  13.665  20.046  0.00  0.00    +0.000 HD
BRANCH  23  25
ATOM     25  C   UNL     1      -5.064  12.898  20.213  0.00  0.00    +0.000 A 
ATOM     26  C   UNL     1      -6.120  12.945  19.293  0.00  0.00    +0.000 A 
ATOM     27  C   UNL     1      -7.456  12.998  19.713  0.00  0.00    +0.000 A 
ATOM     28  C   UNL     1      -7.767  12.989  21.067  0.00  0.00    +0.000 A 
ATOM     29  C   UNL     1      -6.728  12.923  21.980  0.00  0.00    +0.000 A 
ATOM     30  C   UNL     1      -5.390  12.873  21.569  0.00  0.00    +0.000 A 
ATOM     31  C   UNL     1      -4.477  12.865  22.755  0.00  0.00    +0.000 C 
ATOM     32  C   UNL     1      -5.428  12.855  23.964  0.00  0.00    +0.000 C 
ATOM     33  C   UNL     1      -6.872  12.928  23.465  0.00  0.00    +0.000 C 
ENDBRANCH  23  25
ENDBRANCH   3  21
TORSDOF 3
ENDMDL
MODEL 6
REMARK VINA RESULT:      -8.4      2.512      9.640
REMARK  Name = 
REMARK  5 active torsions:
REMARK  status: ('A' for Active; 'I' for Inactive)
REMARK    1  A    between atoms: C_1  and  N_2
REMARK    2  A    between atoms: C_8  and  C_9
REMARK    3  A    between atoms: C_11  and  C_12
REMARK    4  A    between atoms: N_14  and  C_15
REMARK    5  A    between atoms: C_26  and  C_27
REMARK                            x       y       z     vdW  Elec       q    Type
REMARK                         _______ _______ _______ _____ _____    ______ ____
ROOT
ATOM      1  C   UNL     1       0.795  10.350  18.519  0.00  0.00    +0.000 A 
ATOM      2  C   UNL     1      -0.615  10.298  18.463  0.00  0.00    +0.000 A 
ATOM      3  C   UNL     1      -1.414  11.441  18.285  0.00  0.00    +0.000 A 
ATOM      4  C   UNL     1      -0.816  12.688  18.157  0.00  0.00    +0.000 A 
ATOM      5  C   UNL     1       0.573  12.776  18.183  0.00  0.00    +0.000 A 
ATOM      6  C   UNL     1       1.388  11.633  18.365  0.00  0.00    +0.000 A 
ATOM      7  C   UNL     1       2.877  11.879  18.388  0.00  0.00    +0.000 C 
ENDROOT
BRANCH   1  15
ATOM      8  C   UNL     1       4.459   2.902  19.595  0.00  0.00    +0.000 C 
ATOM      9  N   UNL     1       5.186   3.858  18.789  0.00  0.00    +0.000 N 
ATOM     10  C   UNL     1       4.496   5.040  18.557  0.00  0.00    +0.000 A 
ATOM     11  N   UNL     1       4.730   5.641  17.384  0.00  0.00    +0.000 NA
ATOM     12  C   UNL     1       4.059   6.784  17.146  0.00  0.00    +0.000 A 
ATOM     13  C   UNL     1       3.150   7.348  18.028  0.00  0.00    +0.000 A 
ATOM     14  C   UNL     1       2.418   8.541  17.794  0.00  0.00    +0.000 A 
ATOM     15  C   UNL     1       1.545   9.081  18.762  0.00  0.00    +0.000 A 
ATOM     16  C   UNL     1       1.459   8.370  19.965  0.00  0.00    +0.000 A 
ATOM     17  C   UNL     1       2.141   7.161  20.167  0.00  0.00    +0.000 A 
ATOM     18  C   UNL     1       2.994   6.643  19.217  0.00  0.00    +0.000 A 
ATOM     19  N   UNL     1       3.645   5.505  19.479  0.00  0.00    +0.000 NA
ATOM     20  H   UNL     1       5.497   3.529  17.883  0.00  0.00    +0.000 HD
ENDBRANCH   1  15
BRANCH   3  21
ATOM     21  C   UNL     1      -2.888  11.279  18.343  0.00  0.00    +0.000 C 
ATOM     22  O   UNL     1      -3.335  10.184  18.007  0.00  0.00    +0.000 OA
ATOM     23  N   UNL     1      -3.619  12.392  18.722  0.00  0.00    +0.000 N 
ATOM     24  H   UNL     1      -3.139  13.281  18.757  0.00  0.00    +0.000 HD
BRANCH  23  25
ATOM     25  C   UNL     1      -5.022  12.419  18.920  0.00  0.00    +0.000 A 
ATOM     26  C   UNL     1      -5.930  12.319  17.857  0.00  0.00    +0.000 A 
ATOM     27  C   UNL     1      -7.314  12.366  18.069  0.00  0.00    +0.000 A 
ATOM     28  C   UNL     1      -7.823  12.499  19.355  0.00  0.00    +0.000 A 
ATOM     29  C   UNL     1      -6.931  12.578  20.411  0.00  0.00    +0.000 A 
ATOM     30  C   UNL     1      -5.546  12.535  20.208  0.00  0.00    +0.000 A 
ATOM     31  C   UNL     1      -4.820  12.698  21.507  0.00  0.00    +0.000 C 
ATOM     32  C   UNL     1      -5.941  12.787  22.557  0.00  0.00    +0.000 C 
ATOM     33  C   UNL     1      -7.296  12.746  21.848  0.00  0.00    +0.000 C 
ENDBRANCH  23  25
ENDBRANCH   3  21
TORSDOF 3
ENDMDL
MODEL 7
REMARK VINA RESULT:      -8.3      0.692      1.501
REMARK  Name = 
REMARK  5 active torsions:
REMARK  status: ('A' for Active; 'I' for Inactive)
REMARK    1  A    between atoms: C_1  and  N_2
REMARK    2  A    between atoms: C_8  and  C_9
REMARK    3  A    between atoms: C_11  and  C_12
REMARK    4  A    between atoms: N_14  and  C_15
REMARK    5  A    between atoms: C_26  and  C_27
REMARK                            x       y       z     vdW  Elec       q    Type
REMARK                         _______ _______ _______ _____ _____    ______ ____
ROOT
ATOM      1  C   UNL     1      -0.132  11.961  19.762  0.00  0.00    +0.000 A 
ATOM      2  C   UNL     1       0.220  10.652  19.363  0.00  0.00    +0.000 A 
ATOM      3  C   UNL     1       1.371  10.369  18.607  0.00  0.00    +0.000 A 
ATOM      4  C   UNL     1       2.216  11.401  18.223  0.00  0.00    +0.000 A 
ATOM      5  C   UNL     1       1.916  12.702  18.619  0.00  0.00    +0.000 A 
ATOM      6  C   UNL     1       0.758  13.001  19.377  0.00  0.00    +0.000 A 
ATOM      7  C   UNL     1       0.551  14.455  19.721  0.00  0.00    +0.000 C 
ENDROOT
BRANCH   1  15
ATOM      8  C   UNL     1      -7.105  13.732  24.039  0.00  0.00    +0.000 C 
ATOM      9  N   UNL     1      -7.292  13.107  22.748  0.00  0.00    +0.000 N 
ATOM     10  C   UNL     1      -6.115  12.924  22.035  0.00  0.00    +0.000 A 
ATOM     11  N   UNL     1      -6.213  13.002  20.702  0.00  0.00    +0.000 NA
ATOM     12  C   UNL     1      -5.075  12.833  20.002  0.00  0.00    +0.000 A 
ATOM     13  C   UNL     1      -3.835  12.601  20.579  0.00  0.00    +0.000 A 
ATOM     14  C   UNL     1      -2.621  12.438  19.865  0.00  0.00    +0.000 A 
ATOM     15  C   UNL     1      -1.403  12.156  20.521  0.00  0.00    +0.000 A 
ATOM     16  C   UNL     1      -1.478  12.040  21.914  0.00  0.00    +0.000 A 
ATOM     17  C   UNL     1      -2.671  12.260  22.617  0.00  0.00    +0.000 A 
ATOM     18  C   UNL     1      -3.856  12.531  21.968  0.00  0.00    +0.000 A 
ATOM     19  N   UNL     1      -4.970  12.697  22.689  0.00  0.00    +0.000 NA
ATOM     20  H   UNL     1      -7.935  13.573  22.119  0.00  0.00    +0.000 HD
ENDBRANCH   1  15
BRANCH   3  21
ATOM     21  C   UNL     1       1.585   8.970  18.159  0.00  0.00    +0.000 C 
ATOM     22  O   UNL     1       0.845   8.558  17.268  0.00  0.00    +0.000 OA
ATOM     23  N   UNL     1       2.564   8.251  18.822  0.00  0.00    +0.000 N 
ATOM     24  H   UNL     1       2.940   8.643  19.675  0.00  0.00    +0.000 HD
BRANCH  23  25
ATOM     25  C   UNL     1       2.978   6.937  18.491  0.00  0.00    +0.000 A 
ATOM     26  C   UNL     1       3.859   6.674  17.433  0.00  0.00    +0.000 A 
ATOM     27  C   UNL     1       4.244   5.367  17.107  0.00  0.00    +0.000 A 
ATOM     28  C   UNL     1       3.766   4.290  17.844  0.00  0.00    +0.000 A 
ATOM     29  C   UNL     1       2.909   4.545  18.902  0.00  0.00    +0.000 A 
ATOM     30  C   UNL     1       2.517   5.849  19.233  0.00  0.00    +0.000 A 
ATOM     31  C   UNL     1       1.550   5.831  20.374  0.00  0.00    +0.000 C 
ATOM     32  C   UNL     1       1.437   4.344  20.751  0.00  0.00    +0.000 C 
ATOM     33  C   UNL     1       2.284   3.517  19.782  0.00  0.00    +0.000 C 
ENDBRANCH  23  25
ENDBRANCH   3  21
TORSDOF 3
ENDMDL
MODEL 8
REMARK VINA RESULT:      -8.2      4.375      9.240
REMARK  Name = 
REMARK  5 active torsions:
REMARK  status: ('A' for Active; 'I' for Inactive)
REMARK    1  A    between atoms: C_1  and  N_2
REMARK    2  A    between atoms: C_8  and  C_9
REMARK    3  A    between atoms: C_11  and  C_12
REMARK    4  A    between atoms: N_14  and  C_15
REMARK    5  A    between atoms: C_26  and  C_27
REMARK                            x       y       z     vdW  Elec       q    Type
REMARK                         _______ _______ _______ _____ _____    ______ ____
ROOT
ATOM      1  C   UNL     1       0.646  10.807  18.816  0.00  0.00    +0.000 A 
ATOM      2  C   UNL     1       1.417  11.968  19.046  0.00  0.00    +0.000 A 
ATOM      3  C   UNL     1       0.932  13.265  18.800  0.00  0.00    +0.000 A 
ATOM      4  C   UNL     1      -0.355  13.441  18.311  0.00  0.00    +0.000 A 
ATOM      5  C   UNL     1      -1.153  12.320  18.095  0.00  0.00    +0.000 A 
ATOM      6  C   UNL     1      -0.676  11.009  18.335  0.00  0.00    +0.000 A 
ATOM      7  C   UNL     1      -1.645   9.890  18.043  0.00  0.00    +0.000 C 
ENDROOT
BRANCH   1  15
ATOM      8  C   UNL     1       3.608   3.057  19.919  0.00  0.00    +0.000 C 
ATOM      9  N   UNL     1       4.421   3.940  19.113  0.00  0.00    +0.000 N 
ATOM     10  C   UNL     1       3.843   5.179  18.877  0.00  0.00    +0.000 A 
ATOM     11  N   UNL     1       4.135   5.753  17.703  0.00  0.00    +0.000 NA
ATOM     12  C   UNL     1       3.572   6.953  17.460  0.00  0.00    +0.000 A 
ATOM     13  C   UNL     1       2.717   7.601  18.339  0.00  0.00    +0.000 A 
ATOM     14  C   UNL     1       2.098   8.854  18.100  0.00  0.00    +0.000 A 
ATOM     15  C   UNL     1       1.275   9.475  19.064  0.00  0.00    +0.000 A 
ATOM     16  C   UNL     1       1.121   8.778  20.269  0.00  0.00    +0.000 A 
ATOM     17  C   UNL     1       1.689   7.512  20.475  0.00  0.00    +0.000 A 
ATOM     18  C   UNL     1       2.494   6.915  19.529  0.00  0.00    +0.000 A 
ATOM     19  N   UNL     1       3.036   5.723  19.795  0.00  0.00    +0.000 NA
ATOM     20  H   UNL     1       4.704   3.581  18.209  0.00  0.00    +0.000 HD
ENDBRANCH   1  15
BRANCH   3  21
ATOM     21  C   UNL     1       1.866  14.404  18.982  0.00  0.00    +0.000 C 
ATOM     22  O   UNL     1       1.502  15.492  18.537  0.00  0.00    +0.000 OA
ATOM     23  N   UNL     1       3.076  14.121  19.592  0.00  0.00    +0.000 N 
ATOM     24  H   UNL     1       3.330  13.150  19.708  0.00  0.00    +0.000 HD
BRANCH  23  25
ATOM     25  C   UNL     1       4.063  15.080  19.933  0.00  0.00    +0.000 A 
ATOM     26  C   UNL     1       3.917  15.948  21.024  0.00  0.00    +0.000 A 
ATOM     27  C   UNL     1       4.895  16.903  21.336  0.00  0.00    +0.000 A 
ATOM     28  C   UNL     1       6.050  17.001  20.570  0.00  0.00    +0.000 A 
ATOM     29  C   UNL     1       6.208  16.133  19.502  0.00  0.00    +0.000 A 
ATOM     30  C   UNL     1       5.235  15.177  19.182  0.00  0.00    +0.000 A 
ATOM     31  C   UNL     1       5.631  14.416  17.956  0.00  0.00    +0.000 C 
ATOM     32  C   UNL     1       7.013  14.983  17.590  0.00  0.00    +0.000 C 
ATOM     33  C   UNL     1       7.366  16.110  18.563  0.00  0.00    +0.000 C 
ENDBRANCH  23  25
ENDBRANCH   3  21
TORSDOF 3
ENDMDL
MODEL 9
REMARK VINA RESULT:      -8.2      3.471      9.623
REMARK  Name = 
REMARK  5 active torsions:
REMARK  status: ('A' for Active; 'I' for Inactive)
REMARK    1  A    between atoms: C_1  and  N_2
REMARK    2  A    between atoms: C_8  and  C_9
REMARK    3  A    between atoms: C_11  and  C_12
REMARK    4  A    between atoms: N_14  and  C_15
REMARK    5  A    between atoms: C_26  and  C_27
REMARK                            x       y       z     vdW  Elec       q    Type
REMARK                         _______ _______ _______ _____ _____    ______ ____
ROOT
ATOM      1  C   UNL     1       0.627  10.161  20.873  0.00  0.00    +0.000 A 
ATOM      2  C   UNL     1       0.876  11.525  20.603  0.00  0.00    +0.000 A 
ATOM      3  C   UNL     1       0.262  12.568  21.318  0.00  0.00    +0.000 A 
ATOM      4  C   UNL     1      -0.631  12.273  22.339  0.00  0.00    +0.000 A 
ATOM      5  C   UNL     1      -0.883  10.940  22.651  0.00  0.00    +0.000 A 
ATOM      6  C   UNL     1      -0.275   9.880  21.936  0.00  0.00    +0.000 A 
ATOM      7  C   UNL     1      -0.652   8.486  22.371  0.00  0.00    +0.000 C 
ENDROOT
BRANCH   1  15
ATOM      8  C   UNL     1       4.972   4.682  16.273  0.00  0.00    +0.000 C 
ATOM      9  N   UNL     1       4.119   4.119  17.296  0.00  0.00    +0.000 N 
ATOM     10  C   UNL     1       3.497   5.067  18.096  0.00  0.00    +0.000 A 
ATOM     11  N   UNL     1       3.275   4.714  19.368  0.00  0.00    +0.000 NA
ATOM     12  C   UNL     1       2.678   5.630  20.155  0.00  0.00    +0.000 A 
ATOM     13  C   UNL     1       2.304   6.895  19.726  0.00  0.00    +0.000 A 
ATOM     14  C   UNL     1       1.691   7.883  20.539  0.00  0.00    +0.000 A 
ATOM     15  C   UNL     1       1.294   9.134  20.019  0.00  0.00    +0.000 A 
ATOM     16  C   UNL     1       1.535   9.326  18.653  0.00  0.00    +0.000 A 
ATOM     17  C   UNL     1       2.194   8.367  17.870  0.00  0.00    +0.000 A 
ATOM     18  C   UNL     1       2.575   7.147  18.386  0.00  0.00    +0.000 A 
ATOM     19  N   UNL     1       3.168   6.258  17.582  0.00  0.00    +0.000 NA
ATOM     20  H   UNL     1       4.559   3.460  17.928  0.00  0.00    +0.000 HD
ENDBRANCH   1  15
BRANCH   3  21
ATOM     21  C   UNL     1       0.522  13.962  20.880  0.00  0.00    +0.000 C 
ATOM     22  O   UNL     1       1.166  14.672  21.652  0.00  0.00    +0.000 OA
ATOM     23  N   UNL     1      -0.027  14.342  19.668  0.00  0.00    +0.000 N 
ATOM     24  H   UNL     1      -0.712  13.729  19.247  0.00  0.00    +0.000 HD
BRANCH  23  25
ATOM     25  C   UNL     1       0.176  15.595  19.036  0.00  0.00    +0.000 A 
ATOM     26  C   UNL     1      -0.802  16.599  19.035  0.00  0.00    +0.000 A 
ATOM     27  C   UNL     1      -0.592  17.825  18.390  0.00  0.00    +0.000 A 
ATOM     28  C   UNL     1       0.610  18.081  17.742  0.00  0.00    +0.000 A 
ATOM     29  C   UNL     1       1.587  17.100  17.756  0.00  0.00    +0.000 A 
ATOM     30  C   UNL     1       1.385  15.870  18.396  0.00  0.00    +0.000 A 
ATOM     31  C   UNL     1       2.573  14.980  18.209  0.00  0.00    +0.000 C 
ATOM     32  C   UNL     1       3.571  15.842  17.418  0.00  0.00    +0.000 C 
ATOM     33  C   UNL     1       2.922  17.191  17.098  0.00  0.00    +0.000 C 
ENDBRANCH  23  25
ENDBRANCH   3  21
TORSDOF 3
ENDMDL
