MODEL 1
REMARK VINA RESULT:      -9.0      0.000      0.000
REMARK  Name = 
REMARK  8 active torsions:
REMARK  status: ('A' for Active; 'I' for Inactive)
REMARK    1  A    between atoms: C_1  and  O_2
REMARK    2  A    between atoms: O_2  and  C_3
REMARK    3  A    between atoms: C_8  and  C_9
REMARK    4  A    between atoms: N_11  and  C_12
REMARK    5  A    between atoms: C_15  and  O_16
REMARK    6  A    between atoms: O_16  and  C_17
REMARK    7  A    between atoms: C_17  and  C_18
REMARK    8  A    between atoms: C_25  and  C_26
REMARK                            x       y       z     vdW  Elec       q    Type
REMARK                         _______ _______ _______ _____ _____    ______ ____
ROOT
ATOM      1  C   UNL     1       8.077   7.336  18.408  0.00  0.00    +0.000 A 
ATOM      2  C   UNL     1       7.855   6.165  19.139  0.00  0.00    +0.000 A 
ATOM      3  C   UNL     1       7.047   5.142  18.636  0.00  0.00    +0.000 A 
ATOM      4  C   UNL     1       6.429   5.273  17.399  0.00  0.00    +0.000 A 
ATOM      5  C   UNL     1       6.658   6.423  16.642  0.00  0.00    +0.000 A 
ATOM      6  C   UNL     1       7.464   7.458  17.155  0.00  0.00    +0.000 A 
ENDROOT
BRANCH   1   9
ATOM      7  C   UNL     1       8.760   9.729  18.504  0.00  0.00    +0.000 C 
ATOM      8  O   UNL     1       7.877  10.158  17.761  0.00  0.00    +0.000 OA
ATOM      9  N   UNL     1       8.875   8.405  18.889  0.00  0.00    +0.000 N 
ATOM     10  H   UNL     1       9.555   8.198  19.616  0.00  0.00    +0.000 HD
BRANCH   7  16
ATOM     11  C   UNL     1       9.783  11.220  20.364  0.00  0.00    +0.000 A 
ATOM     12  C   UNL     1      10.778  12.155  20.707  0.00  0.00    +0.000 A 
ATOM     13  C   UNL     1      11.729  12.583  19.774  0.00  0.00    +0.000 A 
ATOM     14  C   UNL     1      11.701  12.089  18.481  0.00  0.00    +0.000 A 
ATOM     15  C   UNL     1      10.714  11.174  18.123  0.00  0.00    +0.000 A 
ATOM     16  C   UNL     1       9.741  10.729  19.046  0.00  0.00    +0.000 A 
BRANCH  11  18
ATOM     17  C   UNL     1       8.452  11.736  22.266  0.00  0.00    +0.000 C 
ATOM     18  O   UNL     1       8.828  10.796  21.257  0.00  0.00    +0.000 OA
ENDBRANCH  11  18
ENDBRANCH   7  16
ENDBRANCH   1   9
BRANCH   4  19
ATOM     19  O   UNL     1       5.646   4.211  17.044  0.00  0.00    +0.000 OA
BRANCH  19  20
ATOM     20  C   UNL     1       4.269   4.486  16.839  0.00  0.00    +0.000 C 
BRANCH  20  21
ATOM     21  C   UNL     1       3.616   5.097  18.086  0.00  0.00    +0.000 C 
ATOM     22  O   UNL     1       3.493   6.324  18.157  0.00  0.00    +0.000 OA
ATOM     23  N   UNL     1       3.098   4.251  19.064  0.00  0.00    +0.000 N 
ATOM     24  C   UNL     1       2.341   4.839  20.171  0.00  0.00    +0.000 C 
ATOM     25  C   UNL     1       0.982   4.159  20.320  0.00  0.00    +0.000 C 
ATOM     26  C   UNL     1       1.113   2.640  20.416  0.00  0.00    +0.000 C 
ATOM     27  C   UNL     1       1.953   2.084  19.267  0.00  0.00    +0.000 C 
ATOM     28  C   UNL     1       3.308   2.794  19.131  0.00  0.00    +0.000 C 
ATOM     29  C   UNL     1       4.275   2.414  20.263  0.00  0.00    +0.000 C 
ENDBRANCH  20  21
ENDBRANCH  19  20
ENDBRANCH   4  19
TORSDOF 6
ENDMDL
MODEL 2
REMARK VINA RESULT:      -8.7      5.560      8.185
REMARK  Name = 
REMARK  8 active torsions:
REMARK  status: ('A' for Active; 'I' for Inactive)
REMARK    1  A    between atoms: C_1  and  O_2
REMARK    2  A    between atoms: O_2  and  C_3
REMARK    3  A    between atoms: C_8  and  C_9
REMARK    4  A    between atoms: N_11  and  C_12
REMARK    5  A    between atoms: C_15  and  O_16
REMARK    6  A    between atoms: O_16  and  C_17
REMARK    7  A    between atoms: C_17  and  C_18
REMARK    8  A    between atoms: C_25  and  C_26
REMARK                            x       y       z     vdW  Elec       q    Type
REMARK                         _______ _______ _______ _____ _____    ______ ____
ROOT
ATOM      1  C   UNL     1       0.892   9.135  19.475  0.00  0.00    +0.000 A 
ATOM      2  C   UNL     1       1.477   9.245  18.210  0.00  0.00    +0.000 A 
ATOM      3  C   UNL     1       2.460   8.347  17.789  0.00  0.00    +0.000 A 
ATOM      4  C   UNL     1       2.893   7.328  18.628  0.00  0.00    +0.000 A 
ATOM      5  C   UNL     1       2.304   7.185  19.885  0.00  0.00    +0.000 A 
ATOM      6  C   UNL     1       1.321   8.098  20.312  0.00  0.00    +0.000 A 
ENDROOT
BRANCH   1   9
ATOM      7  C   UNL     1       0.069  10.935  20.988  0.00  0.00    +0.000 C 
ATOM      8  O   UNL     1       1.136  11.128  21.570  0.00  0.00    +0.000 OA
ATOM      9  N   UNL     1      -0.096  10.036  19.948  0.00  0.00    +0.000 N 
ATOM     10  H   UNL     1      -0.984  10.068  19.453  0.00  0.00    +0.000 HD
BRANCH   7  16
ATOM     11  C   UNL     1      -2.109  12.286  20.585  0.00  0.00    +0.000 A 
ATOM     12  C   UNL     1      -3.148  13.040  21.162  0.00  0.00    +0.000 A 
ATOM     13  C   UNL     1      -3.211  13.258  22.543  0.00  0.00    +0.000 A 
ATOM     14  C   UNL     1      -2.235  12.730  23.372  0.00  0.00    +0.000 A 
ATOM     15  C   UNL     1      -1.194  11.993  22.814  0.00  0.00    +0.000 A 
ATOM     16  C   UNL     1      -1.106  11.763  21.423  0.00  0.00    +0.000 A 
BRANCH  11  18
ATOM     17  C   UNL     1      -3.232  11.724  18.566  0.00  0.00    +0.000 C 
ATOM     18  O   UNL     1      -2.016  12.071  19.231  0.00  0.00    +0.000 OA
ENDBRANCH  11  18
ENDBRANCH   7  16
ENDBRANCH   1   9
BRANCH   4  19
ATOM     19  O   UNL     1       3.878   6.542  18.100  0.00  0.00    +0.000 OA
BRANCH  19  20
ATOM     20  C   UNL     1       3.470   5.288  17.577  0.00  0.00    +0.000 C 
BRANCH  20  21
ATOM     21  C   UNL     1       3.937   4.122  18.459  0.00  0.00    +0.000 C 
ATOM     22  O   UNL     1       5.145   3.874  18.534  0.00  0.00    +0.000 OA
ATOM     23  N   UNL     1       2.999   3.431  19.222  0.00  0.00    +0.000 N 
ATOM     24  C   UNL     1       3.473   2.425  20.176  0.00  0.00    +0.000 C 
ATOM     25  C   UNL     1       2.897   2.682  21.566  0.00  0.00    +0.000 C 
ATOM     26  C   UNL     1       1.375   2.816  21.536  0.00  0.00    +0.000 C 
ATOM     27  C   UNL     1       0.932   3.839  20.491  0.00  0.00    +0.000 C 
ATOM     28  C   UNL     1       1.536   3.566  19.105  0.00  0.00    +0.000 C 
ATOM     29  C   UNL     1       0.908   2.336  18.433  0.00  0.00    +0.000 C 
ENDBRANCH  20  21
ENDBRANCH  19  20
ENDBRANCH   4  19
TORSDOF 6
ENDMDL
MODEL 3
REMARK VINA RESULT:      -8.6      1.157      1.809
REMARK  Name = 
REMARK  8 active torsions:
REMARK  status: ('A' for Active; 'I' for Inactive)
REMARK    1  A    between atoms: C_1  and  O_2
REMARK    2  A    between atoms: O_2  and  C_3
REMARK    3  A    between atoms: C_8  and  C_9
REMARK    4  A    between atoms: N_11  and  C_12
REMARK    5  A    between atoms: C_15  and  O_16
REMARK    6  A    between atoms: O_16  and  C_17
REMARK    7  A    between atoms: C_17  and  C_18
REMARK    8  A    between atoms: C_25  and  C_26
REMARK                            x       y       z     vdW  Elec       q    Type
REMARK                         _______ _______ _______ _____ _____    ______ ____
ROOT
ATOM      1  C   UNL     1       8.001   7.278  18.471  0.00  0.00    +0.000 A 
ATOM      2  C   UNL     1       7.983   6.064  19.164  0.00  0.00    +0.000 A 
ATOM      3  C   UNL     1       7.158   5.013  18.755  0.00  0.00    +0.000 A 
ATOM      4  C   UNL     1       6.323   5.156  17.654  0.00  0.00    +0.000 A 
ATOM      5  C   UNL     1       6.346   6.352  16.934  0.00  0.00    +0.000 A 
ATOM      6  C   UNL     1       7.168   7.414  17.354  0.00  0.00    +0.000 A 
ENDROOT
BRANCH   1   9
ATOM      7  C   UNL     1       8.688   9.672  18.391  0.00  0.00    +0.000 C 
ATOM      8  O   UNL     1       7.791  10.050  17.637  0.00  0.00    +0.000 OA
ATOM      9  N   UNL     1       8.810   8.377  18.863  0.00  0.00    +0.000 N 
ATOM     10  H   UNL     1       9.503   8.218  19.590  0.00  0.00    +0.000 HD
BRANCH   7  16
ATOM     11  C   UNL     1       9.830  11.191  20.157  0.00  0.00    +0.000 A 
ATOM     12  C   UNL     1      10.819  12.160  20.411  0.00  0.00    +0.000 A 
ATOM     13  C   UNL     1      11.660  12.626  19.395  0.00  0.00    +0.000 A 
ATOM     14  C   UNL     1      11.527  12.137  18.107  0.00  0.00    +0.000 A 
ATOM     15  C   UNL     1      10.544  11.188  17.838  0.00  0.00    +0.000 A 
ATOM     16  C   UNL     1       9.679  10.704  18.845  0.00  0.00    +0.000 A 
BRANCH  11  18
ATOM     17  C   UNL     1       8.588  11.680  22.125  0.00  0.00    +0.000 C 
ATOM     18  O   UNL     1       8.979  10.729  21.133  0.00  0.00    +0.000 OA
ENDBRANCH  11  18
ENDBRANCH   7  16
ENDBRANCH   1   9
BRANCH   4  19
ATOM     19  O   UNL     1       5.552   4.062  17.384  0.00  0.00    +0.000 OA
BRANCH  19  20
ATOM     20  C   UNL     1       4.499   4.248  16.451  0.00  0.00    +0.000 C 
BRANCH  20  21
ATOM     21  C   UNL     1       3.146   3.803  17.019  0.00  0.00    +0.000 C 
ATOM     22  O   UNL     1       2.645   2.747  16.617  0.00  0.00    +0.000 OA
ATOM     23  N   UNL     1       2.559   4.550  18.038  0.00  0.00    +0.000 N 
ATOM     24  C   UNL     1       1.348   4.034  18.680  0.00  0.00    +0.000 C 
ATOM     25  C   UNL     1       1.512   4.000  20.197  0.00  0.00    +0.000 C 
ATOM     26  C   UNL     1       1.960   5.350  20.752  0.00  0.00    +0.000 C 
ATOM     27  C   UNL     1       3.195   5.867  20.015  0.00  0.00    +0.000 C 
ATOM     28  C   UNL     1       3.010   5.878  18.491  0.00  0.00    +0.000 C 
ATOM     29  C   UNL     1       2.049   6.986  18.034  0.00  0.00    +0.000 C 
ENDBRANCH  20  21
ENDBRANCH  19  20
ENDBRANCH   4  19
TORSDOF 6
ENDMDL
MODEL 4
REMARK VINA RESULT:      -8.4      5.410      7.989
REMARK  Name = 
REMARK  8 active torsions:
REMARK  status: ('A' for Active; 'I' for Inactive)
REMARK    1  A    between atoms: C_1  and  O_2
REMARK    2  A    between atoms: O_2  and  C_3
REMARK    3  A    between atoms: C_8  and  C_9
REMARK    4  A    between atoms: N_11  and  C_12
REMARK    5  A    between atoms: C_15  and  O_16
REMARK    6  A    between atoms: O_16  and  C_17
REMARK    7  A    between atoms: C_17  and  C_18
REMARK    8  A    between atoms: C_25  and  C_26
REMARK                            x       y       z     vdW  Elec       q    Type
REMARK                         _______ _______ _______ _____ _____    ______ ____
ROOT
ATOM      1  C   UNL     1       1.123   8.760  19.585  0.00  0.00    +0.000 A 
ATOM      2  C   UNL     1       1.702   7.692  20.277  0.00  0.00    +0.000 A 
ATOM      3  C   UNL     1       2.731   6.937  19.709  0.00  0.00    +0.000 A 
ATOM      4  C   UNL     1       3.194   7.221  18.430  0.00  0.00    +0.000 A 
ATOM      5  C   UNL     1       2.647   8.299  17.733  0.00  0.00    +0.000 A 
ATOM      6  C   UNL     1       1.602   9.052  18.302  0.00  0.00    +0.000 A 
ENDROOT
BRANCH   1   9
ATOM      7  C   UNL     1       0.147  10.879  20.457  0.00  0.00    +0.000 C 
ATOM      8  O   UNL     1       1.132  11.586  20.243  0.00  0.00    +0.000 OA
ATOM      9  N   UNL     1       0.065   9.540  20.118  0.00  0.00    +0.000 N 
ATOM     10  H   UNL     1      -0.846   9.100  20.213  0.00  0.00    +0.000 HD
BRANCH   7  16
ATOM     11  C   UNL     1      -2.046  12.265  20.419  0.00  0.00    +0.000 A 
ATOM     12  C   UNL     1      -3.101  12.817  21.169  0.00  0.00    +0.000 A 
ATOM     13  C   UNL     1      -3.179  12.641  22.555  0.00  0.00    +0.000 A 
ATOM     14  C   UNL     1      -2.203  11.914  23.217  0.00  0.00    +0.000 A 
ATOM     15  C   UNL     1      -1.147  11.373  22.489  0.00  0.00    +0.000 A 
ATOM     16  C   UNL     1      -1.043  11.541  21.090  0.00  0.00    +0.000 A 
BRANCH  11  18
ATOM     17  C   UNL     1      -2.710  11.547  18.251  0.00  0.00    +0.000 C 
ATOM     18  O   UNL     1      -1.937  12.437  19.059  0.00  0.00    +0.000 OA
ENDBRANCH  11  18
ENDBRANCH   7  16
ENDBRANCH   1   9
BRANCH   4  19
ATOM     19  O   UNL     1       4.181   6.386  17.989  0.00  0.00    +0.000 OA
BRANCH  19  20
ATOM     20  C   UNL     1       3.771   5.094  17.569  0.00  0.00    +0.000 C 
BRANCH  20  21
ATOM     21  C   UNL     1       4.143   4.015  18.594  0.00  0.00    +0.000 C 
ATOM     22  O   UNL     1       5.336   3.811  18.843  0.00  0.00    +0.000 OA
ATOM     23  N   UNL     1       3.128   3.356  19.284  0.00  0.00    +0.000 N 
ATOM     24  C   UNL     1       3.495   2.443  20.369  0.00  0.00    +0.000 C 
ATOM     25  C   UNL     1       2.737   2.789  21.648  0.00  0.00    +0.000 C 
ATOM     26  C   UNL     1       1.230   2.873  21.414  0.00  0.00    +0.000 C 
ATOM     27  C   UNL     1       0.906   3.798  20.241  0.00  0.00    +0.000 C 
ATOM     28  C   UNL     1       1.690   3.438  18.971  0.00  0.00    +0.000 C 
ATOM     29  C   UNL     1       1.180   2.140  18.326  0.00  0.00    +0.000 C 
ENDBRANCH  20  21
ENDBRANCH  19  20
ENDBRANCH   4  19
TORSDOF 6
ENDMDL
MODEL 5
REMARK VINA RESULT:      -8.4      5.508      7.659
REMARK  Name = 
REMARK  8 active torsions:
REMARK  status: ('A' for Active; 'I' for Inactive)
REMARK    1  A    between atoms: C_1  and  O_2
REMARK    2  A    between atoms: O_2  and  C_3
REMARK    3  A    between atoms: C_8  and  C_9
REMARK    4  A    between atoms: N_11  and  C_12
REMARK    5  A    between atoms: C_15  and  O_16
REMARK    6  A    between atoms: O_16  and  C_17
REMARK    7  A    between atoms: C_17  and  C_18
REMARK    8  A    between atoms: C_25  and  C_26
REMARK                            x       y       z     vdW  Elec       q    Type
REMARK                         _______ _______ _______ _____ _____    ______ ____
ROOT
ATOM      1  C   UNL     1       1.543   8.958  19.504  0.00  0.00    +0.000 A 
ATOM      2  C   UNL     1       2.011   9.170  18.204  0.00  0.00    +0.000 A 
ATOM      3  C   UNL     1       2.794   8.213  17.554  0.00  0.00    +0.000 A 
ATOM      4  C   UNL     1       3.140   7.029  18.194  0.00  0.00    +0.000 A 
ATOM      5  C   UNL     1       2.661   6.788  19.483  0.00  0.00    +0.000 A 
ATOM      6  C   UNL     1       1.882   7.758  20.141  0.00  0.00    +0.000 A 
ENDROOT
BRANCH   1   9
ATOM      7  C   UNL     1      -0.460  10.412  19.789  0.00  0.00    +0.000 C 
ATOM      8  O   UNL     1      -1.066  10.012  18.795  0.00  0.00    +0.000 OA
ATOM      9  N   UNL     1       0.761   9.912  20.207  0.00  0.00    +0.000 N 
ATOM     10  H   UNL     1       1.094  10.218  21.117  0.00  0.00    +0.000 HD
BRANCH   7  16
ATOM     11  C   UNL     1      -0.889  11.749  21.971  0.00  0.00    +0.000 A 
ATOM     12  C   UNL     1      -1.596  12.800  22.586  0.00  0.00    +0.000 A 
ATOM     13  C   UNL     1      -2.500  13.589  21.867  0.00  0.00    +0.000 A 
ATOM     14  C   UNL     1      -2.719  13.341  20.522  0.00  0.00    +0.000 A 
ATOM     15  C   UNL     1      -2.037  12.296  19.903  0.00  0.00    +0.000 A 
ATOM     16  C   UNL     1      -1.122  11.482  20.608  0.00  0.00    +0.000 A 
BRANCH  11  18
ATOM     17  C   UNL     1      -0.577   9.823  23.329  0.00  0.00    +0.000 C 
ATOM     18  O   UNL     1      -0.008  10.949  22.658  0.00  0.00    +0.000 OA
ENDBRANCH  11  18
ENDBRANCH   7  16
ENDBRANCH   1   9
BRANCH   4  19
ATOM     19  O   UNL     1       3.932   6.198  17.454  0.00  0.00    +0.000 OA
BRANCH  19  20
ATOM     20  C   UNL     1       3.447   4.879  17.255  0.00  0.00    +0.000 C 
BRANCH  20  21
ATOM     21  C   UNL     1       3.941   3.919  18.344  0.00  0.00    +0.000 C 
ATOM     22  O   UNL     1       5.157   3.794  18.527  0.00  0.00    +0.000 OA
ATOM     23  N   UNL     1       3.010   3.279  19.159  0.00  0.00    +0.000 N 
ATOM     24  C   UNL     1       3.493   2.488  20.293  0.00  0.00    +0.000 C 
ATOM     25  C   UNL     1       2.802   2.915  21.586  0.00  0.00    +0.000 C 
ATOM     26  C   UNL     1       1.281   2.906  21.448  0.00  0.00    +0.000 C 
ATOM     27  C   UNL     1       0.833   3.702  20.224  0.00  0.00    +0.000 C 
ATOM     28  C   UNL     1       1.552   3.263  18.939  0.00  0.00    +0.000 C 
ATOM     29  C   UNL     1       1.071   1.889  18.449  0.00  0.00    +0.000 C 
ENDBRANCH  20  21
ENDBRANCH  19  20
ENDBRANCH   4  19
TORSDOF 6
ENDMDL
MODEL 6
REMARK VINA RESULT:      -8.2      1.622      2.369
REMARK  Name = 
REMARK  8 active torsions:
REMARK  status: ('A' for Active; 'I' for Inactive)
REMARK    1  A    between atoms: C_1  and  O_2
REMARK    2  A    between atoms: O_2  and  C_3
REMARK    3  A    between atoms: C_8  and  C_9
REMARK    4  A    between atoms: N_11  and  C_12
REMARK    5  A    between atoms: C_15  and  O_16
REMARK    6  A    between atoms: O_16  and  C_17
REMARK    7  A    between atoms: C_17  and  C_18
REMARK    8  A    between atoms: C_25  and  C_26
REMARK                            x       y       z     vdW  Elec       q    Type
REMARK                         _______ _______ _______ _____ _____    ______ ____
ROOT
ATOM      1  C   UNL     1       8.209   8.591  18.101  0.00  0.00    +0.000 A 
ATOM      2  C   UNL     1       8.610   7.554  18.948  0.00  0.00    +0.000 A 
ATOM      3  C   UNL     1       7.962   6.316  18.929  0.00  0.00    +0.000 A 
ATOM      4  C   UNL     1       6.889   6.092  18.076  0.00  0.00    +0.000 A 
ATOM      5  C   UNL     1       6.489   7.107  17.205  0.00  0.00    +0.000 A 
ATOM      6  C   UNL     1       7.136   8.357  17.233  0.00  0.00    +0.000 A 
ENDROOT
BRANCH   1   9
ATOM      7  C   UNL     1       9.210  10.574  19.228  0.00  0.00    +0.000 C 
ATOM      8  O   UNL     1       9.147  10.131  20.375  0.00  0.00    +0.000 OA
ATOM      9  N   UNL     1       8.827   9.868  18.101  0.00  0.00    +0.000 N 
ATOM     10  H   UNL     1       9.059  10.282  17.202  0.00  0.00    +0.000 HD
BRANCH   7  16
ATOM     11  C   UNL     1       9.277  12.960  18.211  0.00  0.00    +0.000 A 
ATOM     12  C   UNL     1       9.930  14.207  18.180  0.00  0.00    +0.000 A 
ATOM     13  C   UNL     1      11.043  14.467  18.987  0.00  0.00    +0.000 A 
ATOM     14  C   UNL     1      11.527  13.486  19.837  0.00  0.00    +0.000 A 
ATOM     15  C   UNL     1      10.900  12.243  19.869  0.00  0.00    +0.000 A 
ATOM     16  C   UNL     1       9.777  11.954  19.060  0.00  0.00    +0.000 A 
BRANCH  11  18
ATOM     17  C   UNL     1       7.104  13.596  17.486  0.00  0.00    +0.000 C 
ATOM     18  O   UNL     1       8.193  12.673  17.417  0.00  0.00    +0.000 OA
ENDBRANCH  11  18
ENDBRANCH   7  16
ENDBRANCH   1   9
BRANCH   4  19
ATOM     19  O   UNL     1       6.332   4.849  18.183  0.00  0.00    +0.000 OA
BRANCH  19  20
ATOM     20  C   UNL     1       5.226   4.729  19.063  0.00  0.00    +0.000 C 
BRANCH  20  21
ATOM     21  C   UNL     1       3.931   4.398  18.312  0.00  0.00    +0.000 C 
ATOM     22  O   UNL     1       3.983   4.168  17.099  0.00  0.00    +0.000 OA
ATOM     23  N   UNL     1       2.742   4.277  19.028  0.00  0.00    +0.000 N 
ATOM     24  C   UNL     1       1.544   3.809  18.328  0.00  0.00    +0.000 C 
ATOM     25  C   UNL     1       0.910   2.632  19.065  0.00  0.00    +0.000 C 
ATOM     26  C   UNL     1       0.663   2.948  20.539  0.00  0.00    +0.000 C 
ATOM     27  C   UNL     1       1.930   3.479  21.208  0.00  0.00    +0.000 C 
ATOM     28  C   UNL     1       2.555   4.653  20.441  0.00  0.00    +0.000 C 
ATOM     29  C   UNL     1       1.725   5.939  20.577  0.00  0.00    +0.000 C 
ENDBRANCH  20  21
ENDBRANCH  19  20
ENDBRANCH   4  19
TORSDOF 6
ENDMDL
MODEL 7
REMARK VINA RESULT:      -8.2      1.370      2.036
REMARK  Name = 
REMARK  8 active torsions:
REMARK  status: ('A' for Active; 'I' for Inactive)
REMARK    1  A    between atoms: C_1  and  O_2
REMARK    2  A    between atoms: O_2  and  C_3
REMARK    3  A    between atoms: C_8  and  C_9
REMARK    4  A    between atoms: N_11  and  C_12
REMARK    5  A    between atoms: C_15  and  O_16
REMARK    6  A    between atoms: O_16  and  C_17
REMARK    7  A    between atoms: C_17  and  C_18
REMARK    8  A    between atoms: C_25  and  C_26
REMARK                            x       y       z     vdW  Elec       q    Type
REMARK                         _______ _______ _______ _____ _____    ______ ____
ROOT
ATOM      1  C   UNL     1       8.129   8.521  17.998  0.00  0.00    +0.000 A 
ATOM      2  C   UNL     1       6.982   8.386  17.210  0.00  0.00    +0.000 A 
ATOM      3  C   UNL     1       6.238   7.203  17.216  0.00  0.00    +0.000 A 
ATOM      4  C   UNL     1       6.631   6.124  17.997  0.00  0.00    +0.000 A 
ATOM      5  C   UNL     1       7.759   6.248  18.810  0.00  0.00    +0.000 A 
ATOM      6  C   UNL     1       8.514   7.436  18.794  0.00  0.00    +0.000 A 
ENDROOT
BRANCH   1   9
ATOM      7  C   UNL     1       9.246  10.437  19.131  0.00  0.00    +0.000 C 
ATOM      8  O   UNL     1       8.960  10.107  20.282  0.00  0.00    +0.000 OA
ATOM      9  N   UNL     1       8.923   9.697  18.008  0.00  0.00    +0.000 N 
ATOM     10  H   UNL     1       9.335   9.997  17.128  0.00  0.00    +0.000 HD
BRANCH   7  16
ATOM     11  C   UNL     1       9.642  12.824  18.193  0.00  0.00    +0.000 A 
ATOM     12  C   UNL     1      10.496  13.942  18.146  0.00  0.00    +0.000 A 
ATOM     13  C   UNL     1      11.699  13.970  18.861  0.00  0.00    +0.000 A 
ATOM     14  C   UNL     1      12.073  12.882  19.631  0.00  0.00    +0.000 A 
ATOM     15  C   UNL     1      11.245  11.763  19.676  0.00  0.00    +0.000 A 
ATOM     16  C   UNL     1      10.028  11.708  18.961  0.00  0.00    +0.000 A 
BRANCH  11  18
ATOM     17  C   UNL     1       7.555  13.846  17.694  0.00  0.00    +0.000 C 
ATOM     18  O   UNL     1       8.464  12.764  17.488  0.00  0.00    +0.000 OA
ENDBRANCH  11  18
ENDBRANCH   7  16
ENDBRANCH   1   9
BRANCH   4  19
ATOM     19  O   UNL     1       5.830   5.023  17.884  0.00  0.00    +0.000 OA
BRANCH  19  20
ATOM     20  C   UNL     1       4.467   5.267  17.571  0.00  0.00    +0.000 C 
BRANCH  20  21
ATOM     21  C   UNL     1       3.613   5.440  18.833  0.00  0.00    +0.000 C 
ATOM     22  O   UNL     1       3.364   6.581  19.237  0.00  0.00    +0.000 OA
ATOM     23  N   UNL     1       3.065   4.313  19.441  0.00  0.00    +0.000 N 
ATOM     24  C   UNL     1       2.127   4.499  20.550  0.00  0.00    +0.000 C 
ATOM     25  C   UNL     1       0.832   3.730  20.300  0.00  0.00    +0.000 C 
ATOM     26  C   UNL     1       1.096   2.262  19.973  0.00  0.00    +0.000 C 
ATOM     27  C   UNL     1       2.118   2.123  18.845  0.00  0.00    +0.000 C 
ATOM     28  C   UNL     1       3.405   2.916  19.115  0.00  0.00    +0.000 C 
ATOM     29  C   UNL     1       4.260   2.272  20.217  0.00  0.00    +0.000 C 
ENDBRANCH  20  21
ENDBRANCH  19  20
ENDBRANCH   4  19
TORSDOF 6
ENDMDL
MODEL 8
REMARK VINA RESULT:      -8.1      5.571      7.671
REMARK  Name = 
REMARK  8 active torsions:
REMARK  status: ('A' for Active; 'I' for Inactive)
REMARK    1  A    between atoms: C_1  and  O_2
REMARK    2  A    between atoms: O_2  and  C_3
REMARK    3  A    between atoms: C_8  and  C_9
REMARK    4  A    between atoms: N_11  and  C_12
REMARK    5  A    between atoms: C_15  and  O_16
REMARK    6  A    between atoms: O_16  and  C_17
REMARK    7  A    between atoms: C_17  and  C_18
REMARK    8  A    between atoms: C_25  and  C_26
REMARK                            x       y       z     vdW  Elec       q    Type
REMARK                         _______ _______ _______ _____ _____    ______ ____
ROOT
ATOM      1  C   UNL     1       1.054   9.174  19.711  0.00  0.00    +0.000 A 
ATOM      2  C   UNL     1       1.466   9.347  18.386  0.00  0.00    +0.000 A 
ATOM      3  C   UNL     1       2.340   8.441  17.779  0.00  0.00    +0.000 A 
ATOM      4  C   UNL     1       2.834   7.352  18.486  0.00  0.00    +0.000 A 
ATOM      5  C   UNL     1       2.414   7.148  19.801  0.00  0.00    +0.000 A 
ATOM      6  C   UNL     1       1.543   8.068  20.415  0.00  0.00    +0.000 A 
ENDROOT
BRANCH   1   9
ATOM      7  C   UNL     1       0.577  11.205  21.072  0.00  0.00    +0.000 C 
ATOM      8  O   UNL     1       1.737  11.614  21.126  0.00  0.00    +0.000 OA
ATOM      9  N   UNL     1       0.183  10.079  20.370  0.00  0.00    +0.000 N 
ATOM     10  H   UNL     1      -0.818   9.923  20.281  0.00  0.00    +0.000 HD
BRANCH   7  16
ATOM     11  C   UNL     1      -1.372  11.537  22.752  0.00  0.00    +0.000 A 
ATOM     12  C   UNL     1      -2.285  12.439  23.330  0.00  0.00    +0.000 A 
ATOM     13  C   UNL     1      -2.292  13.793  22.980  0.00  0.00    +0.000 A 
ATOM     14  C   UNL     1      -1.391  14.271  22.043  0.00  0.00    +0.000 A 
ATOM     15  C   UNL     1      -0.490  13.388  21.453  0.00  0.00    +0.000 A 
ATOM     16  C   UNL     1      -0.466  12.015  21.786  0.00  0.00    +0.000 A 
BRANCH  11  18
ATOM     17  C   UNL     1      -0.134   9.700  23.618  0.00  0.00    +0.000 C 
ATOM     18  O   UNL     1      -1.354  10.199  23.067  0.00  0.00    +0.000 OA
ENDBRANCH  11  18
ENDBRANCH   7  16
ENDBRANCH   1   9
BRANCH   4  19
ATOM     19  O   UNL     1       3.700   6.566  17.779  0.00  0.00    +0.000 OA
BRANCH  19  20
ATOM     20  C   UNL     1       3.229   5.277  17.419  0.00  0.00    +0.000 C 
BRANCH  20  21
ATOM     21  C   UNL     1       3.785   4.187  18.342  0.00  0.00    +0.000 C 
ATOM     22  O   UNL     1       5.008   4.016  18.400  0.00  0.00    +0.000 OA
ATOM     23  N   UNL     1       2.908   3.477  19.160  0.00  0.00    +0.000 N 
ATOM     24  C   UNL     1       3.463   2.550  20.148  0.00  0.00    +0.000 C 
ATOM     25  C   UNL     1       2.901   2.838  21.538  0.00  0.00    +0.000 C 
ATOM     26  C   UNL     1       1.375   2.878  21.538  0.00  0.00    +0.000 C 
ATOM     27  C   UNL     1       0.847   3.820  20.457  0.00  0.00    +0.000 C 
ATOM     28  C   UNL     1       1.438   3.518  19.072  0.00  0.00    +0.000 C 
ATOM     29  C   UNL     1       0.872   2.220  18.474  0.00  0.00    +0.000 C 
ENDBRANCH  20  21
ENDBRANCH  19  20
ENDBRANCH   4  19
TORSDOF 6
ENDMDL
MODEL 9
REMARK VINA RESULT:      -8.0      1.503      2.126
REMARK  Name = 
REMARK  8 active torsions:
REMARK  status: ('A' for Active; 'I' for Inactive)
REMARK    1  A    between atoms: C_1  and  O_2
REMARK    2  A    between atoms: O_2  and  C_3
REMARK    3  A    between atoms: C_8  and  C_9
REMARK    4  A    between atoms: N_11  and  C_12
REMARK    5  A    between atoms: C_15  and  O_16
REMARK    6  A    between atoms: O_16  and  C_17
REMARK    7  A    between atoms: C_17  and  C_18
REMARK    8  A    between atoms: C_25  and  C_26
REMARK                            x       y       z     vdW  Elec       q    Type
REMARK                         _______ _______ _______ _____ _____    ______ ____
ROOT
ATOM      1  C   UNL     1       8.073   8.474  17.953  0.00  0.00    +0.000 A 
ATOM      2  C   UNL     1       7.023   8.060  17.127  0.00  0.00    +0.000 A 
ATOM      3  C   UNL     1       6.489   6.773  17.232  0.00  0.00    +0.000 A 
ATOM      4  C   UNL     1       7.001   5.867  18.152  0.00  0.00    +0.000 A 
ATOM      5  C   UNL     1       8.032   6.270  19.002  0.00  0.00    +0.000 A 
ATOM      6  C   UNL     1       8.577   7.563  18.887  0.00  0.00    +0.000 A 
ENDROOT
BRANCH   1   9
ATOM      7  C   UNL     1       9.167  10.487  18.932  0.00  0.00    +0.000 C 
ATOM      8  O   UNL     1       9.264  10.051  20.078  0.00  0.00    +0.000 OA
ATOM      9  N   UNL     1       8.656   9.765  17.867  0.00  0.00    +0.000 N 
ATOM     10  H   UNL     1       8.759  10.178  16.944  0.00  0.00    +0.000 HD
BRANCH   7  16
ATOM     11  C   UNL     1       9.499  12.989  19.534  0.00  0.00    +0.000 A 
ATOM     12  C   UNL     1      10.049  14.227  19.151  0.00  0.00    +0.000 A 
ATOM     13  C   UNL     1      10.778  14.365  17.965  0.00  0.00    +0.000 A 
ATOM     14  C   UNL     1      10.968  13.271  17.137  0.00  0.00    +0.000 A 
ATOM     15  C   UNL     1      10.418  12.043  17.496  0.00  0.00    +0.000 A 
ATOM     16  C   UNL     1       9.674  11.879  18.686  0.00  0.00    +0.000 A 
BRANCH  11  18
ATOM     17  C   UNL     1       9.224  13.556  21.826  0.00  0.00    +0.000 C 
ATOM     18  O   UNL     1       8.765  12.830  20.685  0.00  0.00    +0.000 OA
ENDBRANCH  11  18
ENDBRANCH   7  16
ENDBRANCH   1   9
BRANCH   4  19
ATOM     19  O   UNL     1       6.405   4.638  18.126  0.00  0.00    +0.000 OA
BRANCH  19  20
ATOM     20  C   UNL     1       5.306   4.453  19.004  0.00  0.00    +0.000 C 
BRANCH  20  21
ATOM     21  C   UNL     1       4.001   4.193  18.241  0.00  0.00    +0.000 C 
ATOM     22  O   UNL     1       4.053   3.952  17.031  0.00  0.00    +0.000 OA
ATOM     23  N   UNL     1       2.801   4.146  18.946  0.00  0.00    +0.000 N 
ATOM     24  C   UNL     1       1.584   3.744  18.237  0.00  0.00    +0.000 C 
ATOM     25  C   UNL     1       0.876   2.610  18.974  0.00  0.00    +0.000 C 
ATOM     26  C   UNL     1       0.633   2.950  20.443  0.00  0.00    +0.000 C 
ATOM     27  C   UNL     1       1.922   3.411  21.123  0.00  0.00    +0.000 C 
ATOM     28  C   UNL     1       2.622   4.542  20.355  0.00  0.00    +0.000 C 
ATOM     29  C   UNL     1       1.866   5.874  20.474  0.00  0.00    +0.000 C 
ENDBRANCH  20  21
ENDBRANCH  19  20
ENDBRANCH   4  19
TORSDOF 6
ENDMDL
