MODEL 1
REMARK VINA RESULT:      -7.4      0.000      0.000
REMARK  Name = 
REMARK  10 active torsions:
REMARK  status: ('A' for Active; 'I' for Inactive)
REMARK    1  A    between atoms: C_1  and  C_2
REMARK    2  A    between atoms: C_2  and  N_3
REMARK    3  A    between atoms: C_4  and  C_5
REMARK    4  A    between atoms: N_7  and  C_8
REMARK    5  A    between atoms: N_7  and  C_12
REMARK    6  A    between atoms: C_8  and  C_9
REMARK    7  A    between atoms: C_9  and  C_10
REMARK    8  A    between atoms: C_9  and  C_11
REMARK    9  A    between atoms: C_16  and  C_17
REMARK   10  A    between atoms: C_17  and  O_18
REMARK                            x       y       z     vdW  Elec       q    Type
REMARK                         _______ _______ _______ _____ _____    ______ ____
ROOT
ATOM      1  C   UNL     1       4.522   4.295  18.906  0.00  0.00    +0.000 C 
ATOM      2  O   UNL     1       5.136   3.541  19.676  0.00  0.00    +0.000 OA
ATOM      3  N   UNL     1       3.297   4.882  19.344  0.00  0.00    +0.000 N 
ENDROOT
BRANCH   1   5
ATOM      4  N   UNL     1       6.198   5.217  17.166  0.00  0.00    +0.000 N 
ATOM      5  C   UNL     1       5.049   4.517  17.542  0.00  0.00    +0.000 A 
ATOM      6  N   UNL     1       4.512   3.979  16.455  0.00  0.00    +0.000 NA
ATOM      7  C   UNL     1       5.373   4.231  15.411  0.00  0.00    +0.000 A 
ATOM      8  C   UNL     1       5.255   3.944  14.044  0.00  0.00    +0.000 A 
ATOM      9  C   UNL     1       6.309   4.293  13.183  0.00  0.00    +0.000 A 
ATOM     10  C   UNL     1       7.484   4.856  13.683  0.00  0.00    +0.000 A 
ATOM     11  C   UNL     1       7.616   5.139  15.040  0.00  0.00    +0.000 A 
ATOM     12  C   UNL     1       6.511   4.872  15.862  0.00  0.00    +0.000 A 
BRANCH   4  14
ATOM     13  C   UNL     1       7.874   5.748  18.953  0.00  0.00    +0.000 C 
ATOM     14  C   UNL     1       6.914   6.273  17.873  0.00  0.00    +0.000 C 
ENDBRANCH   4  14
ENDBRANCH   1   5
BRANCH   3  15
ATOM     15  C   UNL     1       2.753   6.180  18.889  0.00  0.00    +0.000 C 
ATOM     16  C   UNL     1       3.529   6.995  17.828  0.00  0.00    +0.000 C 
ATOM     17  N   UNL     1       2.684   8.075  17.278  0.00  0.00    +0.000 NA
ATOM     18  C   UNL     1       2.196   8.958  18.340  0.00  0.00    +0.000 C 
ATOM     19  C   UNL     1       1.416   8.217  19.453  0.00  0.00    +0.000 C 
ATOM     20  C   UNL     1       2.258   7.072  20.023  0.00  0.00    +0.000 C 
ATOM     21  H   UNL     1       1.874   7.645  16.800  0.00  0.00    +0.000 HD
BRANCH  19  22
ATOM     22  C   UNL     1       1.010   9.161  20.581  0.00  0.00    +0.000 C 
BRANCH  22  23
ATOM     23  O   UNL     1       1.574   8.731  21.816  0.00  0.00    +0.000 OA
ATOM     24  H   UNL     1       2.420   9.195  21.938  0.00  0.00    +0.000 HD
ENDBRANCH  22  23
ENDBRANCH  19  22
ENDBRANCH   3  15
BRANCH   3  25
ATOM     25  C   UNL     1       2.696   4.396  20.630  0.00  0.00    +0.000 C 
BRANCH  25  26
ATOM     26  C   UNL     1       1.937   3.057  20.456  0.00  0.00    +0.000 C 
ATOM     27  C   UNL     1       1.481   2.527  21.815  0.00  0.00    +0.000 C 
ATOM     28  C   UNL     1       0.761   3.130  19.475  0.00  0.00    +0.000 C 
ENDBRANCH  25  26
ENDBRANCH   3  25
TORSDOF 7
ENDMDL
MODEL 2
REMARK VINA RESULT:      -7.1      0.621      1.011
REMARK  Name = 
REMARK  10 active torsions:
REMARK  status: ('A' for Active; 'I' for Inactive)
REMARK    1  A    between atoms: C_1  and  C_2
REMARK    2  A    between atoms: C_2  and  N_3
REMARK    3  A    between atoms: C_4  and  C_5
REMARK    4  A    between atoms: N_7  and  C_8
REMARK    5  A    between atoms: N_7  and  C_12
REMARK    6  A    between atoms: C_8  and  C_9
REMARK    7  A    between atoms: C_9  and  C_10
REMARK    8  A    between atoms: C_9  and  C_11
REMARK    9  A    between atoms: C_16  and  C_17
REMARK   10  A    between atoms: C_17  and  O_18
REMARK                            x       y       z     vdW  Elec       q    Type
REMARK                         _______ _______ _______ _____ _____    ______ ____
ROOT
ATOM      1  C   UNL     1       4.329   4.612  19.133  0.00  0.00    +0.000 C 
ATOM      2  O   UNL     1       4.902   3.893  19.966  0.00  0.00    +0.000 OA
ATOM      3  N   UNL     1       3.111   5.258  19.499  0.00  0.00    +0.000 N 
ENDROOT
BRANCH   1   5
ATOM      4  N   UNL     1       6.151   5.224  17.402  0.00  0.00    +0.000 N 
ATOM      5  C   UNL     1       4.897   4.731  17.772  0.00  0.00    +0.000 A 
ATOM      6  N   UNL     1       4.285   4.286  16.683  0.00  0.00    +0.000 NA
ATOM      7  C   UNL     1       5.183   4.380  15.645  0.00  0.00    +0.000 A 
ATOM      8  C   UNL     1       5.029   4.108  14.279  0.00  0.00    +0.000 A 
ATOM      9  C   UNL     1       6.133   4.267  13.425  0.00  0.00    +0.000 A 
ATOM     10  C   UNL     1       7.383   4.626  13.932  0.00  0.00    +0.000 A 
ATOM     11  C   UNL     1       7.550   4.891  15.289  0.00  0.00    +0.000 A 
ATOM     12  C   UNL     1       6.411   4.822  16.102  0.00  0.00    +0.000 A 
BRANCH   4  14
ATOM     13  C   UNL     1       7.170   7.514  17.419  0.00  0.00    +0.000 C 
ATOM     14  C   UNL     1       7.031   6.148  18.109  0.00  0.00    +0.000 C 
ENDBRANCH   4  14
ENDBRANCH   1   5
BRANCH   3  15
ATOM     15  C   UNL     1       2.615   6.538  18.948  0.00  0.00    +0.000 C 
ATOM     16  C   UNL     1       3.473   7.297  17.908  0.00  0.00    +0.000 C 
ATOM     17  N   UNL     1       2.681   8.356  17.251  0.00  0.00    +0.000 NA
ATOM     18  C   UNL     1       2.129   9.292  18.234  0.00  0.00    +0.000 C 
ATOM     19  C   UNL     1       1.265   8.610  19.322  0.00  0.00    +0.000 C 
ATOM     20  C   UNL     1       2.051   7.486  20.001  0.00  0.00    +0.000 C 
ATOM     21  H   UNL     1       1.902   7.912  16.736  0.00  0.00    +0.000 HD
BRANCH  19  22
ATOM     22  C   UNL     1       0.791   9.609  20.373  0.00  0.00    +0.000 C 
BRANCH  22  23
ATOM     23  O   UNL     1      -0.168   9.004  21.235  0.00  0.00    +0.000 OA
ATOM     24  H   UNL     1      -0.787   9.695  21.527  0.00  0.00    +0.000 HD
ENDBRANCH  22  23
ENDBRANCH  19  22
ENDBRANCH   3  15
BRANCH   3  25
ATOM     25  C   UNL     1       2.464   4.872  20.796  0.00  0.00    +0.000 C 
BRANCH  25  26
ATOM     26  C   UNL     1       1.323   3.842  20.602  0.00  0.00    +0.000 C 
ATOM     27  C   UNL     1       1.244   3.411  19.138  0.00  0.00    +0.000 C 
ATOM     28  C   UNL     1       1.420   2.624  21.526  0.00  0.00    +0.000 C 
ENDBRANCH  25  26
ENDBRANCH   3  25
TORSDOF 7
ENDMDL
MODEL 3
REMARK VINA RESULT:      -7.0      1.777      3.377
REMARK  Name = 
REMARK  10 active torsions:
REMARK  status: ('A' for Active; 'I' for Inactive)
REMARK    1  A    between atoms: C_1  and  C_2
REMARK    2  A    between atoms: C_2  and  N_3
REMARK    3  A    between atoms: C_4  and  C_5
REMARK    4  A    between atoms: N_7  and  C_8
REMARK    5  A    between atoms: N_7  and  C_12
REMARK    6  A    between atoms: C_8  and  C_9
REMARK    7  A    between atoms: C_9  and  C_10
REMARK    8  A    between atoms: C_9  and  C_11
REMARK    9  A    between atoms: C_16  and  C_17
REMARK   10  A    between atoms: C_17  and  O_18
REMARK                            x       y       z     vdW  Elec       q    Type
REMARK                         _______ _______ _______ _____ _____    ______ ____
ROOT
ATOM      1  C   UNL     1       4.754   3.573  19.610  0.00  0.00    +0.000 C 
ATOM      2  O   UNL     1       5.172   2.447  19.918  0.00  0.00    +0.000 OA
ATOM      3  N   UNL     1       3.363   3.857  19.754  0.00  0.00    +0.000 N 
ENDROOT
BRANCH   1   5
ATOM      4  N   UNL     1       5.675   5.165  17.791  0.00  0.00    +0.000 N 
ATOM      5  C   UNL     1       5.699   4.565  19.053  0.00  0.00    +0.000 A 
ATOM      6  N   UNL     1       6.694   5.099  19.751  0.00  0.00    +0.000 NA
ATOM      7  C   UNL     1       7.225   6.114  18.989  0.00  0.00    +0.000 A 
ATOM      8  C   UNL     1       8.326   6.948  19.223  0.00  0.00    +0.000 A 
ATOM      9  C   UNL     1       8.643   7.937  18.276  0.00  0.00    +0.000 A 
ATOM     10  C   UNL     1       7.840   8.134  17.152  0.00  0.00    +0.000 A 
ATOM     11  C   UNL     1       6.738   7.317  16.913  0.00  0.00    +0.000 A 
ATOM     12  C   UNL     1       6.502   6.275  17.820  0.00  0.00    +0.000 A 
BRANCH   4  14
ATOM     13  C   UNL     1       6.013   3.855  15.682  0.00  0.00    +0.000 C 
ATOM     14  C   UNL     1       5.065   4.694  16.552  0.00  0.00    +0.000 C 
ENDBRANCH   4  14
ENDBRANCH   1   5
BRANCH   3  15
ATOM     15  C   UNL     1       2.779   5.190  20.022  0.00  0.00    +0.000 C 
ATOM     16  C   UNL     1       1.603   5.312  21.020  0.00  0.00    +0.000 C 
ATOM     17  N   UNL     1       1.380   6.725  21.392  0.00  0.00    +0.000 NA
ATOM     18  C   UNL     1       1.130   7.551  20.208  0.00  0.00    +0.000 C 
ATOM     19  C   UNL     1       2.256   7.474  19.149  0.00  0.00    +0.000 C 
ATOM     20  C   UNL     1       2.530   6.018  18.766  0.00  0.00    +0.000 C 
ATOM     21  H   UNL     1       2.225   7.074  21.873  0.00  0.00    +0.000 HD
BRANCH  19  22
ATOM     22  C   UNL     1       1.909   8.275  17.898  0.00  0.00    +0.000 C 
BRANCH  22  23
ATOM     23  O   UNL     1       2.297   9.636  18.057  0.00  0.00    +0.000 OA
ATOM     24  H   UNL     1       1.499  10.187  17.980  0.00  0.00    +0.000 HD
ENDBRANCH  22  23
ENDBRANCH  19  22
ENDBRANCH   3  15
BRANCH   3  25
ATOM     25  C   UNL     1       2.434   2.721  20.067  0.00  0.00    +0.000 C 
BRANCH  25  26
ATOM     26  C   UNL     1       1.731   2.171  18.801  0.00  0.00    +0.000 C 
ATOM     27  C   UNL     1       0.312   2.730  18.698  0.00  0.00    +0.000 C 
ATOM     28  C   UNL     1       2.509   2.412  17.502  0.00  0.00    +0.000 C 
ENDBRANCH  25  26
ENDBRANCH   3  25
TORSDOF 7
ENDMDL
MODEL 4
REMARK VINA RESULT:      -6.8      2.138      6.684
REMARK  Name = 
REMARK  10 active torsions:
REMARK  status: ('A' for Active; 'I' for Inactive)
REMARK    1  A    between atoms: C_1  and  C_2
REMARK    2  A    between atoms: C_2  and  N_3
REMARK    3  A    between atoms: C_4  and  C_5
REMARK    4  A    between atoms: N_7  and  C_8
REMARK    5  A    between atoms: N_7  and  C_12
REMARK    6  A    between atoms: C_8  and  C_9
REMARK    7  A    between atoms: C_9  and  C_10
REMARK    8  A    between atoms: C_9  and  C_11
REMARK    9  A    between atoms: C_16  and  C_17
REMARK   10  A    between atoms: C_17  and  O_18
REMARK                            x       y       z     vdW  Elec       q    Type
REMARK                         _______ _______ _______ _____ _____    ______ ____
ROOT
ATOM      1  C   UNL     1       6.248   5.250  18.985  0.00  0.00    +0.000 C 
ATOM      2  O   UNL     1       6.963   5.377  19.990  0.00  0.00    +0.000 OA
ATOM      3  N   UNL     1       6.717   5.752  17.734  0.00  0.00    +0.000 N 
ENDROOT
BRANCH   1   5
ATOM      4  N   UNL     1       3.679   5.139  18.705  0.00  0.00    +0.000 N 
ATOM      5  C   UNL     1       4.912   4.632  19.124  0.00  0.00    +0.000 A 
ATOM      6  N   UNL     1       4.717   3.416  19.619  0.00  0.00    +0.000 NA
ATOM      7  C   UNL     1       3.394   3.099  19.408  0.00  0.00    +0.000 A 
ATOM      8  C   UNL     1       2.655   1.973  19.793  0.00  0.00    +0.000 A 
ATOM      9  C   UNL     1       1.302   1.888  19.421  0.00  0.00    +0.000 A 
ATOM     10  C   UNL     1       0.716   2.874  18.626  0.00  0.00    +0.000 A 
ATOM     11  C   UNL     1       1.444   3.994  18.231  0.00  0.00    +0.000 A 
ATOM     12  C   UNL     1       2.761   4.103  18.699  0.00  0.00    +0.000 A 
BRANCH   4  14
ATOM     13  C   UNL     1       2.443   7.126  19.601  0.00  0.00    +0.000 C 
ATOM     14  C   UNL     1       3.279   6.520  18.463  0.00  0.00    +0.000 C 
ENDBRANCH   4  14
ENDBRANCH   1   5
BRANCH   3  15
ATOM     15  C   UNL     1       6.361   5.218  16.402  0.00  0.00    +0.000 C 
ATOM     16  C   UNL     1       5.691   3.826  16.300  0.00  0.00    +0.000 C 
ATOM     17  N   UNL     1       5.128   3.616  14.950  0.00  0.00    +0.000 NA
ATOM     18  C   UNL     1       6.158   3.761  13.919  0.00  0.00    +0.000 C 
ATOM     19  C   UNL     1       6.889   5.125  13.959  0.00  0.00    +0.000 C 
ATOM     20  C   UNL     1       7.458   5.384  15.356  0.00  0.00    +0.000 C 
ATOM     21  H   UNL     1       4.390   4.322  14.790  0.00  0.00    +0.000 HD
BRANCH  19  22
ATOM     22  C   UNL     1       8.012   5.192  12.929  0.00  0.00    +0.000 C 
BRANCH  22  23
ATOM     23  O   UNL     1       9.039   6.074  13.372  0.00  0.00    +0.000 OA
ATOM     24  H   UNL     1       9.528   6.383  12.591  0.00  0.00    +0.000 HD
ENDBRANCH  22  23
ENDBRANCH  19  22
ENDBRANCH   3  15
BRANCH   3  25
ATOM     25  C   UNL     1       7.955   6.600  17.728  0.00  0.00    +0.000 C 
BRANCH  25  26
ATOM     26  C   UNL     1       7.650   8.084  17.403  0.00  0.00    +0.000 C 
ATOM     27  C   UNL     1       6.148   8.349  17.503  0.00  0.00    +0.000 C 
ATOM     28  C   UNL     1       8.440   9.083  18.256  0.00  0.00    +0.000 C 
ENDBRANCH  25  26
ENDBRANCH   3  25
TORSDOF 7
ENDMDL
MODEL 5
REMARK VINA RESULT:      -6.8      4.988      8.495
REMARK  Name = 
REMARK  10 active torsions:
REMARK  status: ('A' for Active; 'I' for Inactive)
REMARK    1  A    between atoms: C_1  and  C_2
REMARK    2  A    between atoms: C_2  and  N_3
REMARK    3  A    between atoms: C_4  and  C_5
REMARK    4  A    between atoms: N_7  and  C_8
REMARK    5  A    between atoms: N_7  and  C_12
REMARK    6  A    between atoms: C_8  and  C_9
REMARK    7  A    between atoms: C_9  and  C_10
REMARK    8  A    between atoms: C_9  and  C_11
REMARK    9  A    between atoms: C_16  and  C_17
REMARK   10  A    between atoms: C_17  and  O_18
REMARK                            x       y       z     vdW  Elec       q    Type
REMARK                         _______ _______ _______ _____ _____    ______ ____
ROOT
ATOM      1  C   UNL     1      -0.052  12.038  20.541  0.00  0.00    +0.000 C 
ATOM      2  O   UNL     1       0.508  12.921  21.208  0.00  0.00    +0.000 OA
ATOM      3  N   UNL     1      -1.433  12.187  20.216  0.00  0.00    +0.000 N 
ENDROOT
BRANCH   1   5
ATOM      4  N   UNL     1       1.010   9.711  20.927  0.00  0.00    +0.000 N 
ATOM      5  C   UNL     1       0.715  10.835  20.151  0.00  0.00    +0.000 A 
ATOM      6  N   UNL     1       1.173  10.626  18.923  0.00  0.00    +0.000 NA
ATOM      7  C   UNL     1       1.648   9.336  18.881  0.00  0.00    +0.000 A 
ATOM      8  C   UNL     1       2.293   8.635  17.852  0.00  0.00    +0.000 A 
ATOM      9  C   UNL     1       2.659   7.296  18.067  0.00  0.00    +0.000 A 
ATOM     10  C   UNL     1       2.328   6.647  19.258  0.00  0.00    +0.000 A 
ATOM     11  C   UNL     1       1.680   7.330  20.284  0.00  0.00    +0.000 A 
ATOM     12  C   UNL     1       1.416   8.692  20.082  0.00  0.00    +0.000 A 
BRANCH   4  14
ATOM     13  C   UNL     1      -0.294   9.456  23.052  0.00  0.00    +0.000 C 
ATOM     14  C   UNL     1       1.082   9.579  22.378  0.00  0.00    +0.000 C 
ENDBRANCH   4  14
ENDBRANCH   1   5
BRANCH   3  15
ATOM     15  C   UNL     1      -2.102  11.632  19.019  0.00  0.00    +0.000 C 
ATOM     16  C   UNL     1      -1.532  11.955  17.617  0.00  0.00    +0.000 C 
ATOM     17  N   UNL     1      -2.125  11.067  16.596  0.00  0.00    +0.000 NA
ATOM     18  C   UNL     1      -3.586  11.173  16.587  0.00  0.00    +0.000 C 
ATOM     19  C   UNL     1      -4.238  10.877  17.960  0.00  0.00    +0.000 C 
ATOM     20  C   UNL     1      -3.621  11.763  19.045  0.00  0.00    +0.000 C 
ATOM     21  H   UNL     1      -1.860  10.092  16.816  0.00  0.00    +0.000 HD
BRANCH  19  22
ATOM     22  C   UNL     1      -5.748  11.090  17.924  0.00  0.00    +0.000 C 
BRANCH  22  23
ATOM     23  O   UNL     1      -6.096  11.999  16.883  0.00  0.00    +0.000 OA
ATOM     24  H   UNL     1      -5.311  12.534  16.677  0.00  0.00    +0.000 HD
ENDBRANCH  22  23
ENDBRANCH  19  22
ENDBRANCH   3  15
BRANCH   3  25
ATOM     25  C   UNL     1      -2.202  13.294  20.874  0.00  0.00    +0.000 C 
BRANCH  25  26
ATOM     26  C   UNL     1      -2.645  12.929  22.313  0.00  0.00    +0.000 C 
ATOM     27  C   UNL     1      -2.088  13.943  23.311  0.00  0.00    +0.000 C 
ATOM     28  C   UNL     1      -4.162  12.777  22.478  0.00  0.00    +0.000 C 
ENDBRANCH  25  26
ENDBRANCH   3  25
TORSDOF 7
ENDMDL
MODEL 6
REMARK VINA RESULT:      -6.6      2.438      6.070
REMARK  Name = 
REMARK  10 active torsions:
REMARK  status: ('A' for Active; 'I' for Inactive)
REMARK    1  A    between atoms: C_1  and  C_2
REMARK    2  A    between atoms: C_2  and  N_3
REMARK    3  A    between atoms: C_4  and  C_5
REMARK    4  A    between atoms: N_7  and  C_8
REMARK    5  A    between atoms: N_7  and  C_12
REMARK    6  A    between atoms: C_8  and  C_9
REMARK    7  A    between atoms: C_9  and  C_10
REMARK    8  A    between atoms: C_9  and  C_11
REMARK    9  A    between atoms: C_16  and  C_17
REMARK   10  A    between atoms: C_17  and  O_18
REMARK                            x       y       z     vdW  Elec       q    Type
REMARK                         _______ _______ _______ _____ _____    ______ ____
ROOT
ATOM      1  C   UNL     1       2.593   5.022  17.820  0.00  0.00    +0.000 C 
ATOM      2  O   UNL     1       1.787   4.300  17.215  0.00  0.00    +0.000 OA
ATOM      3  N   UNL     1       3.972   4.653  17.840  0.00  0.00    +0.000 N 
ENDROOT
BRANCH   1   5
ATOM      4  N   UNL     1       1.888   6.356  19.921  0.00  0.00    +0.000 N 
ATOM      5  C   UNL     1       2.094   6.210  18.547  0.00  0.00    +0.000 A 
ATOM      6  N   UNL     1       1.844   7.373  17.960  0.00  0.00    +0.000 NA
ATOM      7  C   UNL     1       1.598   8.287  18.959  0.00  0.00    +0.000 A 
ATOM      8  C   UNL     1       1.220   9.635  18.888  0.00  0.00    +0.000 A 
ATOM      9  C   UNL     1       1.055  10.358  20.082  0.00  0.00    +0.000 A 
ATOM     10  C   UNL     1       1.327   9.769  21.318  0.00  0.00    +0.000 A 
ATOM     11  C   UNL     1       1.711   8.433  21.400  0.00  0.00    +0.000 A 
ATOM     12  C   UNL     1       1.771   7.707  20.202  0.00  0.00    +0.000 A 
BRANCH   4  14
ATOM     13  C   UNL     1       0.842   4.134  20.421  0.00  0.00    +0.000 C 
ATOM     14  C   UNL     1       1.647   5.338  20.936  0.00  0.00    +0.000 C 
ENDBRANCH   4  14
ENDBRANCH   1   5
BRANCH   3  15
ATOM     15  C   UNL     1       5.113   5.588  17.951  0.00  0.00    +0.000 C 
ATOM     16  C   UNL     1       5.552   6.395  16.705  0.00  0.00    +0.000 C 
ATOM     17  N   UNL     1       6.472   7.486  17.089  0.00  0.00    +0.000 NA
ATOM     18  C   UNL     1       7.644   6.966  17.797  0.00  0.00    +0.000 C 
ATOM     19  C   UNL     1       7.290   6.132  19.053  0.00  0.00    +0.000 C 
ATOM     20  C   UNL     1       6.314   5.010  18.691  0.00  0.00    +0.000 C 
ATOM     21  H   UNL     1       5.965   8.138  17.711  0.00  0.00    +0.000 HD
BRANCH  19  22
ATOM     22  C   UNL     1       8.536   5.536  19.702  0.00  0.00    +0.000 C 
BRANCH  22  23
ATOM     23  O   UNL     1       8.285   5.235  21.072  0.00  0.00    +0.000 OA
ATOM     24  H   UNL     1       8.373   6.059  21.581  0.00  0.00    +0.000 HD
ENDBRANCH  22  23
ENDBRANCH  19  22
ENDBRANCH   3  15
BRANCH   3  25
ATOM     25  C   UNL     1       4.353   3.301  17.313  0.00  0.00    +0.000 C 
BRANCH  25  26
ATOM     26  C   UNL     1       4.048   2.168  18.325  0.00  0.00    +0.000 C 
ATOM     27  C   UNL     1       4.266   2.663  19.754  0.00  0.00    +0.000 C 
ATOM     28  C   UNL     1       2.655   1.550  18.166  0.00  0.00    +0.000 C 
ENDBRANCH  25  26
ENDBRANCH   3  25
TORSDOF 7
ENDMDL
MODEL 7
REMARK VINA RESULT:      -6.6      6.370     10.250
REMARK  Name = 
REMARK  10 active torsions:
REMARK  status: ('A' for Active; 'I' for Inactive)
REMARK    1  A    between atoms: C_1  and  C_2
REMARK    2  A    between atoms: C_2  and  N_3
REMARK    3  A    between atoms: C_4  and  C_5
REMARK    4  A    between atoms: N_7  and  C_8
REMARK    5  A    between atoms: N_7  and  C_12
REMARK    6  A    between atoms: C_8  and  C_9
REMARK    7  A    between atoms: C_9  and  C_10
REMARK    8  A    between atoms: C_9  and  C_11
REMARK    9  A    between atoms: C_16  and  C_17
REMARK   10  A    between atoms: C_17  and  O_18
REMARK                            x       y       z     vdW  Elec       q    Type
REMARK                         _______ _______ _______ _____ _____    ______ ____
ROOT
ATOM      1  C   UNL     1      -0.152  12.377  20.539  0.00  0.00    +0.000 C 
ATOM      2  O   UNL     1       0.359  12.020  21.611  0.00  0.00    +0.000 OA
ATOM      3  N   UNL     1      -0.696  11.386  19.668  0.00  0.00    +0.000 N 
ENDROOT
BRANCH   1   5
ATOM      4  N   UNL     1       0.864  14.510  19.486  0.00  0.00    +0.000 N 
ATOM      5  C   UNL     1      -0.132  13.810  20.172  0.00  0.00    +0.000 A 
ATOM      6  N   UNL     1      -1.149  14.634  20.389  0.00  0.00    +0.000 NA
ATOM      7  C   UNL     1      -0.860  15.814  19.744  0.00  0.00    +0.000 A 
ATOM      8  C   UNL     1      -1.560  17.028  19.708  0.00  0.00    +0.000 A 
ATOM      9  C   UNL     1      -1.047  18.086  18.939  0.00  0.00    +0.000 A 
ATOM     10  C   UNL     1       0.105  17.917  18.169  0.00  0.00    +0.000 A 
ATOM     11  C   UNL     1       0.805  16.713  18.191  0.00  0.00    +0.000 A 
ATOM     12  C   UNL     1       0.327  15.708  19.043  0.00  0.00    +0.000 A 
BRANCH   4  14
ATOM     13  C   UNL     1       2.605  13.249  18.200  0.00  0.00    +0.000 C 
ATOM     14  C   UNL     1       2.285  14.211  19.354  0.00  0.00    +0.000 C 
ENDBRANCH   4  14
ENDBRANCH   1   5
BRANCH   3  15
ATOM     15  C   UNL     1      -1.810  11.591  18.717  0.00  0.00    +0.000 C 
ATOM     16  C   UNL     1      -3.237  11.831  19.264  0.00  0.00    +0.000 C 
ATOM     17  N   UNL     1      -4.129  12.328  18.196  0.00  0.00    +0.000 NA
ATOM     18  C   UNL     1      -4.168  11.399  17.065  0.00  0.00    +0.000 C 
ATOM     19  C   UNL     1      -2.775  11.093  16.464  0.00  0.00    +0.000 C 
ATOM     20  C   UNL     1      -1.819  10.604  17.555  0.00  0.00    +0.000 C 
ATOM     21  H   UNL     1      -3.771  13.241  17.869  0.00  0.00    +0.000 HD
BRANCH  19  22
ATOM     22  C   UNL     1      -2.857  10.052  15.352  0.00  0.00    +0.000 C 
BRANCH  22  23
ATOM     23  O   UNL     1      -4.141  10.084  14.736  0.00  0.00    +0.000 OA
ATOM     24  H   UNL     1      -4.347  11.009  14.520  0.00  0.00    +0.000 HD
ENDBRANCH  22  23
ENDBRANCH  19  22
ENDBRANCH   3  15
BRANCH   3  25
ATOM     25  C   UNL     1      -0.436   9.942  19.985  0.00  0.00    +0.000 C 
BRANCH  25  26
ATOM     26  C   UNL     1       1.042   9.545  19.748  0.00  0.00    +0.000 C 
ATOM     27  C   UNL     1       1.403   8.324  20.594  0.00  0.00    +0.000 C 
ATOM     28  C   UNL     1       1.397   9.314  18.275  0.00  0.00    +0.000 C 
ENDBRANCH  25  26
ENDBRANCH   3  25
TORSDOF 7
ENDMDL
MODEL 8
REMARK VINA RESULT:      -6.6      2.004      6.347
REMARK  Name = 
REMARK  10 active torsions:
REMARK  status: ('A' for Active; 'I' for Inactive)
REMARK    1  A    between atoms: C_1  and  C_2
REMARK    2  A    between atoms: C_2  and  N_3
REMARK    3  A    between atoms: C_4  and  C_5
REMARK    4  A    between atoms: N_7  and  C_8
REMARK    5  A    between atoms: N_7  and  C_12
REMARK    6  A    between atoms: C_8  and  C_9
REMARK    7  A    between atoms: C_9  and  C_10
REMARK    8  A    between atoms: C_9  and  C_11
REMARK    9  A    between atoms: C_16  and  C_17
REMARK   10  A    between atoms: C_17  and  O_18
REMARK                            x       y       z     vdW  Elec       q    Type
REMARK                         _______ _______ _______ _____ _____    ______ ____
ROOT
ATOM      1  C   UNL     1       4.401   6.413  17.593  0.00  0.00    +0.000 C 
ATOM      2  O   UNL     1       5.495   6.986  17.480  0.00  0.00    +0.000 OA
ATOM      3  N   UNL     1       4.308   5.028  17.262  0.00  0.00    +0.000 N 
ENDROOT
BRANCH   1   5
ATOM      4  N   UNL     1       2.650   7.280  19.288  0.00  0.00    +0.000 N 
ATOM      5  C   UNL     1       3.218   7.195  18.015  0.00  0.00    +0.000 A 
ATOM      6  N   UNL     1       2.564   8.022  17.209  0.00  0.00    +0.000 NA
ATOM      7  C   UNL     1       1.666   8.718  17.985  0.00  0.00    +0.000 A 
ATOM      8  C   UNL     1       0.691   9.660  17.627  0.00  0.00    +0.000 A 
ATOM      9  C   UNL     1      -0.089  10.247  18.637  0.00  0.00    +0.000 A 
ATOM     10  C   UNL     1       0.142   9.953  19.982  0.00  0.00    +0.000 A 
ATOM     11  C   UNL     1       1.113   9.025  20.349  0.00  0.00    +0.000 A 
ATOM     12  C   UNL     1       1.809   8.380  19.318  0.00  0.00    +0.000 A 
BRANCH   4  14
ATOM     13  C   UNL     1       1.347   5.851  20.882  0.00  0.00    +0.000 C 
ATOM     14  C   UNL     1       2.722   6.339  20.401  0.00  0.00    +0.000 C 
ENDBRANCH   4  14
ENDBRANCH   1   5
BRANCH   3  15
ATOM     15  C   UNL     1       3.355   4.063  17.852  0.00  0.00    +0.000 C 
ATOM     16  C   UNL     1       1.838   4.253  17.609  0.00  0.00    +0.000 C 
ATOM     17  N   UNL     1       1.092   3.037  17.994  0.00  0.00    +0.000 NA
ATOM     18  C   UNL     1       1.342   2.683  19.393  0.00  0.00    +0.000 C 
ATOM     19  C   UNL     1       2.841   2.487  19.725  0.00  0.00    +0.000 C 
ATOM     20  C   UNL     1       3.645   3.721  19.310  0.00  0.00    +0.000 C 
ATOM     21  H   UNL     1       1.402   2.258  17.389  0.00  0.00    +0.000 HD
BRANCH  19  22
ATOM     22  C   UNL     1       3.058   2.212  21.210  0.00  0.00    +0.000 C 
BRANCH  22  23
ATOM     23  O   UNL     1       1.917   2.616  21.961  0.00  0.00    +0.000 OA
ATOM     24  H   UNL     1       1.491   3.351  21.488  0.00  0.00    +0.000 HD
ENDBRANCH  22  23
ENDBRANCH  19  22
ENDBRANCH   3  15
BRANCH   3  25
ATOM     25  C   UNL     1       5.480   4.378  16.589  0.00  0.00    +0.000 C 
BRANCH  25  26
ATOM     26  C   UNL     1       5.703   4.910  15.152  0.00  0.00    +0.000 C 
ATOM     27  C   UNL     1       7.185   5.204  14.920  0.00  0.00    +0.000 C 
ATOM     28  C   UNL     1       5.150   3.993  14.055  0.00  0.00    +0.000 C 
ENDBRANCH  25  26
ENDBRANCH   3  25
TORSDOF 7
ENDMDL
MODEL 9
REMARK VINA RESULT:      -6.5      1.482      1.901
REMARK  Name = 
REMARK  10 active torsions:
REMARK  status: ('A' for Active; 'I' for Inactive)
REMARK    1  A    between atoms: C_1  and  C_2
REMARK    2  A    between atoms: C_2  and  N_3
REMARK    3  A    between atoms: C_4  and  C_5
REMARK    4  A    between atoms: N_7  and  C_8
REMARK    5  A    between atoms: N_7  and  C_12
REMARK    6  A    between atoms: C_8  and  C_9
REMARK    7  A    between atoms: C_9  and  C_10
REMARK    8  A    between atoms: C_9  and  C_11
REMARK    9  A    between atoms: C_16  and  C_17
REMARK   10  A    between atoms: C_17  and  O_18
REMARK                            x       y       z     vdW  Elec       q    Type
REMARK                         _______ _______ _______ _____ _____    ______ ____
ROOT
ATOM      1  C   UNL     1       4.418   3.437  19.303  0.00  0.00    +0.000 C 
ATOM      2  O   UNL     1       4.892   2.400  19.789  0.00  0.00    +0.000 OA
ATOM      3  N   UNL     1       3.310   4.060  19.949  0.00  0.00    +0.000 N 
ENDROOT
BRANCH   1   5
ATOM      4  N   UNL     1       6.019   4.885  17.877  0.00  0.00    +0.000 N 
ATOM      5  C   UNL     1       4.981   3.964  18.040  0.00  0.00    +0.000 A 
ATOM      6  N   UNL     1       4.604   3.541  16.840  0.00  0.00    +0.000 NA
ATOM      7  C   UNL     1       5.471   4.093  15.925  0.00  0.00    +0.000 A 
ATOM      8  C   UNL     1       5.483   4.026  14.525  0.00  0.00    +0.000 A 
ATOM      9  C   UNL     1       6.514   4.672  13.822  0.00  0.00    +0.000 A 
ATOM     10  C   UNL     1       7.549   5.316  14.502  0.00  0.00    +0.000 A 
ATOM     11  C   UNL     1       7.552   5.382  15.893  0.00  0.00    +0.000 A 
ATOM     12  C   UNL     1       6.461   4.816  16.566  0.00  0.00    +0.000 A 
BRANCH   4  14
ATOM     13  C   UNL     1       7.861   5.552  19.440  0.00  0.00    +0.000 C 
ATOM     14  C   UNL     1       6.509   5.903  18.799  0.00  0.00    +0.000 C 
ENDBRANCH   4  14
ENDBRANCH   1   5
BRANCH   3  15
ATOM     15  C   UNL     1       2.996   5.506  19.920  0.00  0.00    +0.000 C 
ATOM     16  C   UNL     1       1.966   6.076  20.925  0.00  0.00    +0.000 C 
ATOM     17  N   UNL     1       2.030   7.551  20.957  0.00  0.00    +0.000 NA
ATOM     18  C   UNL     1       1.810   8.120  19.625  0.00  0.00    +0.000 C 
ATOM     19  C   UNL     1       2.794   7.590  18.554  0.00  0.00    +0.000 C 
ATOM     20  C   UNL     1       2.770   6.060  18.518  0.00  0.00    +0.000 C 
ATOM     21  H   UNL     1       2.968   7.831  21.291  0.00  0.00    +0.000 HD
BRANCH  19  22
ATOM     22  C   UNL     1       2.466   8.139  17.168  0.00  0.00    +0.000 C 
BRANCH  22  23
ATOM     23  O   UNL     1       1.940   9.458  17.269  0.00  0.00    +0.000 OA
ATOM     24  H   UNL     1       2.186   9.942  16.462  0.00  0.00    +0.000 HD
ENDBRANCH  22  23
ENDBRANCH  19  22
ENDBRANCH   3  15
BRANCH   3  25
ATOM     25  C   UNL     1       2.630   3.321  21.064  0.00  0.00    +0.000 C 
BRANCH  25  26
ATOM     26  C   UNL     1       1.426   2.483  20.566  0.00  0.00    +0.000 C 
ATOM     27  C   UNL     1       0.256   3.398  20.206  0.00  0.00    +0.000 C 
ATOM     28  C   UNL     1       1.762   1.542  19.403  0.00  0.00    +0.000 C 
ENDBRANCH  25  26
ENDBRANCH   3  25
TORSDOF 7
ENDMDL
