MODEL 1
REMARK VINA RESULT:      -8.1      0.000      0.000
REMARK  Name = 
REMARK  12 active torsions:
REMARK  status: ('A' for Active; 'I' for Inactive)
REMARK    1  A    between atoms: C_1  and  C_2
REMARK    2  A    between atoms: C_2  and  C_3
REMARK    3  A    between atoms: C_2  and  C_4
REMARK    4  A    between atoms: C_4  and  C_5
REMARK    5  A    between atoms: C_8  and  C_9
REMARK    6  A    between atoms: C_9  and  C_10
REMARK    7  A    between atoms: C_9  and  C_11
REMARK    8  A    between atoms: N_13  and  C_14
REMARK    9  A    between atoms: C_14  and  C_15
REMARK   10  A    between atoms: C_15  and  C_16
REMARK   11  A    between atoms: C_16  and  C_17
REMARK   12  A    between atoms: N_19  and  C_20
REMARK                            x       y       z     vdW  Elec       q    Type
REMARK                         _______ _______ _______ _____ _____    ______ ____
ROOT
ATOM      1  C   UNL     1       6.873   4.858  17.212  0.00  0.00    +0.000 C 
ATOM      2  O   UNL     1       7.980   4.342  17.044  0.00  0.00    +0.000 OA
ATOM      3  N   UNL     1       6.660   5.839  18.154  0.00  0.00    +0.000 N 
ATOM      4  H   UNL     1       5.719   6.185  18.304  0.00  0.00    +0.000 HD
ENDROOT
BRANCH   1   5
ATOM      5  C   UNL     1       5.707   4.525  16.280  0.00  0.00    +0.000 C 
ATOM      6  C   UNL     1       5.518   5.685  15.297  0.00  0.00    +0.000 C 
BRANCH   5  10
ATOM      7  C   UNL     1       2.077   3.398  18.408  0.00  0.00    +0.000 A 
ATOM      8  C   UNL     1       2.228   4.678  17.868  0.00  0.00    +0.000 A 
ATOM      9  C   UNL     1       3.382   5.015  17.151  0.00  0.00    +0.000 A 
ATOM     10  C   UNL     1       4.417   4.085  16.969  0.00  0.00    +0.000 A 
ATOM     11  C   UNL     1       4.237   2.789  17.476  0.00  0.00    +0.000 A 
ATOM     12  C   UNL     1       3.084   2.453  18.189  0.00  0.00    +0.000 A 
BRANCH   7  13
ATOM     13  C   UNL     1       0.875   3.037  19.248  0.00  0.00    +0.000 C 
BRANCH  13  15
ATOM     14  C   UNL     1       1.765   2.508  21.574  0.00  0.00    +0.000 C 
ATOM     15  C   UNL     1       0.954   3.484  20.719  0.00  0.00    +0.000 C 
ATOM     16  C   UNL     1       1.580   4.879  20.797  0.00  0.00    +0.000 C 
ENDBRANCH  13  15
ENDBRANCH   7  13
ENDBRANCH   5  10
ENDBRANCH   1   5
BRANCH   3  17
ATOM     17  C   UNL     1       7.718   6.295  19.035  0.00  0.00    +0.000 C 
BRANCH  17  18
ATOM     18  C   UNL     1       8.492   7.454  18.441  0.00  0.00    +0.000 C 
BRANCH  18  19
ATOM     19  C   UNL     1       7.570   8.568  17.956  0.00  0.00    +0.000 C 
BRANCH  19  20
ATOM     20  C   UNL     1       8.278   9.904  18.046  0.00  0.00    +0.000 C 
ATOM     21  O   UNL     1       7.894  10.872  17.395  0.00  0.00    +0.000 OA
ATOM     22  N   UNL     1       9.363   9.887  18.903  0.00  0.00    +0.000 N 
ATOM     23  H   UNL     1       9.828   8.995  19.033  0.00  0.00    +0.000 HD
BRANCH  22  24
ATOM     24  C   UNL     1      10.144  11.032  19.172  0.00  0.00    +0.000 A 
ATOM     25  C   UNL     1      11.108  11.474  18.260  0.00  0.00    +0.000 A 
ATOM     26  C   UNL     1      11.871  12.610  18.537  0.00  0.00    +0.000 A 
ATOM     27  C   UNL     1      11.689  13.297  19.737  0.00  0.00    +0.000 A 
ATOM     28  C   UNL     1      10.727  12.866  20.650  0.00  0.00    +0.000 A 
ATOM     29  C   UNL     1       9.938  11.753  20.357  0.00  0.00    +0.000 A 
ATOM     30 CL   UNL     1       8.773  11.231  21.525  0.00  0.00    +0.000 Cl
ENDBRANCH  22  24
ENDBRANCH  19  20
ENDBRANCH  18  19
ENDBRANCH  17  18
ENDBRANCH   3  17
TORSDOF 9
ENDMDL
MODEL 2
REMARK VINA RESULT:      -8.1      4.339      7.498
REMARK  Name = 
REMARK  12 active torsions:
REMARK  status: ('A' for Active; 'I' for Inactive)
REMARK    1  A    between atoms: C_1  and  C_2
REMARK    2  A    between atoms: C_2  and  C_3
REMARK    3  A    between atoms: C_2  and  C_4
REMARK    4  A    between atoms: C_4  and  C_5
REMARK    5  A    between atoms: C_8  and  C_9
REMARK    6  A    between atoms: C_9  and  C_10
REMARK    7  A    between atoms: C_9  and  C_11
REMARK    8  A    between atoms: N_13  and  C_14
REMARK    9  A    between atoms: C_14  and  C_15
REMARK   10  A    between atoms: C_15  and  C_16
REMARK   11  A    between atoms: C_16  and  C_17
REMARK   12  A    between atoms: N_19  and  C_20
REMARK                            x       y       z     vdW  Elec       q    Type
REMARK                         _______ _______ _______ _____ _____    ______ ____
ROOT
ATOM      1  C   UNL     1       3.911   5.161  18.998  0.00  0.00    +0.000 C 
ATOM      2  O   UNL     1       3.591   4.610  17.944  0.00  0.00    +0.000 OA
ATOM      3  N   UNL     1       5.227   5.387  19.334  0.00  0.00    +0.000 N 
ATOM      4  H   UNL     1       5.446   5.780  20.242  0.00  0.00    +0.000 HD
ENDROOT
BRANCH   1   5
ATOM      5  C   UNL     1       2.847   5.748  19.928  0.00  0.00    +0.000 C 
ATOM      6  C   UNL     1       1.747   4.702  20.134  0.00  0.00    +0.000 C 
BRANCH   5  10
ATOM      7  C   UNL     1       1.151   9.610  18.843  0.00  0.00    +0.000 A 
ATOM      8  C   UNL     1       1.051   9.120  20.148  0.00  0.00    +0.000 A 
ATOM      9  C   UNL     1       1.635   7.895  20.493  0.00  0.00    +0.000 A 
ATOM     10  C   UNL     1       2.322   7.128  19.540  0.00  0.00    +0.000 A 
ATOM     11  C   UNL     1       2.457   7.650  18.245  0.00  0.00    +0.000 A 
ATOM     12  C   UNL     1       1.875   8.873  17.901  0.00  0.00    +0.000 A 
BRANCH   7  13
ATOM     13  C   UNL     1       0.465  10.891  18.431  0.00  0.00    +0.000 C 
BRANCH  13  15
ATOM     14  C   UNL     1       2.443  12.482  18.233  0.00  0.00    +0.000 C 
ATOM     15  C   UNL     1       1.128  12.179  18.953  0.00  0.00    +0.000 C 
ATOM     16  C   UNL     1       0.164  13.356  18.782  0.00  0.00    +0.000 C 
ENDBRANCH  13  15
ENDBRANCH   7  13
ENDBRANCH   5  10
ENDBRANCH   1   5
BRANCH   3  17
ATOM     17  C   UNL     1       6.318   4.949  18.484  0.00  0.00    +0.000 C 
BRANCH  17  18
ATOM     18  C   UNL     1       7.461   5.943  18.472  0.00  0.00    +0.000 C 
BRANCH  18  19
ATOM     19  C   UNL     1       7.294   6.994  17.380  0.00  0.00    +0.000 C 
BRANCH  19  20
ATOM     20  C   UNL     1       6.591   6.392  16.181  0.00  0.00    +0.000 C 
ATOM     21  O   UNL     1       5.445   6.718  15.887  0.00  0.00    +0.000 OA
ATOM     22  N   UNL     1       7.367   5.469  15.504  0.00  0.00    +0.000 N 
ATOM     23  H   UNL     1       8.071   4.980  16.047  0.00  0.00    +0.000 HD
BRANCH  22  24
ATOM     24  C   UNL     1       6.929   4.813  14.334  0.00  0.00    +0.000 A 
ATOM     25  C   UNL     1       5.804   3.981  14.353  0.00  0.00    +0.000 A 
ATOM     26  C   UNL     1       5.380   3.342  13.187  0.00  0.00    +0.000 A 
ATOM     27  C   UNL     1       6.091   3.512  12.000  0.00  0.00    +0.000 A 
ATOM     28  C   UNL     1       7.212   4.343  11.969  0.00  0.00    +0.000 A 
ATOM     29  C   UNL     1       7.613   5.012  13.127  0.00  0.00    +0.000 A 
ATOM     30 CL   UNL     1       9.023   6.014  13.059  0.00  0.00    +0.000 Cl
ENDBRANCH  22  24
ENDBRANCH  19  20
ENDBRANCH  18  19
ENDBRANCH  17  18
ENDBRANCH   3  17
TORSDOF 9
ENDMDL
MODEL 3
REMARK VINA RESULT:      -7.9      4.368      7.205
REMARK  Name = 
REMARK  12 active torsions:
REMARK  status: ('A' for Active; 'I' for Inactive)
REMARK    1  A    between atoms: C_1  and  C_2
REMARK    2  A    between atoms: C_2  and  C_3
REMARK    3  A    between atoms: C_2  and  C_4
REMARK    4  A    between atoms: C_4  and  C_5
REMARK    5  A    between atoms: C_8  and  C_9
REMARK    6  A    between atoms: C_9  and  C_10
REMARK    7  A    between atoms: C_9  and  C_11
REMARK    8  A    between atoms: N_13  and  C_14
REMARK    9  A    between atoms: C_14  and  C_15
REMARK   10  A    between atoms: C_15  and  C_16
REMARK   11  A    between atoms: C_16  and  C_17
REMARK   12  A    between atoms: N_19  and  C_20
REMARK                            x       y       z     vdW  Elec       q    Type
REMARK                         _______ _______ _______ _____ _____    ______ ____
ROOT
ATOM      1  C   UNL     1       3.891   4.259  19.549  0.00  0.00    +0.000 C 
ATOM      2  O   UNL     1       3.914   3.206  18.910  0.00  0.00    +0.000 OA
ATOM      3  N   UNL     1       5.011   5.047  19.698  0.00  0.00    +0.000 N 
ATOM      4  H   UNL     1       4.963   5.869  20.289  0.00  0.00    +0.000 HD
ENDROOT
BRANCH   1   5
ATOM      5  C   UNL     1       2.575   4.814  20.095  0.00  0.00    +0.000 C 
ATOM      6  C   UNL     1       1.469   3.782  19.850  0.00  0.00    +0.000 C 
BRANCH   5  10
ATOM      7  C   UNL     1       1.749   8.875  18.753  0.00  0.00    +0.000 A 
ATOM      8  C   UNL     1       2.174   7.891  17.855  0.00  0.00    +0.000 A 
ATOM      9  C   UNL     1       2.397   6.580  18.292  0.00  0.00    +0.000 A 
ATOM     10  C   UNL     1       2.213   6.225  19.636  0.00  0.00    +0.000 A 
ATOM     11  C   UNL     1       1.743   7.208  20.520  0.00  0.00    +0.000 A 
ATOM     12  C   UNL     1       1.518   8.516  20.084  0.00  0.00    +0.000 A 
BRANCH   7  13
ATOM     13  C   UNL     1       1.575  10.311  18.319  0.00  0.00    +0.000 C 
BRANCH  13  15
ATOM     14  C   UNL     1       0.348  12.516  18.656  0.00  0.00    +0.000 C 
ATOM     15  C   UNL     1       0.305  10.999  18.850  0.00  0.00    +0.000 C 
ATOM     16  C   UNL     1      -0.924  10.424  18.141  0.00  0.00    +0.000 C 
ENDBRANCH  13  15
ENDBRANCH   7  13
ENDBRANCH   5  10
ENDBRANCH   1   5
BRANCH   3  17
ATOM     17  C   UNL     1       6.296   4.660  19.148  0.00  0.00    +0.000 C 
BRANCH  17  18
ATOM     18  C   UNL     1       7.329   5.759  19.292  0.00  0.00    +0.000 C 
BRANCH  18  19
ATOM     19  C   UNL     1       7.629   6.441  17.962  0.00  0.00    +0.000 C 
BRANCH  19  20
ATOM     20  C   UNL     1       7.581   5.430  16.836  0.00  0.00    +0.000 C 
ATOM     21  O   UNL     1       8.067   4.310  16.967  0.00  0.00    +0.000 OA
ATOM     22  N   UNL     1       6.960   5.912  15.698  0.00  0.00    +0.000 N 
ATOM     23  H   UNL     1       6.994   6.915  15.551  0.00  0.00    +0.000 HD
BRANCH  22  24
ATOM     24  C   UNL     1       6.767   5.128  14.541  0.00  0.00    +0.000 A 
ATOM     25  C   UNL     1       7.652   5.210  13.461  0.00  0.00    +0.000 A 
ATOM     26  C   UNL     1       7.451   4.425  12.324  0.00  0.00    +0.000 A 
ATOM     27  C   UNL     1       6.351   3.571  12.252  0.00  0.00    +0.000 A 
ATOM     28  C   UNL     1       5.465   3.479  13.326  0.00  0.00    +0.000 A 
ATOM     29  C   UNL     1       5.688   4.235  14.477  0.00  0.00    +0.000 A 
ATOM     30 CL   UNL     1       4.554   4.116  15.779  0.00  0.00    +0.000 Cl
ENDBRANCH  22  24
ENDBRANCH  19  20
ENDBRANCH  18  19
ENDBRANCH  17  18
ENDBRANCH   3  17
TORSDOF 9
ENDMDL
MODEL 4
REMARK VINA RESULT:      -7.8      4.379      6.921
REMARK  Name = 
REMARK  12 active torsions:
REMARK  status: ('A' for Active; 'I' for Inactive)
REMARK    1  A    between atoms: C_1  and  C_2
REMARK    2  A    between atoms: C_2  and  C_3
REMARK    3  A    between atoms: C_2  and  C_4
REMARK    4  A    between atoms: C_4  and  C_5
REMARK    5  A    between atoms: C_8  and  C_9
REMARK    6  A    between atoms: C_9  and  C_10
REMARK    7  A    between atoms: C_9  and  C_11
REMARK    8  A    between atoms: N_13  and  C_14
REMARK    9  A    between atoms: C_14  and  C_15
REMARK   10  A    between atoms: C_15  and  C_16
REMARK   11  A    between atoms: C_16  and  C_17
REMARK   12  A    between atoms: N_19  and  C_20
REMARK                            x       y       z     vdW  Elec       q    Type
REMARK                         _______ _______ _______ _____ _____    ______ ____
ROOT
ATOM      1  C   UNL     1       5.071   4.433  19.283  0.00  0.00    +0.000 C 
ATOM      2  O   UNL     1       5.655   3.404  18.941  0.00  0.00    +0.000 OA
ATOM      3  N   UNL     1       5.752   5.583  19.613  0.00  0.00    +0.000 N 
ATOM      4  H   UNL     1       5.235   6.385  19.955  0.00  0.00    +0.000 HD
ENDROOT
BRANCH   1   5
ATOM      5  C   UNL     1       3.545   4.523  19.224  0.00  0.00    +0.000 C 
ATOM      6  C   UNL     1       3.030   3.463  18.244  0.00  0.00    +0.000 C 
BRANCH   5  10
ATOM      7  C   UNL     1       2.119   8.579  18.524  0.00  0.00    +0.000 A 
ATOM      8  C   UNL     1       2.807   7.875  17.531  0.00  0.00    +0.000 A 
ATOM      9  C   UNL     1       3.225   6.558  17.755  0.00  0.00    +0.000 A 
ATOM     10  C   UNL     1       2.976   5.918  18.978  0.00  0.00    +0.000 A 
ATOM     11  C   UNL     1       2.244   6.616  19.951  0.00  0.00    +0.000 A 
ATOM     12  C   UNL     1       1.826   7.930  19.727  0.00  0.00    +0.000 A 
BRANCH   7  13
ATOM     13  C   UNL     1       1.726  10.024  18.332  0.00  0.00    +0.000 C 
BRANCH  13  15
ATOM     14  C   UNL     1       1.031  11.823  19.995  0.00  0.00    +0.000 C 
ATOM     15  C   UNL     1       0.627  10.529  19.286  0.00  0.00    +0.000 C 
ATOM     16  C   UNL     1      -0.668  10.754  18.501  0.00  0.00    +0.000 C 
ENDBRANCH  13  15
ENDBRANCH   7  13
ENDBRANCH   5  10
ENDBRANCH   1   5
BRANCH   3  17
ATOM     17  C   UNL     1       7.202   5.638  19.620  0.00  0.00    +0.000 C 
BRANCH  17  18
ATOM     18  C   UNL     1       7.775   5.659  18.218  0.00  0.00    +0.000 C 
BRANCH  18  19
ATOM     19  C   UNL     1       7.288   6.863  17.418  0.00  0.00    +0.000 C 
BRANCH  19  20
ATOM     20  C   UNL     1       6.717   6.409  16.091  0.00  0.00    +0.000 C 
ATOM     21  O   UNL     1       5.692   6.908  15.637  0.00  0.00    +0.000 OA
ATOM     22  N   UNL     1       7.459   5.404  15.496  0.00  0.00    +0.000 N 
ATOM     23  H   UNL     1       7.989   4.800  16.116  0.00  0.00    +0.000 HD
BRANCH  22  24
ATOM     24  C   UNL     1       7.134   4.858  14.236  0.00  0.00    +0.000 A 
ATOM     25  C   UNL     1       7.811   5.262  13.080  0.00  0.00    +0.000 A 
ATOM     26  C   UNL     1       7.482   4.710  11.842  0.00  0.00    +0.000 A 
ATOM     27  C   UNL     1       6.459   3.767  11.747  0.00  0.00    +0.000 A 
ATOM     28  C   UNL     1       5.782   3.354  12.895  0.00  0.00    +0.000 A 
ATOM     29  C   UNL     1       6.136   3.878  14.139  0.00  0.00    +0.000 A 
ATOM     30 CL   UNL     1       5.256   3.362  15.537  0.00  0.00    +0.000 Cl
ENDBRANCH  22  24
ENDBRANCH  19  20
ENDBRANCH  18  19
ENDBRANCH  17  18
ENDBRANCH   3  17
TORSDOF 9
ENDMDL
MODEL 5
REMARK VINA RESULT:      -7.8      5.856      9.255
REMARK  Name = 
REMARK  12 active torsions:
REMARK  status: ('A' for Active; 'I' for Inactive)
REMARK    1  A    between atoms: C_1  and  C_2
REMARK    2  A    between atoms: C_2  and  C_3
REMARK    3  A    between atoms: C_2  and  C_4
REMARK    4  A    between atoms: C_4  and  C_5
REMARK    5  A    between atoms: C_8  and  C_9
REMARK    6  A    between atoms: C_9  and  C_10
REMARK    7  A    between atoms: C_9  and  C_11
REMARK    8  A    between atoms: N_13  and  C_14
REMARK    9  A    between atoms: C_14  and  C_15
REMARK   10  A    between atoms: C_15  and  C_16
REMARK   11  A    between atoms: C_16  and  C_17
REMARK   12  A    between atoms: N_19  and  C_20
REMARK                            x       y       z     vdW  Elec       q    Type
REMARK                         _______ _______ _______ _____ _____    ______ ____
ROOT
ATOM      1  C   UNL     1       2.130   6.969  19.779  0.00  0.00    +0.000 C 
ATOM      2  O   UNL     1       2.366   7.741  18.849  0.00  0.00    +0.000 OA
ATOM      3  N   UNL     1       1.705   7.416  21.010  0.00  0.00    +0.000 N 
ATOM      4  H   UNL     1       1.589   6.751  21.766  0.00  0.00    +0.000 HD
ENDROOT
BRANCH   1   5
ATOM      5  C   UNL     1       2.167   5.454  19.566  0.00  0.00    +0.000 C 
ATOM      6  C   UNL     1       2.178   4.768  20.936  0.00  0.00    +0.000 C 
BRANCH   5  10
ATOM      7  C   UNL     1       5.264   4.207  16.770  0.00  0.00    +0.000 A 
ATOM      8  C   UNL     1       5.562   5.043  17.849  0.00  0.00    +0.000 A 
ATOM      9  C   UNL     1       4.566   5.404  18.764  0.00  0.00    +0.000 A 
ATOM     10  C   UNL     1       3.247   4.949  18.614  0.00  0.00    +0.000 A 
ATOM     11  C   UNL     1       2.968   4.072  17.553  0.00  0.00    +0.000 A 
ATOM     12  C   UNL     1       3.964   3.711  16.642  0.00  0.00    +0.000 A 
BRANCH   7  13
ATOM     13  C   UNL     1       6.306   3.866  15.730  0.00  0.00    +0.000 C 
BRANCH  13  15
ATOM     14  C   UNL     1       7.475   5.315  13.994  0.00  0.00    +0.000 C 
ATOM     15  C   UNL     1       6.169   4.631  14.401  0.00  0.00    +0.000 C 
ATOM     16  C   UNL     1       5.728   3.665  13.298  0.00  0.00    +0.000 C 
ENDBRANCH  13  15
ENDBRANCH   7  13
ENDBRANCH   5  10
ENDBRANCH   1   5
BRANCH   3  17
ATOM     17  C   UNL     1       1.551   8.830  21.298  0.00  0.00    +0.000 C 
BRANCH  17  18
ATOM     18  C   UNL     1       0.168   9.334  20.940  0.00  0.00    +0.000 C 
BRANCH  18  19
ATOM     19  C   UNL     1       0.150  10.842  20.712  0.00  0.00    +0.000 C 
BRANCH  19  20
ATOM     20  C   UNL     1      -0.495  11.159  19.379  0.00  0.00    +0.000 C 
ATOM     21  O   UNL     1      -0.031  12.020  18.637  0.00  0.00    +0.000 OA
ATOM     22  N   UNL     1      -1.622  10.398  19.127  0.00  0.00    +0.000 N 
ATOM     23  H   UNL     1      -2.137  10.063  19.935  0.00  0.00    +0.000 HD
BRANCH  22  24
ATOM     24  C   UNL     1      -2.359  10.497  17.928  0.00  0.00    +0.000 A 
ATOM     25  C   UNL     1      -1.973   9.788  16.785  0.00  0.00    +0.000 A 
ATOM     26  C   UNL     1      -2.715   9.892  15.608  0.00  0.00    +0.000 A 
ATOM     27  C   UNL     1      -3.833  10.723  15.558  0.00  0.00    +0.000 A 
ATOM     28  C   UNL     1      -4.229  11.431  16.693  0.00  0.00    +0.000 A 
ATOM     29  C   UNL     1      -3.510  11.297  17.882  0.00  0.00    +0.000 A 
ATOM     30 CL   UNL     1      -4.014  12.211  19.263  0.00  0.00    +0.000 Cl
ENDBRANCH  22  24
ENDBRANCH  19  20
ENDBRANCH  18  19
ENDBRANCH  17  18
ENDBRANCH   3  17
TORSDOF 9
ENDMDL
MODEL 6
REMARK VINA RESULT:      -7.8      4.343      7.278
REMARK  Name = 
REMARK  12 active torsions:
REMARK  status: ('A' for Active; 'I' for Inactive)
REMARK    1  A    between atoms: C_1  and  C_2
REMARK    2  A    between atoms: C_2  and  C_3
REMARK    3  A    between atoms: C_2  and  C_4
REMARK    4  A    between atoms: C_4  and  C_5
REMARK    5  A    between atoms: C_8  and  C_9
REMARK    6  A    between atoms: C_9  and  C_10
REMARK    7  A    between atoms: C_9  and  C_11
REMARK    8  A    between atoms: N_13  and  C_14
REMARK    9  A    between atoms: C_14  and  C_15
REMARK   10  A    between atoms: C_15  and  C_16
REMARK   11  A    between atoms: C_16  and  C_17
REMARK   12  A    between atoms: N_19  and  C_20
REMARK                            x       y       z     vdW  Elec       q    Type
REMARK                         _______ _______ _______ _____ _____    ______ ____
ROOT
ATOM      1  C   UNL     1       4.094   4.360  19.510  0.00  0.00    +0.000 C 
ATOM      2  O   UNL     1       4.048   3.190  19.128  0.00  0.00    +0.000 OA
ATOM      3  N   UNL     1       5.158   5.183  19.213  0.00  0.00    +0.000 N 
ATOM      4  H   UNL     1       5.186   6.117  19.606  0.00  0.00    +0.000 HD
ENDROOT
BRANCH   1   5
ATOM      5  C   UNL     1       2.900   4.999  20.221  0.00  0.00    +0.000 C 
ATOM      6  C   UNL     1       1.783   3.956  20.334  0.00  0.00    +0.000 C 
BRANCH   5  10
ATOM      7  C   UNL     1       1.782   8.875  18.579  0.00  0.00    +0.000 A 
ATOM      8  C   UNL     1       2.297   7.867  17.759  0.00  0.00    +0.000 A 
ATOM      9  C   UNL     1       2.615   6.612  18.292  0.00  0.00    +0.000 A 
ATOM     10  C   UNL     1       2.437   6.340  19.657  0.00  0.00    +0.000 A 
ATOM     11  C   UNL     1       1.876   7.343  20.462  0.00  0.00    +0.000 A 
ATOM     12  C   UNL     1       1.558   8.595  19.930  0.00  0.00    +0.000 A 
BRANCH   7  13
ATOM     13  C   UNL     1       1.504  10.258  18.040  0.00  0.00    +0.000 C 
BRANCH  13  15
ATOM     14  C   UNL     1       0.980  12.592  18.912  0.00  0.00    +0.000 C 
ATOM     15  C   UNL     1       0.572  11.118  18.913  0.00  0.00    +0.000 C 
ATOM     16  C   UNL     1      -0.868  10.983  18.412  0.00  0.00    +0.000 C 
ENDBRANCH  13  15
ENDBRANCH   7  13
ENDBRANCH   5  10
ENDBRANCH   1   5
BRANCH   3  17
ATOM     17  C   UNL     1       6.308   4.707  18.469  0.00  0.00    +0.000 C 
BRANCH  17  18
ATOM     18  C   UNL     1       7.445   5.708  18.479  0.00  0.00    +0.000 C 
BRANCH  18  19
ATOM     19  C   UNL     1       7.221   6.839  17.480  0.00  0.00    +0.000 C 
BRANCH  19  20
ATOM     20  C   UNL     1       6.572   6.300  16.222  0.00  0.00    +0.000 C 
ATOM     21  O   UNL     1       5.466   6.691  15.860  0.00  0.00    +0.000 OA
ATOM     22  N   UNL     1       7.344   5.351  15.576  0.00  0.00    +0.000 N 
ATOM     23  H   UNL     1       7.984   4.815  16.152  0.00  0.00    +0.000 HD
BRANCH  22  24
ATOM     24  C   UNL     1       6.954   4.745  14.363  0.00  0.00    +0.000 A 
ATOM     25  C   UNL     1       5.870   3.861  14.316  0.00  0.00    +0.000 A 
ATOM     26  C   UNL     1       5.494   3.272  13.108  0.00  0.00    +0.000 A 
ATOM     27  C   UNL     1       6.212   3.544  11.945  0.00  0.00    +0.000 A 
ATOM     28  C   UNL     1       7.292   4.426  11.980  0.00  0.00    +0.000 A 
ATOM     29  C   UNL     1       7.645   5.045  13.181  0.00  0.00    +0.000 A 
ATOM     30 CL   UNL     1       9.006   6.114  13.193  0.00  0.00    +0.000 Cl
ENDBRANCH  22  24
ENDBRANCH  19  20
ENDBRANCH  18  19
ENDBRANCH  17  18
ENDBRANCH   3  17
TORSDOF 9
ENDMDL
MODEL 7
REMARK VINA RESULT:      -7.7      5.080      7.985
REMARK  Name = 
REMARK  12 active torsions:
REMARK  status: ('A' for Active; 'I' for Inactive)
REMARK    1  A    between atoms: C_1  and  C_2
REMARK    2  A    between atoms: C_2  and  C_3
REMARK    3  A    between atoms: C_2  and  C_4
REMARK    4  A    between atoms: C_4  and  C_5
REMARK    5  A    between atoms: C_8  and  C_9
REMARK    6  A    between atoms: C_9  and  C_10
REMARK    7  A    between atoms: C_9  and  C_11
REMARK    8  A    between atoms: N_13  and  C_14
REMARK    9  A    between atoms: C_14  and  C_15
REMARK   10  A    between atoms: C_15  and  C_16
REMARK   11  A    between atoms: C_16  and  C_17
REMARK   12  A    between atoms: N_19  and  C_20
REMARK                            x       y       z     vdW  Elec       q    Type
REMARK                         _______ _______ _______ _____ _____    ______ ____
ROOT
ATOM      1  C   UNL     1       4.294   5.506  18.748  0.00  0.00    +0.000 C 
ATOM      2  O   UNL     1       3.795   5.269  19.849  0.00  0.00    +0.000 OA
ATOM      3  N   UNL     1       3.713   6.379  17.855  0.00  0.00    +0.000 N 
ATOM      4  H   UNL     1       4.121   6.490  16.934  0.00  0.00    +0.000 HD
ENDROOT
BRANCH   1   5
ATOM      5  C   UNL     1       5.665   4.942  18.373  0.00  0.00    +0.000 C 
ATOM      6  C   UNL     1       6.746   5.892  18.897  0.00  0.00    +0.000 C 
BRANCH   5  10
ATOM      7  C   UNL     1       6.143   4.049  14.136  0.00  0.00    +0.000 A 
ATOM      8  C   UNL     1       7.125   4.751  14.840  0.00  0.00    +0.000 A 
ATOM      9  C   UNL     1       6.978   4.997  16.211  0.00  0.00    +0.000 A 
ATOM     10  C   UNL     1       5.842   4.557  16.906  0.00  0.00    +0.000 A 
ATOM     11  C   UNL     1       4.883   3.814  16.200  0.00  0.00    +0.000 A 
ATOM     12  C   UNL     1       5.031   3.567  14.833  0.00  0.00    +0.000 A 
BRANCH   7  13
ATOM     13  C   UNL     1       6.246   3.839  12.644  0.00  0.00    +0.000 C 
BRANCH  13  15
ATOM     14  C   UNL     1       4.210   3.218  11.248  0.00  0.00    +0.000 C 
ATOM     15  C   UNL     1       5.376   2.696  12.089  0.00  0.00    +0.000 C 
ATOM     16  C   UNL     1       6.242   1.758  11.244  0.00  0.00    +0.000 C 
ENDBRANCH  13  15
ENDBRANCH   7  13
ENDBRANCH   5  10
ENDBRANCH   1   5
BRANCH   3  17
ATOM     17  C   UNL     1       2.453   7.039  18.142  0.00  0.00    +0.000 C 
BRANCH  17  18
ATOM     18  C   UNL     1       2.636   8.519  18.407  0.00  0.00    +0.000 C 
BRANCH  18  19
ATOM     19  C   UNL     1       1.632   9.367  17.634  0.00  0.00    +0.000 C 
BRANCH  19  20
ATOM     20  C   UNL     1       0.598   9.941  18.581  0.00  0.00    +0.000 C 
ATOM     21  O   UNL     1      -0.583  10.025  18.257  0.00  0.00    +0.000 OA
ATOM     22  N   UNL     1       1.135  10.345  19.790  0.00  0.00    +0.000 N 
ATOM     23  H   UNL     1       2.110  10.626  19.785  0.00  0.00    +0.000 HD
BRANCH  22  24
ATOM     24  C   UNL     1       0.349  10.872  20.838  0.00  0.00    +0.000 A 
ATOM     25  C   UNL     1       0.053  12.238  20.898  0.00  0.00    +0.000 A 
ATOM     26  C   UNL     1      -0.728  12.744  21.938  0.00  0.00    +0.000 A 
ATOM     27  C   UNL     1      -1.199  11.891  22.936  0.00  0.00    +0.000 A 
ATOM     28  C   UNL     1      -0.913  10.527  22.882  0.00  0.00    +0.000 A 
ATOM     29  C   UNL     1      -0.163  10.015  21.822  0.00  0.00    +0.000 A 
ATOM     30 CL   UNL     1       0.195   8.322  21.802  0.00  0.00    +0.000 Cl
ENDBRANCH  22  24
ENDBRANCH  19  20
ENDBRANCH  18  19
ENDBRANCH  17  18
ENDBRANCH   3  17
TORSDOF 9
ENDMDL
MODEL 8
REMARK VINA RESULT:      -7.6      6.407      9.150
REMARK  Name = 
REMARK  12 active torsions:
REMARK  status: ('A' for Active; 'I' for Inactive)
REMARK    1  A    between atoms: C_1  and  C_2
REMARK    2  A    between atoms: C_2  and  C_3
REMARK    3  A    between atoms: C_2  and  C_4
REMARK    4  A    between atoms: C_4  and  C_5
REMARK    5  A    between atoms: C_8  and  C_9
REMARK    6  A    between atoms: C_9  and  C_10
REMARK    7  A    between atoms: C_9  and  C_11
REMARK    8  A    between atoms: N_13  and  C_14
REMARK    9  A    between atoms: C_14  and  C_15
REMARK   10  A    between atoms: C_15  and  C_16
REMARK   11  A    between atoms: C_16  and  C_17
REMARK   12  A    between atoms: N_19  and  C_20
REMARK                            x       y       z     vdW  Elec       q    Type
REMARK                         _______ _______ _______ _____ _____    ______ ____
ROOT
ATOM      1  C   UNL     1       0.556   9.573  20.426  0.00  0.00    +0.000 C 
ATOM      2  O   UNL     1      -0.235   9.382  21.351  0.00  0.00    +0.000 OA
ATOM      3  N   UNL     1       1.501   8.638  20.068  0.00  0.00    +0.000 N 
ATOM      4  H   UNL     1       2.176   8.866  19.347  0.00  0.00    +0.000 HD
ENDROOT
BRANCH   1   5
ATOM      5  C   UNL     1       0.436  10.813  19.538  0.00  0.00    +0.000 C 
ATOM      6  C   UNL     1       0.845  12.043  20.356  0.00  0.00    +0.000 C 
BRANCH   5  10
ATOM      7  C   UNL     1      -3.456  11.181  17.618  0.00  0.00    +0.000 A 
ATOM      8  C   UNL     1      -3.127  11.955  18.734  0.00  0.00    +0.000 A 
ATOM      9  C   UNL     1      -1.858  11.857  19.318  0.00  0.00    +0.000 A 
ATOM     10  C   UNL     1      -0.895  10.974  18.807  0.00  0.00    +0.000 A 
ATOM     11  C   UNL     1      -1.219  10.235  17.659  0.00  0.00    +0.000 A 
ATOM     12  C   UNL     1      -2.484  10.335  17.076  0.00  0.00    +0.000 A 
BRANCH   7  13
ATOM     13  C   UNL     1      -4.842  11.216  17.020  0.00  0.00    +0.000 C 
BRANCH  13  15
ATOM     14  C   UNL     1      -6.810  12.826  17.138  0.00  0.00    +0.000 C 
ATOM     15  C   UNL     1      -5.918  11.857  17.915  0.00  0.00    +0.000 C 
ATOM     16  C   UNL     1      -6.779  10.760  18.547  0.00  0.00    +0.000 C 
ENDBRANCH  13  15
ENDBRANCH   7  13
ENDBRANCH   5  10
ENDBRANCH   1   5
BRANCH   3  17
ATOM     17  C   UNL     1       1.648   7.386  20.787  0.00  0.00    +0.000 C 
BRANCH  17  18
ATOM     18  C   UNL     1       1.867   6.216  19.850  0.00  0.00    +0.000 C 
BRANCH  18  19
ATOM     19  C   UNL     1       2.567   5.051  20.543  0.00  0.00    +0.000 C 
BRANCH  19  20
ATOM     20  C   UNL     1       3.579   4.423  19.608  0.00  0.00    +0.000 C 
ATOM     21  O   UNL     1       3.841   3.225  19.668  0.00  0.00    +0.000 OA
ATOM     22  N   UNL     1       4.147   5.330  18.733  0.00  0.00    +0.000 N 
ATOM     23  H   UNL     1       4.191   6.296  19.042  0.00  0.00    +0.000 HD
BRANCH  22  24
ATOM     24  C   UNL     1       5.085   4.958  17.746  0.00  0.00    +0.000 A 
ATOM     25  C   UNL     1       4.667   4.515  16.487  0.00  0.00    +0.000 A 
ATOM     26  C   UNL     1       5.607   4.154  15.520  0.00  0.00    +0.000 A 
ATOM     27  C   UNL     1       6.968   4.211  15.814  0.00  0.00    +0.000 A 
ATOM     28  C   UNL     1       7.395   4.655  17.066  0.00  0.00    +0.000 A 
ATOM     29  C   UNL     1       6.457   5.052  18.020  0.00  0.00    +0.000 A 
ATOM     30 CL   UNL     1       7.021   5.573  19.571  0.00  0.00    +0.000 Cl
ENDBRANCH  22  24
ENDBRANCH  19  20
ENDBRANCH  18  19
ENDBRANCH  17  18
ENDBRANCH   3  17
TORSDOF 9
ENDMDL
MODEL 9
REMARK VINA RESULT:      -7.6      4.955      7.955
REMARK  Name = 
REMARK  12 active torsions:
REMARK  status: ('A' for Active; 'I' for Inactive)
REMARK    1  A    between atoms: C_1  and  C_2
REMARK    2  A    between atoms: C_2  and  C_3
REMARK    3  A    between atoms: C_2  and  C_4
REMARK    4  A    between atoms: C_4  and  C_5
REMARK    5  A    between atoms: C_8  and  C_9
REMARK    6  A    between atoms: C_9  and  C_10
REMARK    7  A    between atoms: C_9  and  C_11
REMARK    8  A    between atoms: N_13  and  C_14
REMARK    9  A    between atoms: C_14  and  C_15
REMARK   10  A    between atoms: C_15  and  C_16
REMARK   11  A    between atoms: C_16  and  C_17
REMARK   12  A    between atoms: N_19  and  C_20
REMARK                            x       y       z     vdW  Elec       q    Type
REMARK                         _______ _______ _______ _____ _____    ______ ____
ROOT
ATOM      1  C   UNL     1       4.516   5.573  18.614  0.00  0.00    +0.000 C 
ATOM      2  O   UNL     1       4.134   5.557  19.785  0.00  0.00    +0.000 OA
ATOM      3  N   UNL     1       3.778   6.168  17.614  0.00  0.00    +0.000 N 
ATOM      4  H   UNL     1       4.097   6.097  16.655  0.00  0.00    +0.000 HD
ENDROOT
BRANCH   1   5
ATOM      5  C   UNL     1       5.902   5.049  18.236  0.00  0.00    +0.000 C 
ATOM      6  C   UNL     1       6.954   6.049  18.726  0.00  0.00    +0.000 C 
BRANCH   5  10
ATOM      7  C   UNL     1       6.316   4.061  14.013  0.00  0.00    +0.000 A 
ATOM      8  C   UNL     1       7.123   5.036  14.608  0.00  0.00    +0.000 A 
ATOM      9  C   UNL     1       7.007   5.315  15.975  0.00  0.00    +0.000 A 
ATOM     10  C   UNL     1       6.075   4.637  16.776  0.00  0.00    +0.000 A 
ATOM     11  C   UNL     1       5.303   3.629  16.179  0.00  0.00    +0.000 A 
ATOM     12  C   UNL     1       5.419   3.349  14.816  0.00  0.00    +0.000 A 
BRANCH   7  13
ATOM     13  C   UNL     1       6.371   3.797  12.528  0.00  0.00    +0.000 C 
BRANCH  13  15
ATOM     14  C   UNL     1       4.282   3.173  11.213  0.00  0.00    +0.000 C 
ATOM     15  C   UNL     1       5.461   2.656  12.038  0.00  0.00    +0.000 C 
ATOM     16  C   UNL     1       6.282   1.670  11.202  0.00  0.00    +0.000 C 
ENDBRANCH  13  15
ENDBRANCH   7  13
ENDBRANCH   5  10
ENDBRANCH   1   5
BRANCH   3  17
ATOM     17  C   UNL     1       2.486   6.774  17.875  0.00  0.00    +0.000 C 
BRANCH  17  18
ATOM     18  C   UNL     1       2.619   8.124  18.549  0.00  0.00    +0.000 C 
BRANCH  18  19
ATOM     19  C   UNL     1       1.835   9.208  17.818  0.00  0.00    +0.000 C 
BRANCH  19  20
ATOM     20  C   UNL     1       0.776   9.790  18.731  0.00  0.00    +0.000 C 
ATOM     21  O   UNL     1      -0.392   9.891  18.365  0.00  0.00    +0.000 OA
ATOM     22  N   UNL     1       1.273  10.180  19.960  0.00  0.00    +0.000 N 
ATOM     23  H   UNL     1       2.251  10.448  19.992  0.00  0.00    +0.000 HD
BRANCH  22  24
ATOM     24  C   UNL     1       0.457  10.711  20.982  0.00  0.00    +0.000 A 
ATOM     25  C   UNL     1      -0.094   9.883  21.966  0.00  0.00    +0.000 A 
ATOM     26  C   UNL     1      -0.895  10.423  22.973  0.00  0.00    +0.000 A 
ATOM     27  C   UNL     1      -1.170  11.789  22.990  0.00  0.00    +0.000 A 
ATOM     28  C   UNL     1      -0.621  12.624  22.016  0.00  0.00    +0.000 A 
ATOM     29  C   UNL     1       0.211  12.090  21.031  0.00  0.00    +0.000 A 
ATOM     30 CL   UNL     1       0.852  13.151  19.823  0.00  0.00    +0.000 Cl
ENDBRANCH  22  24
ENDBRANCH  19  20
ENDBRANCH  18  19
ENDBRANCH  17  18
ENDBRANCH   3  17
TORSDOF 9
ENDMDL
