MODEL 1
REMARK VINA RESULT:      -7.0      0.000      0.000
REMARK  Name = 
REMARK  10 active torsions:
REMARK  status: ('A' for Active; 'I' for Inactive)
REMARK    1  A    between atoms: C_1  and  C_2
REMARK    2  A    between atoms: C_2  and  C_3
REMARK    3  A    between atoms: C_3  and  N_4
REMARK    4  A    between atoms: C_8  and  S_9
REMARK    5  A    between atoms: S_9  and  C_10
REMARK    6  A    between atoms: C_10  and  C_11
REMARK    7  A    between atoms: N_13  and  C_14
REMARK    8  A    between atoms: C_14  and  C_15
REMARK    9  A    between atoms: C_18  and  O_19
REMARK   10  A    between atoms: O_19  and  C_20
REMARK                            x       y       z     vdW  Elec       q    Type
REMARK                         _______ _______ _______ _____ _____    ______ ____
ROOT
ATOM      1  C   UNL     1       5.954   4.886  18.432  0.00  0.00    +0.000 C 
ATOM      2  O   UNL     1       6.378   5.240  19.533  0.00  0.00    +0.000 OA
ATOM      3  N   UNL     1       4.612   4.720  18.165  0.00  0.00    +0.000 N 
ATOM      4  H   UNL     1       4.313   4.409  17.251  0.00  0.00    +0.000 HD
ENDROOT
BRANCH   1   5
ATOM      5  C   UNL     1       6.875   4.602  17.254  0.00  0.00    +0.000 C 
BRANCH   5   6
ATOM      6  S   UNL     1       5.931   3.964  15.833  0.00  0.00    +0.000 S 
BRANCH   6  11
ATOM      7  N   UNL     1       6.753   4.188  13.221  0.00  0.00    +0.000 N 
ATOM      8  N   UNL     1       7.612   4.907  12.468  0.00  0.00    +0.000 NA
ATOM      9  N   UNL     1       8.250   5.696  13.320  0.00  0.00    +0.000 NA
ATOM     10  N   UNL     1       7.796   5.510  14.601  0.00  0.00    +0.000 NA
ATOM     11  C   UNL     1       6.865   4.586  14.522  0.00  0.00    +0.000 A 
BRANCH   7  12
ATOM     12  C   UNL     1       5.866   3.238  12.587  0.00  0.00    +0.000 C 
BRANCH  12  14
ATOM     13  C   UNL     1       3.860   2.899  11.091  0.00  0.00    +0.000 C 
ATOM     14  C   UNL     1       4.700   3.908  11.857  0.00  0.00    +0.000 C 
ENDBRANCH  12  14
ENDBRANCH   7  12
ENDBRANCH   6  11
ENDBRANCH   5   6
ENDBRANCH   1   5
BRANCH   3  15
ATOM     15  C   UNL     1       3.599   4.897  19.179  0.00  0.00    +0.000 C 
BRANCH  15  16
ATOM     16  C   UNL     1       2.960   6.259  19.101  0.00  0.00    +0.000 A 
ATOM     17  C   UNL     1       2.238   6.783  20.181  0.00  0.00    +0.000 A 
ATOM     18  C   UNL     1       1.651   8.048  20.092  0.00  0.00    +0.000 A 
ATOM     19  C   UNL     1       1.785   8.813  18.932  0.00  0.00    +0.000 A 
ATOM     20  C   UNL     1       2.479   8.290  17.843  0.00  0.00    +0.000 A 
ATOM     21  C   UNL     1       3.058   7.019  17.927  0.00  0.00    +0.000 A 
BRANCH  19  22
ATOM     22  O   UNL     1       1.161  10.031  18.962  0.00  0.00    +0.000 OA
ATOM     23  C   UNL     1      -0.080  10.103  18.266  0.00  0.00    +0.000 C 
ENDBRANCH  19  22
ENDBRANCH  15  16
ENDBRANCH   3  15
TORSDOF 8
ENDMDL
MODEL 2
REMARK VINA RESULT:      -6.9      0.638      1.201
REMARK  Name = 
REMARK  10 active torsions:
REMARK  status: ('A' for Active; 'I' for Inactive)
REMARK    1  A    between atoms: C_1  and  C_2
REMARK    2  A    between atoms: C_2  and  C_3
REMARK    3  A    between atoms: C_3  and  N_4
REMARK    4  A    between atoms: C_8  and  S_9
REMARK    5  A    between atoms: S_9  and  C_10
REMARK    6  A    between atoms: C_10  and  C_11
REMARK    7  A    between atoms: N_13  and  C_14
REMARK    8  A    between atoms: C_14  and  C_15
REMARK    9  A    between atoms: C_18  and  O_19
REMARK   10  A    between atoms: O_19  and  C_20
REMARK                            x       y       z     vdW  Elec       q    Type
REMARK                         _______ _______ _______ _____ _____    ______ ____
ROOT
ATOM      1  C   UNL     1       5.706   4.505  18.063  0.00  0.00    +0.000 C 
ATOM      2  O   UNL     1       6.059   4.732  19.221  0.00  0.00    +0.000 OA
ATOM      3  N   UNL     1       4.387   4.330  17.703  0.00  0.00    +0.000 N 
ATOM      4  H   UNL     1       4.147   4.126  16.743  0.00  0.00    +0.000 HD
ENDROOT
BRANCH   1   5
ATOM      5  C   UNL     1       6.696   4.399  16.913  0.00  0.00    +0.000 C 
BRANCH   5   6
ATOM      6  S   UNL     1       5.878   3.782  15.408  0.00  0.00    +0.000 S 
BRANCH   6  11
ATOM      7  N   UNL     1       6.839   4.187  12.866  0.00  0.00    +0.000 N 
ATOM      8  N   UNL     1       7.690   4.997  12.202  0.00  0.00    +0.000 NA
ATOM      9  N   UNL     1       8.219   5.786  13.127  0.00  0.00    +0.000 NA
ATOM     10  N   UNL     1       7.702   5.508  14.367  0.00  0.00    +0.000 NA
ATOM     11  C   UNL     1       6.844   4.528  14.188  0.00  0.00    +0.000 A 
BRANCH   7  12
ATOM     12  C   UNL     1       6.061   3.212  12.135  0.00  0.00    +0.000 C 
BRANCH  12  14
ATOM     13  C   UNL     1       3.933   3.333  10.779  0.00  0.00    +0.000 C 
ATOM     14  C   UNL     1       4.560   3.514  12.152  0.00  0.00    +0.000 C 
ENDBRANCH  12  14
ENDBRANCH   7  12
ENDBRANCH   6  11
ENDBRANCH   5   6
ENDBRANCH   1   5
BRANCH   3  15
ATOM     15  C   UNL     1       3.317   4.346  18.673  0.00  0.00    +0.000 C 
BRANCH  15  16
ATOM     16  C   UNL     1       2.781   5.737  18.894  0.00  0.00    +0.000 A 
ATOM     17  C   UNL     1       2.777   6.684  17.862  0.00  0.00    +0.000 A 
ATOM     18  C   UNL     1       2.277   7.969  18.085  0.00  0.00    +0.000 A 
ATOM     19  C   UNL     1       1.763   8.326  19.333  0.00  0.00    +0.000 A 
ATOM     20  C   UNL     1       1.787   7.400  20.373  0.00  0.00    +0.000 A 
ATOM     21  C   UNL     1       2.297   6.115  20.155  0.00  0.00    +0.000 A 
BRANCH  19  22
ATOM     22  O   UNL     1       1.309   9.613  19.430  0.00  0.00    +0.000 OA
ATOM     23  C   UNL     1       1.595  10.453  18.316  0.00  0.00    +0.000 C 
ENDBRANCH  19  22
ENDBRANCH  15  16
ENDBRANCH   3  15
TORSDOF 8
ENDMDL
MODEL 3
REMARK VINA RESULT:      -6.8      1.187      1.289
REMARK  Name = 
REMARK  10 active torsions:
REMARK  status: ('A' for Active; 'I' for Inactive)
REMARK    1  A    between atoms: C_1  and  C_2
REMARK    2  A    between atoms: C_2  and  C_3
REMARK    3  A    between atoms: C_3  and  N_4
REMARK    4  A    between atoms: C_8  and  S_9
REMARK    5  A    between atoms: S_9  and  C_10
REMARK    6  A    between atoms: C_10  and  C_11
REMARK    7  A    between atoms: N_13  and  C_14
REMARK    8  A    between atoms: C_14  and  C_15
REMARK    9  A    between atoms: C_18  and  O_19
REMARK   10  A    between atoms: O_19  and  C_20
REMARK                            x       y       z     vdW  Elec       q    Type
REMARK                         _______ _______ _______ _____ _____    ______ ____
ROOT
ATOM      1  C   UNL     1       4.269   4.964  17.581  0.00  0.00    +0.000 C 
ATOM      2  O   UNL     1       3.403   4.129  17.317  0.00  0.00    +0.000 OA
ATOM      3  N   UNL     1       4.154   5.858  18.624  0.00  0.00    +0.000 N 
ATOM      4  H   UNL     1       4.883   6.538  18.790  0.00  0.00    +0.000 HD
ENDROOT
BRANCH   1   5
ATOM      5  C   UNL     1       5.557   5.087  16.780  0.00  0.00    +0.000 C 
BRANCH   5   6
ATOM      6  S   UNL     1       5.704   3.727  15.578  0.00  0.00    +0.000 S 
BRANCH   6  11
ATOM      7  N   UNL     1       6.716   4.148  13.059  0.00  0.00    +0.000 N 
ATOM      8  N   UNL     1       7.610   4.936  12.425  0.00  0.00    +0.000 NA
ATOM      9  N   UNL     1       8.159   5.680  13.375  0.00  0.00    +0.000 NA
ATOM     10  N   UNL     1       7.614   5.396  14.601  0.00  0.00    +0.000 NA
ATOM     11  C   UNL     1       6.718   4.458  14.389  0.00  0.00    +0.000 A 
BRANCH   7  12
ATOM     12  C   UNL     1       5.908   3.224  12.296  0.00  0.00    +0.000 C 
BRANCH  12  14
ATOM     13  C   UNL     1       3.775   2.855  10.994  0.00  0.00    +0.000 C 
ATOM     14  C   UNL     1       4.613   3.853  11.777  0.00  0.00    +0.000 C 
ENDBRANCH  12  14
ENDBRANCH   7  12
ENDBRANCH   6  11
ENDBRANCH   5   6
ENDBRANCH   1   5
BRANCH   3  15
ATOM     15  C   UNL     1       2.977   5.919  19.459  0.00  0.00    +0.000 C 
BRANCH  15  16
ATOM     16  C   UNL     1       2.278   7.248  19.346  0.00  0.00    +0.000 A 
ATOM     17  C   UNL     1       1.660   7.837  20.457  0.00  0.00    +0.000 A 
ATOM     18  C   UNL     1       1.016   9.072  20.335  0.00  0.00    +0.000 A 
ATOM     19  C   UNL     1       0.988   9.741  19.110  0.00  0.00    +0.000 A 
ATOM     20  C   UNL     1       1.577   9.151  17.994  0.00  0.00    +0.000 A 
ATOM     21  C   UNL     1       2.214   7.910  18.112  0.00  0.00    +0.000 A 
BRANCH  19  22
ATOM     22  O   UNL     1       0.322  10.937  19.114  0.00  0.00    +0.000 OA
ATOM     23  C   UNL     1      -0.833  11.000  18.283  0.00  0.00    +0.000 C 
ENDBRANCH  19  22
ENDBRANCH  15  16
ENDBRANCH   3  15
TORSDOF 8
ENDMDL
MODEL 4
REMARK VINA RESULT:      -6.8      3.522      7.346
REMARK  Name = 
REMARK  10 active torsions:
REMARK  status: ('A' for Active; 'I' for Inactive)
REMARK    1  A    between atoms: C_1  and  C_2
REMARK    2  A    between atoms: C_2  and  C_3
REMARK    3  A    between atoms: C_3  and  N_4
REMARK    4  A    between atoms: C_8  and  S_9
REMARK    5  A    between atoms: S_9  and  C_10
REMARK    6  A    between atoms: C_10  and  C_11
REMARK    7  A    between atoms: N_13  and  C_14
REMARK    8  A    between atoms: C_14  and  C_15
REMARK    9  A    between atoms: C_18  and  O_19
REMARK   10  A    between atoms: O_19  and  C_20
REMARK                            x       y       z     vdW  Elec       q    Type
REMARK                         _______ _______ _______ _____ _____    ______ ____
ROOT
ATOM      1  C   UNL     1       5.683   5.249  18.489  0.00  0.00    +0.000 C 
ATOM      2  O   UNL     1       6.425   4.323  18.819  0.00  0.00    +0.000 OA
ATOM      3  N   UNL     1       5.896   6.014  17.362  0.00  0.00    +0.000 N 
ATOM      4  H   UNL     1       5.270   6.776  17.142  0.00  0.00    +0.000 HD
ENDROOT
BRANCH   1   5
ATOM      5  C   UNL     1       4.451   5.637  19.294  0.00  0.00    +0.000 C 
BRANCH   5   6
ATOM      6  S   UNL     1       3.014   5.881  18.203  0.00  0.00    +0.000 S 
BRANCH   6  11
ATOM      7  N   UNL     1       1.630   3.619  18.923  0.00  0.00    +0.000 N 
ATOM      8  N   UNL     1       1.375   2.375  18.464  0.00  0.00    +0.000 NA
ATOM      9  N   UNL     1       2.070   2.267  17.340  0.00  0.00    +0.000 NA
ATOM     10  N   UNL     1       2.745   3.428  17.062  0.00  0.00    +0.000 NA
ATOM     11  C   UNL     1       2.455   4.256  18.041  0.00  0.00    +0.000 A 
BRANCH   7  12
ATOM     12  C   UNL     1       0.992   4.079  20.136  0.00  0.00    +0.000 C 
BRANCH  12  14
ATOM     13  C   UNL     1       1.835   2.519  21.934  0.00  0.00    +0.000 C 
ATOM     14  C   UNL     1       1.883   3.931  21.370  0.00  0.00    +0.000 C 
ENDBRANCH  12  14
ENDBRANCH   7  12
ENDBRANCH   6  11
ENDBRANCH   5   6
ENDBRANCH   1   5
BRANCH   3  15
ATOM     15  C   UNL     1       7.044   5.820  16.507  0.00  0.00    +0.000 C 
BRANCH  15  16
ATOM     16  C   UNL     1       6.687   5.074  15.248  0.00  0.00    +0.000 A 
ATOM     17  C   UNL     1       5.541   4.270  15.184  0.00  0.00    +0.000 A 
ATOM     18  C   UNL     1       5.225   3.584  14.007  0.00  0.00    +0.000 A 
ATOM     19  C   UNL     1       6.036   3.699  12.877  0.00  0.00    +0.000 A 
ATOM     20  C   UNL     1       7.192   4.475  12.940  0.00  0.00    +0.000 A 
ATOM     21  C   UNL     1       7.516   5.154  14.121  0.00  0.00    +0.000 A 
BRANCH  19  22
ATOM     22  O   UNL     1       5.628   2.976  11.790  0.00  0.00    +0.000 OA
ATOM     23  C   UNL     1       4.273   3.173  11.395  0.00  0.00    +0.000 C 
ENDBRANCH  19  22
ENDBRANCH  15  16
ENDBRANCH   3  15
TORSDOF 8
ENDMDL
MODEL 5
REMARK VINA RESULT:      -6.7      2.145      3.102
REMARK  Name = 
REMARK  10 active torsions:
REMARK  status: ('A' for Active; 'I' for Inactive)
REMARK    1  A    between atoms: C_1  and  C_2
REMARK    2  A    between atoms: C_2  and  C_3
REMARK    3  A    between atoms: C_3  and  N_4
REMARK    4  A    between atoms: C_8  and  S_9
REMARK    5  A    between atoms: S_9  and  C_10
REMARK    6  A    between atoms: C_10  and  C_11
REMARK    7  A    between atoms: N_13  and  C_14
REMARK    8  A    between atoms: C_14  and  C_15
REMARK    9  A    between atoms: C_18  and  O_19
REMARK   10  A    between atoms: O_19  and  C_20
REMARK                            x       y       z     vdW  Elec       q    Type
REMARK                         _______ _______ _______ _____ _____    ______ ____
ROOT
ATOM      1  C   UNL     1       3.050   3.826  19.747  0.00  0.00    +0.000 C 
ATOM      2  O   UNL     1       2.844   3.206  20.791  0.00  0.00    +0.000 OA
ATOM      3  N   UNL     1       2.729   5.157  19.591  0.00  0.00    +0.000 N 
ATOM      4  H   UNL     1       2.899   5.618  18.708  0.00  0.00    +0.000 HD
ENDROOT
BRANCH   1   5
ATOM      5  C   UNL     1       3.685   3.179  18.525  0.00  0.00    +0.000 C 
BRANCH   5   6
ATOM      6  S   UNL     1       4.058   4.427  17.252  0.00  0.00    +0.000 S 
BRANCH   6  11
ATOM      7  N   UNL     1       6.616   4.665  16.279  0.00  0.00    +0.000 N 
ATOM      8  N   UNL     1       7.891   4.675  16.722  0.00  0.00    +0.000 NA
ATOM      9  N   UNL     1       7.812   4.457  18.027  0.00  0.00    +0.000 NA
ATOM     10  N   UNL     1       6.506   4.331  18.428  0.00  0.00    +0.000 NA
ATOM     11  C   UNL     1       5.780   4.473  17.342  0.00  0.00    +0.000 A 
BRANCH   7  12
ATOM     12  C   UNL     1       6.341   4.910  14.881  0.00  0.00    +0.000 C 
BRANCH  12  14
ATOM     13  C   UNL     1       6.393   3.706  12.661  0.00  0.00    +0.000 C 
ATOM     14  C   UNL     1       5.963   3.639  14.118  0.00  0.00    +0.000 C 
ENDBRANCH  12  14
ENDBRANCH   7  12
ENDBRANCH   6  11
ENDBRANCH   5   6
ENDBRANCH   1   5
BRANCH   3  15
ATOM     15  C   UNL     1       2.073   5.916  20.630  0.00  0.00    +0.000 C 
BRANCH  15  16
ATOM     16  C   UNL     1       1.746   7.317  20.180  0.00  0.00    +0.000 A 
ATOM     17  C   UNL     1       2.108   7.770  18.905  0.00  0.00    +0.000 A 
ATOM     18  C   UNL     1       1.798   9.072  18.504  0.00  0.00    +0.000 A 
ATOM     19  C   UNL     1       1.113   9.936  19.361  0.00  0.00    +0.000 A 
ATOM     20  C   UNL     1       0.772   9.502  20.641  0.00  0.00    +0.000 A 
ATOM     21  C   UNL     1       1.092   8.202  21.048  0.00  0.00    +0.000 A 
BRANCH  19  22
ATOM     22  O   UNL     1       0.872  11.186  18.859  0.00  0.00    +0.000 OA
ATOM     23  C   UNL     1       2.026  11.922  18.464  0.00  0.00    +0.000 C 
ENDBRANCH  19  22
ENDBRANCH  15  16
ENDBRANCH   3  15
TORSDOF 8
ENDMDL
MODEL 6
REMARK VINA RESULT:      -6.6      1.645      2.035
REMARK  Name = 
REMARK  10 active torsions:
REMARK  status: ('A' for Active; 'I' for Inactive)
REMARK    1  A    between atoms: C_1  and  C_2
REMARK    2  A    between atoms: C_2  and  C_3
REMARK    3  A    between atoms: C_3  and  N_4
REMARK    4  A    between atoms: C_8  and  S_9
REMARK    5  A    between atoms: S_9  and  C_10
REMARK    6  A    between atoms: C_10  and  C_11
REMARK    7  A    between atoms: N_13  and  C_14
REMARK    8  A    between atoms: C_14  and  C_15
REMARK    9  A    between atoms: C_18  and  O_19
REMARK   10  A    between atoms: O_19  and  C_20
REMARK                            x       y       z     vdW  Elec       q    Type
REMARK                         _______ _______ _______ _____ _____    ______ ____
ROOT
ATOM      1  C   UNL     1       5.496   4.899  19.333  0.00  0.00    +0.000 C 
ATOM      2  O   UNL     1       5.165   3.727  19.516  0.00  0.00    +0.000 OA
ATOM      3  N   UNL     1       4.588   5.935  19.293  0.00  0.00    +0.000 N 
ATOM      4  H   UNL     1       4.905   6.879  19.120  0.00  0.00    +0.000 HD
ENDROOT
BRANCH   1   5
ATOM      5  C   UNL     1       6.945   5.318  19.135  0.00  0.00    +0.000 C 
BRANCH   5   6
ATOM      6  S   UNL     1       7.579   4.725  17.534  0.00  0.00    +0.000 S 
BRANCH   6  11
ATOM      7  N   UNL     1       6.110   5.111  15.244  0.00  0.00    +0.000 N 
ATOM      8  N   UNL     1       5.308   6.036  14.677  0.00  0.00    +0.000 NA
ATOM      9  N   UNL     1       5.305   7.062  15.518  0.00  0.00    +0.000 NA
ATOM     10  N   UNL     1       6.074   6.796  16.623  0.00  0.00    +0.000 NA
ATOM     11  C   UNL     1       6.555   5.586  16.445  0.00  0.00    +0.000 A 
BRANCH   7  12
ATOM     12  C   UNL     1       6.308   3.837  14.591  0.00  0.00    +0.000 C 
BRANCH  12  14
ATOM     13  C   UNL     1       5.494   3.275  12.267  0.00  0.00    +0.000 C 
ATOM     14  C   UNL     1       6.567   3.972  13.089  0.00  0.00    +0.000 C 
ENDBRANCH  12  14
ENDBRANCH   7  12
ENDBRANCH   6  11
ENDBRANCH   5   6
ENDBRANCH   1   5
BRANCH   3  15
ATOM     15  C   UNL     1       3.165   5.716  19.411  0.00  0.00    +0.000 C 
BRANCH  15  16
ATOM     16  C   UNL     1       2.404   7.012  19.507  0.00  0.00    +0.000 A 
ATOM     17  C   UNL     1       1.735   7.374  20.684  0.00  0.00    +0.000 A 
ATOM     18  C   UNL     1       1.033   8.580  20.755  0.00  0.00    +0.000 A 
ATOM     19  C   UNL     1       0.998   9.448  19.662  0.00  0.00    +0.000 A 
ATOM     20  C   UNL     1       1.638   9.085  18.478  0.00  0.00    +0.000 A 
ATOM     21  C   UNL     1       2.332   7.872  18.402  0.00  0.00    +0.000 A 
BRANCH  19  22
ATOM     22  O   UNL     1       0.274  10.594  19.850  0.00  0.00    +0.000 OA
ATOM     23  C   UNL     1       0.568  11.661  18.954  0.00  0.00    +0.000 C 
ENDBRANCH  19  22
ENDBRANCH  15  16
ENDBRANCH   3  15
TORSDOF 8
ENDMDL
MODEL 7
REMARK VINA RESULT:      -6.6      3.188      4.492
REMARK  Name = 
REMARK  10 active torsions:
REMARK  status: ('A' for Active; 'I' for Inactive)
REMARK    1  A    between atoms: C_1  and  C_2
REMARK    2  A    between atoms: C_2  and  C_3
REMARK    3  A    between atoms: C_3  and  N_4
REMARK    4  A    between atoms: C_8  and  S_9
REMARK    5  A    between atoms: S_9  and  C_10
REMARK    6  A    between atoms: C_10  and  C_11
REMARK    7  A    between atoms: N_13  and  C_14
REMARK    8  A    between atoms: C_14  and  C_15
REMARK    9  A    between atoms: C_18  and  O_19
REMARK   10  A    between atoms: O_19  and  C_20
REMARK                            x       y       z     vdW  Elec       q    Type
REMARK                         _______ _______ _______ _____ _____    ______ ____
ROOT
ATOM      1  C   UNL     1       2.788   5.261  18.234  0.00  0.00    +0.000 C 
ATOM      2  O   UNL     1       1.700   4.931  17.759  0.00  0.00    +0.000 OA
ATOM      3  N   UNL     1       3.159   6.576  18.412  0.00  0.00    +0.000 N 
ATOM      4  H   UNL     1       4.071   6.798  18.789  0.00  0.00    +0.000 HD
ENDROOT
BRANCH   1   5
ATOM      5  C   UNL     1       3.828   4.243  18.677  0.00  0.00    +0.000 C 
BRANCH   5   6
ATOM      6  S   UNL     1       5.375   5.068  19.169  0.00  0.00    +0.000 S 
BRANCH   6  11
ATOM      7  N   UNL     1       7.183   6.055  17.351  0.00  0.00    +0.000 N 
ATOM      8  N   UNL     1       7.594   5.839  16.084  0.00  0.00    +0.000 NA
ATOM      9  N   UNL     1       6.819   4.867  15.623  0.00  0.00    +0.000 NA
ATOM     10  N   UNL     1       5.934   4.445  16.583  0.00  0.00    +0.000 NA
ATOM     11  C   UNL     1       6.178   5.179  17.646  0.00  0.00    +0.000 A 
BRANCH   7  12
ATOM     12  C   UNL     1       7.853   7.047  18.163  0.00  0.00    +0.000 C 
BRANCH  12  14
ATOM     13  C   UNL     1       8.602   9.450  18.365  0.00  0.00    +0.000 C 
ATOM     14  C   UNL     1       7.772   8.455  17.570  0.00  0.00    +0.000 C 
ENDBRANCH  12  14
ENDBRANCH   7  12
ENDBRANCH   6  11
ENDBRANCH   5   6
ENDBRANCH   1   5
BRANCH   3  15
ATOM     15  C   UNL     1       2.317   7.675  18.002  0.00  0.00    +0.000 C 
BRANCH  15  16
ATOM     16  C   UNL     1       1.741   8.412  19.183  0.00  0.00    +0.000 A 
ATOM     17  C   UNL     1       1.778   7.860  20.469  0.00  0.00    +0.000 A 
ATOM     18  C   UNL     1       1.239   8.557  21.553  0.00  0.00    +0.000 A 
ATOM     19  C   UNL     1       0.667   9.818  21.374  0.00  0.00    +0.000 A 
ATOM     20  C   UNL     1       0.602  10.365  20.094  0.00  0.00    +0.000 A 
ATOM     21  C   UNL     1       1.132   9.663  19.005  0.00  0.00    +0.000 A 
BRANCH  19  22
ATOM     22  O   UNL     1       0.167  10.398  22.509  0.00  0.00    +0.000 OA
ATOM     23  C   UNL     1      -0.578  11.595  22.309  0.00  0.00    +0.000 C 
ENDBRANCH  19  22
ENDBRANCH  15  16
ENDBRANCH   3  15
TORSDOF 8
ENDMDL
MODEL 8
REMARK VINA RESULT:      -6.5      2.843      3.929
REMARK  Name = 
REMARK  10 active torsions:
REMARK  status: ('A' for Active; 'I' for Inactive)
REMARK    1  A    between atoms: C_1  and  C_2
REMARK    2  A    between atoms: C_2  and  C_3
REMARK    3  A    between atoms: C_3  and  N_4
REMARK    4  A    between atoms: C_8  and  S_9
REMARK    5  A    between atoms: S_9  and  C_10
REMARK    6  A    between atoms: C_10  and  C_11
REMARK    7  A    between atoms: N_13  and  C_14
REMARK    8  A    between atoms: C_14  and  C_15
REMARK    9  A    between atoms: C_18  and  O_19
REMARK   10  A    between atoms: O_19  and  C_20
REMARK                            x       y       z     vdW  Elec       q    Type
REMARK                         _______ _______ _______ _____ _____    ______ ____
ROOT
ATOM      1  C   UNL     1       1.795   4.441  19.062  0.00  0.00    +0.000 C 
ATOM      2  O   UNL     1       1.249   4.039  20.090  0.00  0.00    +0.000 OA
ATOM      3  N   UNL     1       2.421   5.665  18.976  0.00  0.00    +0.000 N 
ATOM      4  H   UNL     1       2.838   5.960  18.104  0.00  0.00    +0.000 HD
ENDROOT
BRANCH   1   5
ATOM      5  C   UNL     1       1.833   3.618  17.782  0.00  0.00    +0.000 C 
BRANCH   5   6
ATOM      6  S   UNL     1       3.155   2.368  17.855  0.00  0.00    +0.000 S 
BRANCH   6  11
ATOM      7  N   UNL     1       5.226   4.097  17.333  0.00  0.00    +0.000 N 
ATOM      8  N   UNL     1       6.195   4.773  17.985  0.00  0.00    +0.000 NA
ATOM      9  N   UNL     1       6.080   4.413  19.256  0.00  0.00    +0.000 NA
ATOM     10  N   UNL     1       5.038   3.537  19.428  0.00  0.00    +0.000 NA
ATOM     11  C   UNL     1       4.515   3.361  18.236  0.00  0.00    +0.000 A 
BRANCH   7  12
ATOM     12  C   UNL     1       5.051   4.290  15.910  0.00  0.00    +0.000 C 
BRANCH  12  14
ATOM     13  C   UNL     1       5.977   3.879  13.597  0.00  0.00    +0.000 C 
ATOM     14  C   UNL     1       6.240   3.783  15.091  0.00  0.00    +0.000 C 
ENDBRANCH  12  14
ENDBRANCH   7  12
ENDBRANCH   6  11
ENDBRANCH   5   6
ENDBRANCH   1   5
BRANCH   3  15
ATOM     15  C   UNL     1       2.438   6.599  20.078  0.00  0.00    +0.000 C 
BRANCH  15  16
ATOM     16  C   UNL     1       1.798   7.912  19.711  0.00  0.00    +0.000 A 
ATOM     17  C   UNL     1       1.910   8.435  18.416  0.00  0.00    +0.000 A 
ATOM     18  C   UNL     1       1.310   9.655  18.093  0.00  0.00    +0.000 A 
ATOM     19  C   UNL     1       0.580  10.364  19.049  0.00  0.00    +0.000 A 
ATOM     20  C   UNL     1       0.485   9.865  20.346  0.00  0.00    +0.000 A 
ATOM     21  C   UNL     1       1.094   8.648  20.674  0.00  0.00    +0.000 A 
BRANCH  19  22
ATOM     22  O   UNL     1       0.046  11.547  18.615  0.00  0.00    +0.000 OA
ATOM     23  C   UNL     1      -1.321  11.496  18.220  0.00  0.00    +0.000 C 
ENDBRANCH  19  22
ENDBRANCH  15  16
ENDBRANCH   3  15
TORSDOF 8
ENDMDL
MODEL 9
REMARK VINA RESULT:      -6.5      2.170      3.174
REMARK  Name = 
REMARK  10 active torsions:
REMARK  status: ('A' for Active; 'I' for Inactive)
REMARK    1  A    between atoms: C_1  and  C_2
REMARK    2  A    between atoms: C_2  and  C_3
REMARK    3  A    between atoms: C_3  and  N_4
REMARK    4  A    between atoms: C_8  and  S_9
REMARK    5  A    between atoms: S_9  and  C_10
REMARK    6  A    between atoms: C_10  and  C_11
REMARK    7  A    between atoms: N_13  and  C_14
REMARK    8  A    between atoms: C_14  and  C_15
REMARK    9  A    between atoms: C_18  and  O_19
REMARK   10  A    between atoms: O_19  and  C_20
REMARK                            x       y       z     vdW  Elec       q    Type
REMARK                         _______ _______ _______ _____ _____    ______ ____
ROOT
ATOM      1  C   UNL     1       2.823   5.002  20.200  0.00  0.00    +0.000 C 
ATOM      2  O   UNL     1       1.974   4.286  20.733  0.00  0.00    +0.000 OA
ATOM      3  N   UNL     1       2.703   6.372  20.119  0.00  0.00    +0.000 N 
ATOM      4  H   UNL     1       3.417   6.916  19.655  0.00  0.00    +0.000 HD
ENDROOT
BRANCH   1   5
ATOM      5  C   UNL     1       4.095   4.439  19.582  0.00  0.00    +0.000 C 
BRANCH   5   6
ATOM      6  S   UNL     1       4.036   4.551  17.765  0.00  0.00    +0.000 S 
BRANCH   6  11
ATOM      7  N   UNL     1       6.236   4.369  16.129  0.00  0.00    +0.000 N 
ATOM      8  N   UNL     1       7.583   4.400  16.205  0.00  0.00    +0.000 NA
ATOM      9  N   UNL     1       7.860   4.513  17.496  0.00  0.00    +0.000 NA
ATOM     10  N   UNL     1       6.711   4.578  18.244  0.00  0.00    +0.000 NA
ATOM     11  C   UNL     1       5.719   4.500  17.386  0.00  0.00    +0.000 A 
BRANCH   7  12
ATOM     12  C   UNL     1       5.593   4.283  14.837  0.00  0.00    +0.000 C 
BRANCH  12  14
ATOM     13  C   UNL     1       6.101   3.446  12.509  0.00  0.00    +0.000 C 
ATOM     14  C   UNL     1       6.588   4.292  13.675  0.00  0.00    +0.000 C 
ENDBRANCH  12  14
ENDBRANCH   7  12
ENDBRANCH   6  11
ENDBRANCH   5   6
ENDBRANCH   1   5
BRANCH   3  15
ATOM     15  C   UNL     1       1.537   7.072  20.608  0.00  0.00    +0.000 C 
BRANCH  15  16
ATOM     16  C   UNL     1       1.417   8.448  20.008  0.00  0.00    +0.000 A 
ATOM     17  C   UNL     1       0.807   9.494  20.712  0.00  0.00    +0.000 A 
ATOM     18  C   UNL     1       0.703  10.765  20.140  0.00  0.00    +0.000 A 
ATOM     19  C   UNL     1       1.215  11.015  18.866  0.00  0.00    +0.000 A 
ATOM     20  C   UNL     1       1.800   9.974  18.147  0.00  0.00    +0.000 A 
ATOM     21  C   UNL     1       1.896   8.699  18.714  0.00  0.00    +0.000 A 
BRANCH  19  22
ATOM     22  O   UNL     1       1.048  12.295  18.411  0.00  0.00    +0.000 OA
ATOM     23  C   UNL     1       1.020  13.305  19.414  0.00  0.00    +0.000 C 
ENDBRANCH  19  22
ENDBRANCH  15  16
ENDBRANCH   3  15
TORSDOF 8
ENDMDL
