MODEL 1
REMARK VINA RESULT:      -5.5      0.000      0.000
REMARK  Name = 
REMARK  5 active torsions:
REMARK  status: ('A' for Active; 'I' for Inactive)
REMARK    1  A    between atoms: O_1  and  C_2
REMARK    2  A    between atoms: C_2  and  C_3
REMARK    3  A    between atoms: C_4  and  O_5
REMARK    4  A    between atoms: C_6  and  O_7
REMARK    5  A    between atoms: C_8  and  O_9
REMARK                            x       y       z     vdW  Elec       q    Type
REMARK                         _______ _______ _______ _____ _____    ______ ____
ROOT
ATOM      1  C   UNL     1       1.724   3.725  18.850  0.00  0.00    +0.000 C 
ATOM      2  C   UNL     1       2.487   2.405  19.075  0.00  0.00    +0.000 C 
ATOM      3  C   UNL     1       3.547   2.189  17.980  0.00  0.00    +0.000 C 
ATOM      4  C   UNL     1       4.584   3.324  18.003  0.00  0.00    +0.000 C 
ATOM      5  C   UNL     1       3.922   4.662  18.085  0.00  0.00    +0.000 A 
ATOM      6  N   UNL     1       4.448   5.824  17.746  0.00  0.00    +0.000 NA
ATOM      7  C   UNL     1       3.476   6.754  17.990  0.00  0.00    +0.000 A 
ATOM      8  C   UNL     1       2.321   6.149  18.432  0.00  0.00    +0.000 A 
ATOM      9  N   UNL     1       2.624   4.810  18.515  0.00  0.00    +0.000 N 
ENDROOT
BRANCH   2  10
ATOM     10  O   UNL     1       1.537   1.323  19.077  0.00  0.00    +0.000 OA
ATOM     11  H   UNL     1       0.895   1.485  19.793  0.00  0.00    +0.000 HD
ENDBRANCH   2  10
BRANCH   3  12
ATOM     12  O   UNL     1       4.144   0.893  18.152  0.00  0.00    +0.000 OA
ATOM     13  H   UNL     1       4.539   0.618  17.306  0.00  0.00    +0.000 HD
ENDBRANCH   3  12
BRANCH   4  14
ATOM     14  O   UNL     1       5.345   3.282  16.791  0.00  0.00    +0.000 OA
ATOM     15  H   UNL     1       4.710   3.386  16.055  0.00  0.00    +0.000 HD
ENDBRANCH   4  14
BRANCH   1  16
ATOM     16  C   UNL     1       0.803   4.024  20.043  0.00  0.00    +0.000 C 
BRANCH  16  17
ATOM     17  O   UNL     1       0.987   3.068  21.083  0.00  0.00    +0.000 OA
ATOM     18  H   UNL     1       1.816   3.300  21.540  0.00  0.00    +0.000 HD
ENDBRANCH  16  17
ENDBRANCH   1  16
TORSDOF 5
ENDMDL
MODEL 2
REMARK VINA RESULT:      -5.5      2.304      3.841
REMARK  Name = 
REMARK  5 active torsions:
REMARK  status: ('A' for Active; 'I' for Inactive)
REMARK    1  A    between atoms: O_1  and  C_2
REMARK    2  A    between atoms: C_2  and  C_3
REMARK    3  A    between atoms: C_4  and  O_5
REMARK    4  A    between atoms: C_6  and  O_7
REMARK    5  A    between atoms: C_8  and  O_9
REMARK                            x       y       z     vdW  Elec       q    Type
REMARK                         _______ _______ _______ _____ _____    ______ ____
ROOT
ATOM      1  C   UNL     1       3.272   5.719  19.113  0.00  0.00    +0.000 C 
ATOM      2  C   UNL     1       4.443   5.259  18.222  0.00  0.00    +0.000 C 
ATOM      3  C   UNL     1       5.295   4.196  18.940  0.00  0.00    +0.000 C 
ATOM      4  C   UNL     1       4.447   2.952  19.258  0.00  0.00    +0.000 C 
ATOM      5  C   UNL     1       3.136   3.331  19.868  0.00  0.00    +0.000 A 
ATOM      6  N   UNL     1       2.353   2.557  20.596  0.00  0.00    +0.000 NA
ATOM      7  C   UNL     1       1.278   3.333  20.932  0.00  0.00    +0.000 A 
ATOM      8  C   UNL     1       1.430   4.613  20.451  0.00  0.00    +0.000 A 
ATOM      9  N   UNL     1       2.612   4.597  19.747  0.00  0.00    +0.000 N 
ENDROOT
BRANCH   2  10
ATOM     10  O   UNL     1       5.246   6.407  17.892  0.00  0.00    +0.000 OA
ATOM     11  H   UNL     1       4.702   7.206  18.029  0.00  0.00    +0.000 HD
ENDBRANCH   2  10
BRANCH   3  12
ATOM     12  O   UNL     1       6.443   3.888  18.131  0.00  0.00    +0.000 OA
ATOM     13  H   UNL     1       6.895   3.117  18.516  0.00  0.00    +0.000 HD
ENDBRANCH   3  12
BRANCH   4  14
ATOM     14  O   UNL     1       5.153   2.138  20.199  0.00  0.00    +0.000 OA
ATOM     15  H   UNL     1       4.493   1.811  20.842  0.00  0.00    +0.000 HD
ENDBRANCH   4  14
BRANCH   1  16
ATOM     16  C   UNL     1       2.325   6.636  18.323  0.00  0.00    +0.000 C 
BRANCH  16  17
ATOM     17  O   UNL     1       2.748   7.994  18.398  0.00  0.00    +0.000 OA
ATOM     18  H   UNL     1       1.953   8.547  18.292  0.00  0.00    +0.000 HD
ENDBRANCH  16  17
ENDBRANCH   1  16
TORSDOF 5
ENDMDL
MODEL 3
REMARK VINA RESULT:      -5.4      1.876      3.776
REMARK  Name = 
REMARK  5 active torsions:
REMARK  status: ('A' for Active; 'I' for Inactive)
REMARK    1  A    between atoms: O_1  and  C_2
REMARK    2  A    between atoms: C_2  and  C_3
REMARK    3  A    between atoms: C_4  and  O_5
REMARK    4  A    between atoms: C_6  and  O_7
REMARK    5  A    between atoms: C_8  and  O_9
REMARK                            x       y       z     vdW  Elec       q    Type
REMARK                         _______ _______ _______ _____ _____    ______ ____
ROOT
ATOM      1  C   UNL     1       4.508   5.338  18.914  0.00  0.00    +0.000 C 
ATOM      2  C   UNL     1       4.873   3.860  18.670  0.00  0.00    +0.000 C 
ATOM      3  C   UNL     1       4.609   3.014  19.930  0.00  0.00    +0.000 C 
ATOM      4  C   UNL     1       3.118   3.060  20.307  0.00  0.00    +0.000 C 
ATOM      5  C   UNL     1       2.595   4.461  20.279  0.00  0.00    +0.000 A 
ATOM      6  N   UNL     1       1.519   4.912  20.896  0.00  0.00    +0.000 NA
ATOM      7  C   UNL     1       1.445   6.241  20.582  0.00  0.00    +0.000 A 
ATOM      8  C   UNL     1       2.519   6.621  19.810  0.00  0.00    +0.000 A 
ATOM      9  N   UNL     1       3.238   5.468  19.598  0.00  0.00    +0.000 N 
ENDROOT
BRANCH   2  10
ATOM     10  O   UNL     1       6.261   3.787  18.297  0.00  0.00    +0.000 OA
ATOM     11  H   UNL     1       6.314   3.804  17.323  0.00  0.00    +0.000 HD
ENDBRANCH   2  10
BRANCH   3  12
ATOM     12  O   UNL     1       5.079   1.675  19.704  0.00  0.00    +0.000 OA
ATOM     13  H   UNL     1       5.544   1.370  20.503  0.00  0.00    +0.000 HD
ENDBRANCH   3  12
BRANCH   4  14
ATOM     14  O   UNL     1       2.961   2.557  21.637  0.00  0.00    +0.000 OA
ATOM     15  H   UNL     1       3.203   3.283  22.245  0.00  0.00    +0.000 HD
ENDBRANCH   4  14
BRANCH   1  16
ATOM     16  C   UNL     1       4.597   6.136  17.604  0.00  0.00    +0.000 C 
BRANCH  16  17
ATOM     17  O   UNL     1       4.670   5.265  16.479  0.00  0.00    +0.000 OA
ATOM     18  H   UNL     1       4.463   5.799  15.691  0.00  0.00    +0.000 HD
ENDBRANCH  16  17
ENDBRANCH   1  16
TORSDOF 5
ENDMDL
MODEL 4
REMARK VINA RESULT:      -5.3      2.082      4.269
REMARK  Name = 
REMARK  5 active torsions:
REMARK  status: ('A' for Active; 'I' for Inactive)
REMARK    1  A    between atoms: O_1  and  C_2
REMARK    2  A    between atoms: C_2  and  C_3
REMARK    3  A    between atoms: C_4  and  O_5
REMARK    4  A    between atoms: C_6  and  O_7
REMARK    5  A    between atoms: C_8  and  O_9
REMARK                            x       y       z     vdW  Elec       q    Type
REMARK                         _______ _______ _______ _____ _____    ______ ____
ROOT
ATOM      1  C   UNL     1       5.522   5.892  17.704  0.00  0.00    +0.000 C 
ATOM      2  C   UNL     1       5.648   4.383  17.990  0.00  0.00    +0.000 C 
ATOM      3  C   UNL     1       4.941   4.012  19.307  0.00  0.00    +0.000 C 
ATOM      4  C   UNL     1       3.439   4.336  19.221  0.00  0.00    +0.000 C 
ATOM      5  C   UNL     1       3.211   5.704  18.662  0.00  0.00    +0.000 A 
ATOM      6  N   UNL     1       2.125   6.441  18.801  0.00  0.00    +0.000 NA
ATOM      7  C   UNL     1       2.379   7.603  18.125  0.00  0.00    +0.000 A 
ATOM      8  C   UNL     1       3.657   7.601  17.613  0.00  0.00    +0.000 A 
ATOM      9  N   UNL     1       4.174   6.369  17.939  0.00  0.00    +0.000 N 
ENDROOT
BRANCH   2  10
ATOM     10  O   UNL     1       7.045   4.045  18.058  0.00  0.00    +0.000 OA
ATOM     11  H   UNL     1       7.545   4.861  18.247  0.00  0.00    +0.000 HD
ENDBRANCH   2  10
BRANCH   3  12
ATOM     12  O   UNL     1       5.189   2.627  19.601  0.00  0.00    +0.000 OA
ATOM     13  H   UNL     1       4.711   2.392  20.416  0.00  0.00    +0.000 HD
ENDBRANCH   3  12
BRANCH   4  14
ATOM     14  O   UNL     1       2.881   4.299  20.538  0.00  0.00    +0.000 OA
ATOM     15  H   UNL     1       3.594   4.008  21.140  0.00  0.00    +0.000 HD
ENDBRANCH   4  14
BRANCH   1  16
ATOM     16  C   UNL     1       6.066   6.220  16.305  0.00  0.00    +0.000 C 
BRANCH  16  17
ATOM     17  O   UNL     1       7.483   6.355  16.325  0.00  0.00    +0.000 OA
ATOM     18  H   UNL     1       7.852   5.464  16.468  0.00  0.00    +0.000 HD
ENDBRANCH  16  17
ENDBRANCH   1  16
TORSDOF 5
ENDMDL
MODEL 5
REMARK VINA RESULT:      -5.3      1.313      1.328
REMARK  Name = 
REMARK  5 active torsions:
REMARK  status: ('A' for Active; 'I' for Inactive)
REMARK    1  A    between atoms: O_1  and  C_2
REMARK    2  A    between atoms: C_2  and  C_3
REMARK    3  A    between atoms: C_4  and  O_5
REMARK    4  A    between atoms: C_6  and  O_7
REMARK    5  A    between atoms: C_8  and  O_9
REMARK                            x       y       z     vdW  Elec       q    Type
REMARK                         _______ _______ _______ _____ _____    ______ ____
ROOT
ATOM      1  C   UNL     1       2.321   4.158  19.300  0.00  0.00    +0.000 C 
ATOM      2  C   UNL     1       3.217   3.192  20.100  0.00  0.00    +0.000 C 
ATOM      3  C   UNL     1       4.519   2.889  19.335  0.00  0.00    +0.000 C 
ATOM      4  C   UNL     1       5.325   4.180  19.112  0.00  0.00    +0.000 C 
ATOM      5  C   UNL     1       4.452   5.284  18.605  0.00  0.00    +0.000 A 
ATOM      6  N   UNL     1       4.846   6.365  17.959  0.00  0.00    +0.000 NA
ATOM      7  C   UNL     1       3.705   7.074  17.699  0.00  0.00    +0.000 A 
ATOM      8  C   UNL     1       2.594   6.391  18.140  0.00  0.00    +0.000 A 
ATOM      9  N   UNL     1       3.084   5.257  18.744  0.00  0.00    +0.000 N 
ENDROOT
BRANCH   2  10
ATOM     10  O   UNL     1       2.481   1.979  20.340  0.00  0.00    +0.000 OA
ATOM     11  H   UNL     1       2.988   1.237  19.959  0.00  0.00    +0.000 HD
ENDBRANCH   2  10
BRANCH   3  12
ATOM     12  O   UNL     1       5.264   1.891  20.052  0.00  0.00    +0.000 OA
ATOM     13  H   UNL     1       5.969   2.333  20.557  0.00  0.00    +0.000 HD
ENDBRANCH   3  12
BRANCH   4  14
ATOM     14  O   UNL     1       6.337   3.932  18.132  0.00  0.00    +0.000 OA
ATOM     15  H   UNL     1       6.618   4.802  17.788  0.00  0.00    +0.000 HD
ENDBRANCH   4  14
BRANCH   1  16
ATOM     16  C   UNL     1       1.117   4.599  20.147  0.00  0.00    +0.000 C 
BRANCH  16  17
ATOM     17  O   UNL     1       0.249   3.502  20.413  0.00  0.00    +0.000 OA
ATOM     18  H   UNL     1      -0.456   3.526  19.741  0.00  0.00    +0.000 HD
ENDBRANCH  16  17
ENDBRANCH   1  16
TORSDOF 5
ENDMDL
MODEL 6
REMARK VINA RESULT:      -5.3      1.979      3.658
REMARK  Name = 
REMARK  5 active torsions:
REMARK  status: ('A' for Active; 'I' for Inactive)
REMARK    1  A    between atoms: O_1  and  C_2
REMARK    2  A    between atoms: C_2  and  C_3
REMARK    3  A    between atoms: C_4  and  O_5
REMARK    4  A    between atoms: C_6  and  O_7
REMARK    5  A    between atoms: C_8  and  O_9
REMARK                            x       y       z     vdW  Elec       q    Type
REMARK                         _______ _______ _______ _____ _____    ______ ____
ROOT
ATOM      1  C   UNL     1       3.395   5.360  19.392  0.00  0.00    +0.000 C 
ATOM      2  C   UNL     1       4.018   5.091  18.007  0.00  0.00    +0.000 C 
ATOM      3  C   UNL     1       4.574   3.658  17.924  0.00  0.00    +0.000 C 
ATOM      4  C   UNL     1       3.447   2.630  18.124  0.00  0.00    +0.000 C 
ATOM      5  C   UNL     1       2.592   2.985  19.299  0.00  0.00    +0.000 A 
ATOM      6  N   UNL     1       1.810   2.168  19.979  0.00  0.00    +0.000 NA
ATOM      7  C   UNL     1       1.237   2.936  20.955  0.00  0.00    +0.000 A 
ATOM      8  C   UNL     1       1.717   4.225  20.908  0.00  0.00    +0.000 A 
ATOM      9  N   UNL     1       2.565   4.255  19.827  0.00  0.00    +0.000 N 
ENDROOT
BRANCH   2  10
ATOM     10  O   UNL     1       5.067   6.051  17.784  0.00  0.00    +0.000 OA
ATOM     11  H   UNL     1       4.873   6.842  18.321  0.00  0.00    +0.000 HD
ENDBRANCH   2  10
BRANCH   3  12
ATOM     12  O   UNL     1       5.256   3.490  16.670  0.00  0.00    +0.000 OA
ATOM     13  H   UNL     1       4.593   3.460  15.958  0.00  0.00    +0.000 HD
ENDBRANCH   3  12
BRANCH   4  14
ATOM     14  O   UNL     1       4.028   1.347  18.373  0.00  0.00    +0.000 OA
ATOM     15  H   UNL     1       4.953   1.504  18.649  0.00  0.00    +0.000 HD
ENDBRANCH   4  14
BRANCH   1  16
ATOM     16  C   UNL     1       2.681   6.720  19.404  0.00  0.00    +0.000 C 
BRANCH  16  17
ATOM     17  O   UNL     1       2.432   7.179  18.079  0.00  0.00    +0.000 OA
ATOM     18  H   UNL     1       2.787   8.085  18.019  0.00  0.00    +0.000 HD
ENDBRANCH  16  17
ENDBRANCH   1  16
TORSDOF 5
ENDMDL
MODEL 7
REMARK VINA RESULT:      -5.3      2.046      2.907
REMARK  Name = 
REMARK  5 active torsions:
REMARK  status: ('A' for Active; 'I' for Inactive)
REMARK    1  A    between atoms: O_1  and  C_2
REMARK    2  A    between atoms: C_2  and  C_3
REMARK    3  A    between atoms: C_4  and  O_5
REMARK    4  A    between atoms: C_6  and  O_7
REMARK    5  A    between atoms: C_8  and  O_9
REMARK                            x       y       z     vdW  Elec       q    Type
REMARK                         _______ _______ _______ _____ _____    ______ ____
ROOT
ATOM      1  C   UNL     1       2.784   5.521  19.157  0.00  0.00    +0.000 C 
ATOM      2  C   UNL     1       2.433   4.671  20.395  0.00  0.00    +0.000 C 
ATOM      3  C   UNL     1       2.976   3.238  20.249  0.00  0.00    +0.000 C 
ATOM      4  C   UNL     1       4.509   3.253  20.125  0.00  0.00    +0.000 C 
ATOM      5  C   UNL     1       4.964   4.280  19.139  0.00  0.00    +0.000 A 
ATOM      6  N   UNL     1       6.124   4.310  18.511  0.00  0.00    +0.000 NA
ATOM      7  C   UNL     1       6.084   5.423  17.716  0.00  0.00    +0.000 A 
ATOM      8  C   UNL     1       4.863   6.050  17.815  0.00  0.00    +0.000 A 
ATOM      9  N   UNL     1       4.160   5.327  18.749  0.00  0.00    +0.000 N 
ENDROOT
BRANCH   2  10
ATOM     10  O   UNL     1       1.002   4.654  20.546  0.00  0.00    +0.000 OA
ATOM     11  H   UNL     1       0.705   3.725  20.514  0.00  0.00    +0.000 HD
ENDBRANCH   2  10
BRANCH   3  12
ATOM     12  O   UNL     1       2.520   2.447  21.359  0.00  0.00    +0.000 OA
ATOM     13  H   UNL     1       3.288   2.002  21.759  0.00  0.00    +0.000 HD
ENDBRANCH   3  12
BRANCH   4  14
ATOM     14  O   UNL     1       4.950   1.973  19.664  0.00  0.00    +0.000 OA
ATOM     15  H   UNL     1       5.733   1.733  20.198  0.00  0.00    +0.000 HD
ENDBRANCH   4  14
BRANCH   1  16
ATOM     16  C   UNL     1       2.403   6.992  19.391  0.00  0.00    +0.000 C 
BRANCH  16  17
ATOM     17  O   UNL     1       2.152   7.242  20.770  0.00  0.00    +0.000 OA
ATOM     18  H   UNL     1       1.360   7.808  20.817  0.00  0.00    +0.000 HD
ENDBRANCH  16  17
ENDBRANCH   1  16
TORSDOF 5
ENDMDL
MODEL 8
REMARK VINA RESULT:      -5.2      1.054      3.491
REMARK  Name = 
REMARK  5 active torsions:
REMARK  status: ('A' for Active; 'I' for Inactive)
REMARK    1  A    between atoms: O_1  and  C_2
REMARK    2  A    between atoms: C_2  and  C_3
REMARK    3  A    between atoms: C_4  and  O_5
REMARK    4  A    between atoms: C_6  and  O_7
REMARK    5  A    between atoms: C_8  and  O_9
REMARK                            x       y       z     vdW  Elec       q    Type
REMARK                         _______ _______ _______ _____ _____    ______ ____
ROOT
ATOM      1  C   UNL     1       4.405   3.811  17.653  0.00  0.00    +0.000 C 
ATOM      2  C   UNL     1       3.449   2.602  17.710  0.00  0.00    +0.000 C 
ATOM      3  C   UNL     1       2.464   2.736  18.886  0.00  0.00    +0.000 C 
ATOM      4  C   UNL     1       1.596   3.996  18.721  0.00  0.00    +0.000 C 
ATOM      5  C   UNL     1       2.430   5.185  18.364  0.00  0.00    +0.000 A 
ATOM      6  N   UNL     1       2.100   6.453  18.521  0.00  0.00    +0.000 NA
ATOM      7  C   UNL     1       3.169   7.171  18.059  0.00  0.00    +0.000 A 
ATOM      8  C   UNL     1       4.188   6.332  17.667  0.00  0.00    +0.000 A 
ATOM      9  N   UNL     1       3.696   5.060  17.840  0.00  0.00    +0.000 N 
ENDROOT
BRANCH   2  10
ATOM     10  O   UNL     1       4.235   1.404  17.846  0.00  0.00    +0.000 OA
ATOM     11  H   UNL     1       3.639   0.680  18.115  0.00  0.00    +0.000 HD
ENDBRANCH   2  10
BRANCH   3  12
ATOM     12  O   UNL     1       1.679   1.535  18.981  0.00  0.00    +0.000 OA
ATOM     13  H   UNL     1       1.791   1.161  19.873  0.00  0.00    +0.000 HD
ENDBRANCH   3  12
BRANCH   4  14
ATOM     14  O   UNL     1       0.941   4.273  19.962  0.00  0.00    +0.000 OA
ATOM     15  H   UNL     1       1.329   3.671  20.628  0.00  0.00    +0.000 HD
ENDBRANCH   4  14
BRANCH   1  16
ATOM     16  C   UNL     1       5.256   3.762  16.374  0.00  0.00    +0.000 C 
BRANCH  16  17
ATOM     17  O   UNL     1       6.639   3.915  16.675  0.00  0.00    +0.000 OA
ATOM     18  H   UNL     1       6.930   3.091  17.109  0.00  0.00    +0.000 HD
ENDBRANCH  16  17
ENDBRANCH   1  16
TORSDOF 5
ENDMDL
MODEL 9
REMARK VINA RESULT:      -5.2      1.608      3.220
REMARK  Name = 
REMARK  5 active torsions:
REMARK  status: ('A' for Active; 'I' for Inactive)
REMARK    1  A    between atoms: O_1  and  C_2
REMARK    2  A    between atoms: C_2  and  C_3
REMARK    3  A    between atoms: C_4  and  O_5
REMARK    4  A    between atoms: C_6  and  O_7
REMARK    5  A    between atoms: C_8  and  O_9
REMARK                            x       y       z     vdW  Elec       q    Type
REMARK                         _______ _______ _______ _____ _____    ______ ____
ROOT
ATOM      1  C   UNL     1       4.622   4.492  19.378  0.00  0.00    +0.000 C 
ATOM      2  C   UNL     1       4.512   3.039  18.875  0.00  0.00    +0.000 C 
ATOM      3  C   UNL     1       3.041   2.584  18.830  0.00  0.00    +0.000 C 
ATOM      4  C   UNL     1       2.235   3.464  17.859  0.00  0.00    +0.000 C 
ATOM      5  C   UNL     1       2.515   4.916  18.085  0.00  0.00    +0.000 A 
ATOM      6  N   UNL     1       1.751   5.930  17.726  0.00  0.00    +0.000 NA
ATOM      7  C   UNL     1       2.410   7.054  18.143  0.00  0.00    +0.000 A 
ATOM      8  C   UNL     1       3.565   6.721  18.815  0.00  0.00    +0.000 A 
ATOM      9  N   UNL     1       3.638   5.350  18.750  0.00  0.00    +0.000 N 
ENDROOT
BRANCH   2  10
ATOM     10  O   UNL     1       5.272   2.192  19.755  0.00  0.00    +0.000 OA
ATOM     11  H   UNL     1       4.656   1.784  20.392  0.00  0.00    +0.000 HD
ENDBRANCH   2  10
BRANCH   3  12
ATOM     12  O   UNL     1       2.990   1.190  18.481  0.00  0.00    +0.000 OA
ATOM     13  H   UNL     1       3.560   0.696  19.095  0.00  0.00    +0.000 HD
ENDBRANCH   3  12
BRANCH   4  14
ATOM     14  O   UNL     1       0.839   3.244  18.084  0.00  0.00    +0.000 OA
ATOM     15  H   UNL     1       0.593   3.767  18.872  0.00  0.00    +0.000 HD
ENDBRANCH   4  14
BRANCH   1  16
ATOM     16  C   UNL     1       6.068   4.997  19.244  0.00  0.00    +0.000 C 
BRANCH  16  17
ATOM     17  O   UNL     1       6.814   4.180  18.348  0.00  0.00    +0.000 OA
ATOM     18  H   UNL     1       7.243   3.488  18.884  0.00  0.00    +0.000 HD
ENDBRANCH  16  17
ENDBRANCH   1  16
TORSDOF 5
ENDMDL
