MODEL 1
REMARK VINA RESULT:      -7.3      0.000      0.000
REMARK  Name = 
REMARK  7 active torsions:
REMARK  status: ('A' for Active; 'I' for Inactive)
REMARK    1  A    between atoms: C_1  and  N_2
REMARK    2  A    between atoms: N_2  and  C_3
REMARK    3  A    between atoms: C_3  and  C_4
REMARK    4  A    between atoms: C_4  and  C_5
REMARK    5  A    between atoms: C_5  and  N_6
REMARK    6  A    between atoms: N_6  and  C_7
REMARK    7  A    between atoms: C_18  and  C_20
REMARK                            x       y       z     vdW  Elec       q    Type
REMARK                         _______ _______ _______ _____ _____    ______ ____
ROOT
ATOM      1  N   UNL     1       2.634   6.676  20.098  0.00  0.00    +0.000 N 
ATOM      2  H   UNL     1       3.645   6.744  20.176  0.00  0.00    +0.000 HD
ENDROOT
BRANCH   1   3
ATOM      3  C   UNL     1       2.076   7.892  19.627  0.00  0.00    +0.000 A 
ATOM      4  C   UNL     1       2.184   8.253  18.280  0.00  0.00    +0.000 A 
ATOM      5  C   UNL     1       1.599   9.423  17.841  0.00  0.00    +0.000 A 
ATOM      6  N   UNL     1       0.897  10.251  18.631  0.00  0.00    +0.000 NA
ATOM      7  C   UNL     1       0.725   9.897  19.912  0.00  0.00    +0.000 A 
ATOM      8  C   UNL     1      -0.035  10.752  20.696  0.00  0.00    +0.000 A 
ATOM      9  C   UNL     1      -0.285  10.471  22.033  0.00  0.00    +0.000 A 
ATOM     10 CL   UNL     1      -1.231  11.559  22.973  0.00  0.00    +0.000 Cl
ATOM     11  C   UNL     1       0.220   9.317  22.613  0.00  0.00    +0.000 A 
ATOM     12  C   UNL     1       0.988   8.442  21.838  0.00  0.00    +0.000 A 
ATOM     13  C   UNL     1       1.271   8.716  20.475  0.00  0.00    +0.000 A 
ENDBRANCH   1   3
BRANCH   1  14
ATOM     14  C   UNL     1       2.239   5.443  19.411  0.00  0.00    +0.000 C 
BRANCH  14  15
ATOM     15  C   UNL     1       2.622   4.226  20.253  0.00  0.00    +0.000 C 
BRANCH  15  16
ATOM     16  C   UNL     1       3.981   3.678  19.810  0.00  0.00    +0.000 C 
BRANCH  16  18
ATOM     17  C   UNL     1       3.330   2.245  17.805  0.00  0.00    +0.000 C 
ATOM     18  N   UNL     1       4.136   3.301  18.402  0.00  0.00    +0.000 N 
ATOM     19  C   UNL     1       4.937   4.044  17.512  0.00  0.00    +0.000 C 
ATOM     20  O   UNL     1       4.916   3.789  16.301  0.00  0.00    +0.000 OA
BRANCH  19  21
ATOM     21  C   UNL     1       5.840   5.172  18.104  0.00  0.00    +0.000 C 
ATOM     22  C   UNL     1       7.347   5.141  17.719  0.00  0.00    +0.000 C 
ATOM     23  C   UNL     1       7.302   6.672  17.592  0.00  0.00    +0.000 C 
ATOM     24  C   UNL     1       5.779   6.560  17.409  0.00  0.00    +0.000 C 
ENDBRANCH  19  21
ENDBRANCH  16  18
ENDBRANCH  15  16
ENDBRANCH  14  15
ENDBRANCH   1  14
TORSDOF 6
ENDMDL
MODEL 2
REMARK VINA RESULT:      -7.2      1.535      1.826
REMARK  Name = 
REMARK  7 active torsions:
REMARK  status: ('A' for Active; 'I' for Inactive)
REMARK    1  A    between atoms: C_1  and  N_2
REMARK    2  A    between atoms: N_2  and  C_3
REMARK    3  A    between atoms: C_3  and  C_4
REMARK    4  A    between atoms: C_4  and  C_5
REMARK    5  A    between atoms: C_5  and  N_6
REMARK    6  A    between atoms: N_6  and  C_7
REMARK    7  A    between atoms: C_18  and  C_20
REMARK                            x       y       z     vdW  Elec       q    Type
REMARK                         _______ _______ _______ _____ _____    ______ ____
ROOT
ATOM      1  N   UNL     1       1.859   7.694  20.942  0.00  0.00    +0.000 N 
ATOM      2  H   UNL     1       2.685   7.946  21.478  0.00  0.00    +0.000 HD
ENDROOT
BRANCH   1   3
ATOM      3  C   UNL     1       1.245   8.843  20.383  0.00  0.00    +0.000 A 
ATOM      4  C   UNL     1       1.399   9.147  19.026  0.00  0.00    +0.000 A 
ATOM      5  C   UNL     1       0.760  10.250  18.499  0.00  0.00    +0.000 A 
ATOM      6  N   UNL     1      -0.039  11.062  19.209  0.00  0.00    +0.000 NA
ATOM      7  C   UNL     1      -0.255  10.759  20.496  0.00  0.00    +0.000 A 
ATOM      8  C   UNL     1      -1.112  11.593  21.197  0.00  0.00    +0.000 A 
ATOM      9  C   UNL     1      -1.414  11.359  22.532  0.00  0.00    +0.000 A 
ATOM     10 CL   UNL     1      -2.481  12.420  23.366  0.00  0.00    +0.000 Cl
ATOM     11  C   UNL     1      -0.863  10.273  23.195  0.00  0.00    +0.000 A 
ATOM     12  C   UNL     1       0.004   9.419  22.505  0.00  0.00    +0.000 A 
ATOM     13  C   UNL     1       0.341   9.647  21.146  0.00  0.00    +0.000 A 
ENDBRANCH   1   3
BRANCH   1  14
ATOM     14  C   UNL     1       2.135   6.571  20.042  0.00  0.00    +0.000 C 
BRANCH  14  15
ATOM     15  C   UNL     1       1.950   5.245  20.781  0.00  0.00    +0.000 C 
BRANCH  15  16
ATOM     16  C   UNL     1       2.822   4.157  20.149  0.00  0.00    +0.000 C 
BRANCH  16  18
ATOM     17  C   UNL     1       1.029   2.707  19.064  0.00  0.00    +0.000 C 
ATOM     18  N   UNL     1       2.284   3.442  18.988  0.00  0.00    +0.000 N 
ATOM     19  C   UNL     1       2.849   3.567  17.704  0.00  0.00    +0.000 C 
ATOM     20  O   UNL     1       2.273   3.077  16.723  0.00  0.00    +0.000 OA
BRANCH  19  21
ATOM     21  C   UNL     1       4.208   4.325  17.570  0.00  0.00    +0.000 C 
ATOM     22  C   UNL     1       5.035   4.063  16.278  0.00  0.00    +0.000 C 
ATOM     23  C   UNL     1       5.383   5.560  16.250  0.00  0.00    +0.000 C 
ATOM     24  C   UNL     1       4.144   5.812  17.126  0.00  0.00    +0.000 C 
ENDBRANCH  19  21
ENDBRANCH  16  18
ENDBRANCH  15  16
ENDBRANCH  14  15
ENDBRANCH   1  14
TORSDOF 6
ENDMDL
MODEL 3
REMARK VINA RESULT:      -6.9      2.865      4.494
REMARK  Name = 
REMARK  7 active torsions:
REMARK  status: ('A' for Active; 'I' for Inactive)
REMARK    1  A    between atoms: C_1  and  N_2
REMARK    2  A    between atoms: N_2  and  C_3
REMARK    3  A    between atoms: C_3  and  C_4
REMARK    4  A    between atoms: C_4  and  C_5
REMARK    5  A    between atoms: C_5  and  N_6
REMARK    6  A    between atoms: N_6  and  C_7
REMARK    7  A    between atoms: C_18  and  C_20
REMARK                            x       y       z     vdW  Elec       q    Type
REMARK                         _______ _______ _______ _____ _____    ______ ____
ROOT
ATOM      1  N   UNL     1       2.411   2.684  17.501  0.00  0.00    +0.000 N 
ATOM      2  H   UNL     1       1.705   2.061  17.118  0.00  0.00    +0.000 HD
ENDROOT
BRANCH   1   3
ATOM      3  C   UNL     1       2.044   3.134  18.796  0.00  0.00    +0.000 A 
ATOM      4  C   UNL     1       1.824   2.222  19.833  0.00  0.00    +0.000 A 
ATOM      5  C   UNL     1       1.506   2.688  21.092  0.00  0.00    +0.000 A 
ATOM      6  N   UNL     1       1.412   3.990  21.406  0.00  0.00    +0.000 NA
ATOM      7  C   UNL     1       1.680   4.887  20.447  0.00  0.00    +0.000 A 
ATOM      8  C   UNL     1       1.611   6.223  20.808  0.00  0.00    +0.000 A 
ATOM      9  C   UNL     1       1.885   7.232  19.893  0.00  0.00    +0.000 A 
ATOM     10 CL   UNL     1       1.786   8.879  20.380  0.00  0.00    +0.000 Cl
ATOM     11  C   UNL     1       2.240   6.918  18.590  0.00  0.00    +0.000 A 
ATOM     12  C   UNL     1       2.316   5.574  18.207  0.00  0.00    +0.000 A 
ATOM     13  C   UNL     1       2.025   4.527  19.119  0.00  0.00    +0.000 A 
ENDBRANCH   1   3
BRANCH   1  14
ATOM     14  C   UNL     1       3.756   2.125  17.338  0.00  0.00    +0.000 C 
BRANCH  14  15
ATOM     15  C   UNL     1       4.793   3.247  17.309  0.00  0.00    +0.000 C 
BRANCH  15  16
ATOM     16  C   UNL     1       4.635   4.086  16.037  0.00  0.00    +0.000 C 
BRANCH  16  18
ATOM     17  C   UNL     1       5.974   3.862  13.880  0.00  0.00    +0.000 C 
ATOM     18  N   UNL     1       5.839   4.353  15.245  0.00  0.00    +0.000 N 
ATOM     19  C   UNL     1       6.845   5.233  15.686  0.00  0.00    +0.000 C 
ATOM     20  O   UNL     1       7.765   5.556  14.922  0.00  0.00    +0.000 OA
BRANCH  19  21
ATOM     21  C   UNL     1       6.762   5.770  17.150  0.00  0.00    +0.000 C 
ATOM     22  C   UNL     1       7.677   5.083  18.204  0.00  0.00    +0.000 C 
ATOM     23  C   UNL     1       7.944   6.470  18.812  0.00  0.00    +0.000 C 
ATOM     24  C   UNL     1       7.530   7.083  17.464  0.00  0.00    +0.000 C 
ENDBRANCH  19  21
ENDBRANCH  16  18
ENDBRANCH  15  16
ENDBRANCH  14  15
ENDBRANCH   1  14
TORSDOF 6
ENDMDL
MODEL 4
REMARK VINA RESULT:      -6.9      0.970      1.096
REMARK  Name = 
REMARK  7 active torsions:
REMARK  status: ('A' for Active; 'I' for Inactive)
REMARK    1  A    between atoms: C_1  and  N_2
REMARK    2  A    between atoms: N_2  and  C_3
REMARK    3  A    between atoms: C_3  and  C_4
REMARK    4  A    between atoms: C_4  and  C_5
REMARK    5  A    between atoms: C_5  and  N_6
REMARK    6  A    between atoms: N_6  and  C_7
REMARK    7  A    between atoms: C_18  and  C_20
REMARK                            x       y       z     vdW  Elec       q    Type
REMARK                         _______ _______ _______ _____ _____    ______ ____
ROOT
ATOM      1  N   UNL     1       1.936   7.580  20.637  0.00  0.00    +0.000 N 
ATOM      2  H   UNL     1       2.627   7.783  21.354  0.00  0.00    +0.000 HD
ENDROOT
BRANCH   1   3
ATOM      3  C   UNL     1       1.323   8.770  20.168  0.00  0.00    +0.000 A 
ATOM      4  C   UNL     1       1.441   9.155  18.829  0.00  0.00    +0.000 A 
ATOM      5  C   UNL     1       0.803  10.297  18.391  0.00  0.00    +0.000 A 
ATOM      6  N   UNL     1       0.039  11.075  19.174  0.00  0.00    +0.000 NA
ATOM      7  C   UNL     1      -0.142  10.695  20.447  0.00  0.00    +0.000 A 
ATOM      8  C   UNL     1      -0.964  11.496  21.224  0.00  0.00    +0.000 A 
ATOM      9  C   UNL     1      -1.229  11.184  22.551  0.00  0.00    +0.000 A 
ATOM     10 CL   UNL     1      -2.253  12.206  23.482  0.00  0.00    +0.000 Cl
ATOM     11  C   UNL     1      -0.674  10.052  23.128  0.00  0.00    +0.000 A 
ATOM     12  C   UNL     1       0.157   9.230  22.360  0.00  0.00    +0.000 A 
ATOM     13  C   UNL     1       0.455   9.537  21.008  0.00  0.00    +0.000 A 
ENDBRANCH   1   3
BRANCH   1  14
ATOM     14  C   UNL     1       2.474   6.658  19.632  0.00  0.00    +0.000 C 
BRANCH  14  15
ATOM     15  C   UNL     1       2.387   5.218  20.138  0.00  0.00    +0.000 C 
BRANCH  15  16
ATOM     16  C   UNL     1       3.650   4.442  19.754  0.00  0.00    +0.000 C 
BRANCH  16  18
ATOM     17  C   UNL     1       2.956   3.111  17.694  0.00  0.00    +0.000 C 
ATOM     18  N   UNL     1       3.825   4.083  18.344  0.00  0.00    +0.000 N 
ATOM     19  C   UNL     1       4.716   4.774  17.500  0.00  0.00    +0.000 C 
ATOM     20  O   UNL     1       4.719   4.548  16.283  0.00  0.00    +0.000 OA
BRANCH  19  21
ATOM     21  C   UNL     1       5.688   5.810  18.150  0.00  0.00    +0.000 C 
ATOM     22  C   UNL     1       7.152   5.343  18.395  0.00  0.00    +0.000 C 
ATOM     23  C   UNL     1       7.625   6.736  17.948  0.00  0.00    +0.000 C 
ATOM     24  C   UNL     1       6.282   6.900  17.216  0.00  0.00    +0.000 C 
ENDBRANCH  19  21
ENDBRANCH  16  18
ENDBRANCH  15  16
ENDBRANCH  14  15
ENDBRANCH   1  14
TORSDOF 6
ENDMDL
MODEL 5
REMARK VINA RESULT:      -6.9      2.940      4.820
REMARK  Name = 
REMARK  7 active torsions:
REMARK  status: ('A' for Active; 'I' for Inactive)
REMARK    1  A    between atoms: C_1  and  N_2
REMARK    2  A    between atoms: N_2  and  C_3
REMARK    3  A    between atoms: C_3  and  C_4
REMARK    4  A    between atoms: C_4  and  C_5
REMARK    5  A    between atoms: C_5  and  N_6
REMARK    6  A    between atoms: N_6  and  C_7
REMARK    7  A    between atoms: C_18  and  C_20
REMARK                            x       y       z     vdW  Elec       q    Type
REMARK                         _______ _______ _______ _____ _____    ______ ____
ROOT
ATOM      1  N   UNL     1       0.791   9.421  17.780  0.00  0.00    +0.000 N 
ATOM      2  H   UNL     1       0.370   8.506  17.647  0.00  0.00    +0.000 HD
ENDROOT
BRANCH   1   3
ATOM      3  C   UNL     1      -0.032  10.249  18.585  0.00  0.00    +0.000 A 
ATOM      4  C   UNL     1       0.471  10.847  19.745  0.00  0.00    +0.000 A 
ATOM      5  C   UNL     1      -0.340  11.678  20.489  0.00  0.00    +0.000 A 
ATOM      6  N   UNL     1      -1.606  11.980  20.159  0.00  0.00    +0.000 NA
ATOM      7  C   UNL     1      -2.093  11.472  19.018  0.00  0.00    +0.000 A 
ATOM      8  C   UNL     1      -3.390  11.829  18.683  0.00  0.00    +0.000 A 
ATOM      9  C   UNL     1      -3.985  11.368  17.515  0.00  0.00    +0.000 A 
ATOM     10 CL   UNL     1      -5.598  11.833  17.136  0.00  0.00    +0.000 Cl
ATOM     11  C   UNL     1      -3.285  10.539  16.652  0.00  0.00    +0.000 A 
ATOM     12  C   UNL     1      -1.974  10.168  16.973  0.00  0.00    +0.000 A 
ATOM     13  C   UNL     1      -1.351  10.612  18.168  0.00  0.00    +0.000 A 
ENDBRANCH   1   3
BRANCH   1  14
ATOM     14  C   UNL     1       2.203   9.305  18.157  0.00  0.00    +0.000 C 
BRANCH  14  15
ATOM     15  C   UNL     1       2.786   7.999  17.618  0.00  0.00    +0.000 C 
BRANCH  15  16
ATOM     16  C   UNL     1       2.756   6.915  18.700  0.00  0.00    +0.000 C 
BRANCH  16  18
ATOM     17  C   UNL     1       4.970   6.003  17.827  0.00  0.00    +0.000 C 
ATOM     18  N   UNL     1       3.761   5.851  18.625  0.00  0.00    +0.000 N 
ATOM     19  C   UNL     1       3.702   4.707  19.445  0.00  0.00    +0.000 C 
ATOM     20  O   UNL     1       4.650   3.911  19.466  0.00  0.00    +0.000 OA
BRANCH  19  21
ATOM     21  C   UNL     1       2.416   4.483  20.302  0.00  0.00    +0.000 C 
ATOM     22  C   UNL     1       1.278   3.642  19.656  0.00  0.00    +0.000 C 
ATOM     23  C   UNL     1       1.052   2.977  21.024  0.00  0.00    +0.000 C 
ATOM     24  C   UNL     1       2.485   3.389  21.402  0.00  0.00    +0.000 C 
ENDBRANCH  19  21
ENDBRANCH  16  18
ENDBRANCH  15  16
ENDBRANCH  14  15
ENDBRANCH   1  14
TORSDOF 6
ENDMDL
MODEL 6
REMARK VINA RESULT:      -6.8      4.245      8.190
REMARK  Name = 
REMARK  7 active torsions:
REMARK  status: ('A' for Active; 'I' for Inactive)
REMARK    1  A    between atoms: C_1  and  N_2
REMARK    2  A    between atoms: N_2  and  C_3
REMARK    3  A    between atoms: C_3  and  C_4
REMARK    4  A    between atoms: C_4  and  C_5
REMARK    5  A    between atoms: C_5  and  N_6
REMARK    6  A    between atoms: N_6  and  C_7
REMARK    7  A    between atoms: C_18  and  C_20
REMARK                            x       y       z     vdW  Elec       q    Type
REMARK                         _______ _______ _______ _____ _____    ______ ____
ROOT
ATOM      1  N   UNL     1       2.972   6.767  19.717  0.00  0.00    +0.000 N 
ATOM      2  H   UNL     1       3.076   6.504  20.694  0.00  0.00    +0.000 HD
ENDROOT
BRANCH   1   3
ATOM      3  C   UNL     1       3.003   5.625  18.876  0.00  0.00    +0.000 A 
ATOM      4  C   UNL     1       1.994   4.659  18.946  0.00  0.00    +0.000 A 
ATOM      5  C   UNL     1       2.028   3.577  18.091  0.00  0.00    +0.000 A 
ATOM      6  N   UNL     1       2.973   3.392  17.155  0.00  0.00    +0.000 NA
ATOM      7  C   UNL     1       3.917   4.335  17.024  0.00  0.00    +0.000 A 
ATOM      8  C   UNL     1       4.859   4.138  16.027  0.00  0.00    +0.000 A 
ATOM      9  C   UNL     1       5.871   5.062  15.798  0.00  0.00    +0.000 A 
ATOM     10 CL   UNL     1       7.023   4.778  14.552  0.00  0.00    +0.000 Cl
ATOM     11  C   UNL     1       5.955   6.213  16.566  0.00  0.00    +0.000 A 
ATOM     12  C   UNL     1       5.012   6.431  17.577  0.00  0.00    +0.000 A 
ATOM     13  C   UNL     1       3.980   5.494  17.840  0.00  0.00    +0.000 A 
ENDBRANCH   1   3
BRANCH   1  14
ATOM     14  C   UNL     1       1.861   7.706  19.538  0.00  0.00    +0.000 C 
BRANCH  14  15
ATOM     15  C   UNL     1       2.231   8.769  18.503  0.00  0.00    +0.000 C 
BRANCH  15  16
ATOM     16  C   UNL     1       0.967   9.400  17.913  0.00  0.00    +0.000 C 
BRANCH  16  18
ATOM     17  C   UNL     1       0.938  11.123  19.792  0.00  0.00    +0.000 C 
ATOM     18  N   UNL     1       0.263  10.398  18.723  0.00  0.00    +0.000 N 
ATOM     19  C   UNL     1      -1.039  10.835  18.409  0.00  0.00    +0.000 C 
ATOM     20  O   UNL     1      -1.536  11.791  19.019  0.00  0.00    +0.000 OA
BRANCH  19  21
ATOM     21  C   UNL     1      -1.817  10.076  17.288  0.00  0.00    +0.000 C 
ATOM     22  C   UNL     1      -3.281   9.657  17.608  0.00  0.00    +0.000 C 
ATOM     23  C   UNL     1      -3.662  10.047  16.171  0.00  0.00    +0.000 C 
ATOM     24  C   UNL     1      -2.406  10.934  16.135  0.00  0.00    +0.000 C 
ENDBRANCH  19  21
ENDBRANCH  16  18
ENDBRANCH  15  16
ENDBRANCH  14  15
ENDBRANCH   1  14
TORSDOF 6
ENDMDL
MODEL 7
REMARK VINA RESULT:      -6.8      2.879      4.090
REMARK  Name = 
REMARK  7 active torsions:
REMARK  status: ('A' for Active; 'I' for Inactive)
REMARK    1  A    between atoms: C_1  and  N_2
REMARK    2  A    between atoms: N_2  and  C_3
REMARK    3  A    between atoms: C_3  and  C_4
REMARK    4  A    between atoms: C_4  and  C_5
REMARK    5  A    between atoms: C_5  and  N_6
REMARK    6  A    between atoms: N_6  and  C_7
REMARK    7  A    between atoms: C_18  and  C_20
REMARK                            x       y       z     vdW  Elec       q    Type
REMARK                         _______ _______ _______ _____ _____    ______ ____
ROOT
ATOM      1  N   UNL     1       3.467   5.976  17.693  0.00  0.00    +0.000 N 
ATOM      2  H   UNL     1       3.230   6.456  16.829  0.00  0.00    +0.000 HD
ENDROOT
BRANCH   1   3
ATOM      3  C   UNL     1       2.688   6.458  18.775  0.00  0.00    +0.000 A 
ATOM      4  C   UNL     1       2.470   5.666  19.907  0.00  0.00    +0.000 A 
ATOM      5  C   UNL     1       1.740   6.174  20.962  0.00  0.00    +0.000 A 
ATOM      6  N   UNL     1       1.228   7.415  20.989  0.00  0.00    +0.000 NA
ATOM      7  C   UNL     1       1.475   8.217  19.944  0.00  0.00    +0.000 A 
ATOM      8  C   UNL     1       0.966   9.504  20.014  0.00  0.00    +0.000 A 
ATOM      9  C   UNL     1       1.177  10.419  18.991  0.00  0.00    +0.000 A 
ATOM     10 CL   UNL     1       0.526  12.007  19.115  0.00  0.00    +0.000 Cl
ATOM     11  C   UNL     1       1.913  10.060  17.871  0.00  0.00    +0.000 A 
ATOM     12  C   UNL     1       2.436   8.766  17.783  0.00  0.00    +0.000 A 
ATOM     13  C   UNL     1       2.219   7.809  18.807  0.00  0.00    +0.000 A 
ENDBRANCH   1   3
BRANCH   1  14
ATOM     14  C   UNL     1       3.520   4.524  17.494  0.00  0.00    +0.000 C 
BRANCH  14  15
ATOM     15  C   UNL     1       4.935   4.008  17.749  0.00  0.00    +0.000 C 
BRANCH  15  16
ATOM     16  C   UNL     1       5.642   3.712  16.423  0.00  0.00    +0.000 C 
BRANCH  16  18
ATOM     17  C   UNL     1       6.976   5.874  16.629  0.00  0.00    +0.000 C 
ATOM     18  N   UNL     1       6.440   4.784  15.824  0.00  0.00    +0.000 N 
ATOM     19  C   UNL     1       6.879   4.733  14.486  0.00  0.00    +0.000 C 
ATOM     20  O   UNL     1       7.682   5.576  14.064  0.00  0.00    +0.000 OA
BRANCH  19  21
ATOM     21  C   UNL     1       6.316   3.599  13.572  0.00  0.00    +0.000 C 
ATOM     22  C   UNL     1       4.903   3.824  12.960  0.00  0.00    +0.000 C 
ATOM     23  C   UNL     1       5.418   3.202  11.652  0.00  0.00    +0.000 C 
ATOM     24  C   UNL     1       6.845   3.542  12.113  0.00  0.00    +0.000 C 
ENDBRANCH  19  21
ENDBRANCH  16  18
ENDBRANCH  15  16
ENDBRANCH  14  15
ENDBRANCH   1  14
TORSDOF 6
ENDMDL
MODEL 8
REMARK VINA RESULT:      -6.8      3.777      7.649
REMARK  Name = 
REMARK  7 active torsions:
REMARK  status: ('A' for Active; 'I' for Inactive)
REMARK    1  A    between atoms: C_1  and  N_2
REMARK    2  A    between atoms: N_2  and  C_3
REMARK    3  A    between atoms: C_3  and  C_4
REMARK    4  A    between atoms: C_4  and  C_5
REMARK    5  A    between atoms: C_5  and  N_6
REMARK    6  A    between atoms: N_6  and  C_7
REMARK    7  A    between atoms: C_18  and  C_20
REMARK                            x       y       z     vdW  Elec       q    Type
REMARK                         _______ _______ _______ _____ _____    ______ ____
ROOT
ATOM      1  N   UNL     1       3.423   7.909  17.832  0.00  0.00    +0.000 N 
ATOM      2  H   UNL     1       3.770   8.324  18.693  0.00  0.00    +0.000 HD
ENDROOT
BRANCH   1   3
ATOM      3  C   UNL     1       3.697   6.519  17.790  0.00  0.00    +0.000 A 
ATOM      4  C   UNL     1       4.595   5.996  16.854  0.00  0.00    +0.000 A 
ATOM      5  C   UNL     1       4.873   4.644  16.859  0.00  0.00    +0.000 A 
ATOM      6  N   UNL     1       4.345   3.775  17.736  0.00  0.00    +0.000 NA
ATOM      7  C   UNL     1       3.530   4.259  18.683  0.00  0.00    +0.000 A 
ATOM      8  C   UNL     1       3.028   3.346  19.597  0.00  0.00    +0.000 A 
ATOM      9  C   UNL     1       2.186   3.746  20.627  0.00  0.00    +0.000 A 
ATOM     10 CL   UNL     1       1.582   2.581  21.740  0.00  0.00    +0.000 Cl
ATOM     11  C   UNL     1       1.832   5.080  20.765  0.00  0.00    +0.000 A 
ATOM     12  C   UNL     1       2.330   6.017  19.852  0.00  0.00    +0.000 A 
ATOM     13  C   UNL     1       3.178   5.630  18.783  0.00  0.00    +0.000 A 
ENDBRANCH   1   3
BRANCH   1  14
ATOM     14  C   UNL     1       2.047   8.334  17.557  0.00  0.00    +0.000 C 
BRANCH  14  15
ATOM     15  C   UNL     1       1.806   9.735  18.119  0.00  0.00    +0.000 C 
BRANCH  15  16
ATOM     16  C   UNL     1       0.632   9.720  19.102  0.00  0.00    +0.000 C 
BRANCH  16  18
ATOM     17  C   UNL     1       0.371  11.965  20.281  0.00  0.00    +0.000 C 
ATOM     18  N   UNL     1      -0.092  10.976  19.316  0.00  0.00    +0.000 N 
ATOM     19  C   UNL     1      -1.162  11.372  18.491  0.00  0.00    +0.000 C 
ATOM     20  O   UNL     1      -1.643  12.508  18.602  0.00  0.00    +0.000 OA
BRANCH  19  21
ATOM     21  C   UNL     1      -1.713  10.341  17.457  0.00  0.00    +0.000 C 
ATOM     22  C   UNL     1      -3.096   9.699  17.771  0.00  0.00    +0.000 C 
ATOM     23  C   UNL     1      -3.442   9.819  16.278  0.00  0.00    +0.000 C 
ATOM     24  C   UNL     1      -2.368  10.914  16.170  0.00  0.00    +0.000 C 
ENDBRANCH  19  21
ENDBRANCH  16  18
ENDBRANCH  15  16
ENDBRANCH  14  15
ENDBRANCH   1  14
TORSDOF 6
ENDMDL
MODEL 9
REMARK VINA RESULT:      -6.7      3.637      6.038
REMARK  Name = 
REMARK  7 active torsions:
REMARK  status: ('A' for Active; 'I' for Inactive)
REMARK    1  A    between atoms: C_1  and  N_2
REMARK    2  A    between atoms: N_2  and  C_3
REMARK    3  A    between atoms: C_3  and  C_4
REMARK    4  A    between atoms: C_4  and  C_5
REMARK    5  A    between atoms: C_5  and  N_6
REMARK    6  A    between atoms: N_6  and  C_7
REMARK    7  A    between atoms: C_18  and  C_20
REMARK                            x       y       z     vdW  Elec       q    Type
REMARK                         _______ _______ _______ _____ _____    ______ ____
ROOT
ATOM      1  N   UNL     1       5.775   3.403  18.856  0.00  0.00    +0.000 N 
ATOM      2  H   UNL     1       6.602   2.813  18.811  0.00  0.00    +0.000 HD
ENDROOT
BRANCH   1   3
ATOM      3  C   UNL     1       5.807   4.403  17.851  0.00  0.00    +0.000 A 
ATOM      4  C   UNL     1       4.975   4.316  16.730  0.00  0.00    +0.000 A 
ATOM      5  C   UNL     1       4.999   5.322  15.786  0.00  0.00    +0.000 A 
ATOM      6  N   UNL     1       5.768   6.419  15.880  0.00  0.00    +0.000 NA
ATOM      7  C   UNL     1       6.529   6.558  16.975  0.00  0.00    +0.000 A 
ATOM      8  C   UNL     1       7.285   7.715  17.064  0.00  0.00    +0.000 A 
ATOM      9  C   UNL     1       8.097   7.964  18.163  0.00  0.00    +0.000 A 
ATOM     10 CL   UNL     1       9.022   9.413  18.234  0.00  0.00    +0.000 Cl
ATOM     11  C   UNL     1       8.161   7.052  19.206  0.00  0.00    +0.000 A 
ATOM     12  C   UNL     1       7.404   5.878  19.135  0.00  0.00    +0.000 A 
ATOM     13  C   UNL     1       6.581   5.594  18.015  0.00  0.00    +0.000 A 
ENDBRANCH   1   3
BRANCH   1  14
ATOM     14  C   UNL     1       4.556   2.596  18.966  0.00  0.00    +0.000 C 
BRANCH  14  15
ATOM     15  C   UNL     1       4.024   2.638  20.398  0.00  0.00    +0.000 C 
BRANCH  15  16
ATOM     16  C   UNL     1       2.560   3.085  20.410  0.00  0.00    +0.000 C 
BRANCH  16  18
ATOM     17  C   UNL     1       1.119   2.027  18.592  0.00  0.00    +0.000 C 
ATOM     18  N   UNL     1       1.862   3.163  19.123  0.00  0.00    +0.000 N 
ATOM     19  C   UNL     1       1.723   4.374  18.418  0.00  0.00    +0.000 C 
ATOM     20  O   UNL     1       0.993   4.430  17.420  0.00  0.00    +0.000 OA
BRANCH  19  21
ATOM     21  C   UNL     1       2.518   5.617  18.931  0.00  0.00    +0.000 C 
ATOM     22  C   UNL     1       2.447   6.905  18.061  0.00  0.00    +0.000 C 
ATOM     23  C   UNL     1       2.357   7.724  19.359  0.00  0.00    +0.000 C 
ATOM     24  C   UNL     1       1.865   6.451  20.067  0.00  0.00    +0.000 C 
ENDBRANCH  19  21
ENDBRANCH  16  18
ENDBRANCH  15  16
ENDBRANCH  14  15
ENDBRANCH   1  14
TORSDOF 6
ENDMDL
