MODEL 1
REMARK VINA RESULT:      -7.6      0.000      0.000
REMARK  Name = 
REMARK  7 active torsions:
REMARK  status: ('A' for Active; 'I' for Inactive)
REMARK    1  A    between atoms: C_1  and  O_2
REMARK    2  A    between atoms: O_2  and  C_3
REMARK    3  A    between atoms: C_7  and  C_8
REMARK    4  A    between atoms: C_8  and  C_10
REMARK    5  A    between atoms: C_10  and  C_12
REMARK    6  A    between atoms: C_16  and  O_17
REMARK    7  A    between atoms: O_17  and  C_18
REMARK                            x       y       z     vdW  Elec       q    Type
REMARK                         _______ _______ _______ _____ _____    ______ ____
ROOT
ATOM      1  C   UNL     1       6.997   4.975  16.028  0.00  0.00    +0.000 C 
ATOM      2  O   UNL     1       7.757   4.348  16.759  0.00  0.00    +0.000 OA
ENDROOT
BRANCH   1   7
ATOM      3  C   UNL     1       6.125   3.527  12.621  0.00  0.00    +0.000 A 
ATOM      4  C   UNL     1       6.993   4.257  11.807  0.00  0.00    +0.000 A 
ATOM      5  C   UNL     1       7.834   5.225  12.357  0.00  0.00    +0.000 A 
ATOM      6  C   UNL     1       7.817   5.457  13.732  0.00  0.00    +0.000 A 
ATOM      7  C   UNL     1       6.953   4.727  14.561  0.00  0.00    +0.000 A 
ATOM      8  C   UNL     1       6.097   3.772  13.996  0.00  0.00    +0.000 A 
BRANCH   3  10
ATOM      9  C   UNL     1       4.220   3.073  11.266  0.00  0.00    +0.000 C 
ATOM     10  O   UNL     1       5.367   2.596  11.962  0.00  0.00    +0.000 OA
ENDBRANCH   3  10
ENDBRANCH   1   7
BRANCH   1  11
ATOM     11  C   UNL     1       6.065   5.991  16.658  0.00  0.00    +0.000 C 
ATOM     12  O   UNL     1       6.453   7.151  16.755  0.00  0.00    +0.000 OA
BRANCH  11  13
ATOM     13  C   UNL     1       4.708   5.589  17.120  0.00  0.00    +0.000 A 
ATOM     14  C   UNL     1       3.872   6.577  17.659  0.00  0.00    +0.000 A 
ATOM     15  C   UNL     1       2.602   6.243  18.130  0.00  0.00    +0.000 A 
ATOM     16  C   UNL     1       2.164   4.920  18.063  0.00  0.00    +0.000 A 
ATOM     17  C   UNL     1       2.984   3.930  17.519  0.00  0.00    +0.000 A 
ATOM     18  C   UNL     1       4.253   4.267  17.038  0.00  0.00    +0.000 A 
BRANCH  17  19
ATOM     19  O   UNL     1       2.438   2.674  17.521  0.00  0.00    +0.000 OA
ATOM     20  C   UNL     1       1.460   2.400  18.518  0.00  0.00    +0.000 C 
ENDBRANCH  17  19
ENDBRANCH  11  13
ENDBRANCH   1  11
TORSDOF 5
ENDMDL
MODEL 2
REMARK VINA RESULT:      -7.1      2.169      6.686
REMARK  Name = 
REMARK  7 active torsions:
REMARK  status: ('A' for Active; 'I' for Inactive)
REMARK    1  A    between atoms: C_1  and  O_2
REMARK    2  A    between atoms: O_2  and  C_3
REMARK    3  A    between atoms: C_7  and  C_8
REMARK    4  A    between atoms: C_8  and  C_10
REMARK    5  A    between atoms: C_10  and  C_12
REMARK    6  A    between atoms: C_16  and  O_17
REMARK    7  A    between atoms: O_17  and  C_18
REMARK                            x       y       z     vdW  Elec       q    Type
REMARK                         _______ _______ _______ _____ _____    ______ ____
ROOT
ATOM      1  C   UNL     1       2.597   4.275  18.104  0.00  0.00    +0.000 C 
ATOM      2  O   UNL     1       1.733   3.613  17.536  0.00  0.00    +0.000 OA
ENDROOT
BRANCH   1   7
ATOM      3  C   UNL     1       2.124   8.047  18.210  0.00  0.00    +0.000 A 
ATOM      4  C   UNL     1       1.890   8.233  19.574  0.00  0.00    +0.000 A 
ATOM      5  C   UNL     1       1.862   7.143  20.443  0.00  0.00    +0.000 A 
ATOM      6  C   UNL     1       2.083   5.857  19.949  0.00  0.00    +0.000 A 
ATOM      7  C   UNL     1       2.323   5.657  18.583  0.00  0.00    +0.000 A 
ATOM      8  C   UNL     1       2.328   6.757  17.714  0.00  0.00    +0.000 A 
BRANCH   3  10
ATOM      9  C   UNL     1       1.878  10.415  18.160  0.00  0.00    +0.000 C 
ATOM     10  O   UNL     1       2.144   9.198  17.469  0.00  0.00    +0.000 OA
ENDBRANCH   3  10
ENDBRANCH   1   7
BRANCH   1  11
ATOM     11  C   UNL     1       3.950   3.637  18.347  0.00  0.00    +0.000 C 
ATOM     12  O   UNL     1       3.981   2.477  18.744  0.00  0.00    +0.000 OA
BRANCH  11  13
ATOM     13  C   UNL     1       5.203   4.397  18.085  0.00  0.00    +0.000 A 
ATOM     14  C   UNL     1       5.864   4.982  19.175  0.00  0.00    +0.000 A 
ATOM     15  C   UNL     1       7.026   5.726  18.974  0.00  0.00    +0.000 A 
ATOM     16  C   UNL     1       7.532   5.888  17.685  0.00  0.00    +0.000 A 
ATOM     17  C   UNL     1       6.889   5.301  16.593  0.00  0.00    +0.000 A 
ATOM     18  C   UNL     1       5.729   4.548  16.795  0.00  0.00    +0.000 A 
BRANCH  17  19
ATOM     19  O   UNL     1       7.483   5.545  15.384  0.00  0.00    +0.000 OA
ATOM     20  C   UNL     1       6.980   4.826  14.263  0.00  0.00    +0.000 C 
ENDBRANCH  17  19
ENDBRANCH  11  13
ENDBRANCH   1  11
TORSDOF 5
ENDMDL
MODEL 3
REMARK VINA RESULT:      -7.0      1.464      6.083
REMARK  Name = 
REMARK  7 active torsions:
REMARK  status: ('A' for Active; 'I' for Inactive)
REMARK    1  A    between atoms: C_1  and  O_2
REMARK    2  A    between atoms: O_2  and  C_3
REMARK    3  A    between atoms: C_7  and  C_8
REMARK    4  A    between atoms: C_8  and  C_10
REMARK    5  A    between atoms: C_10  and  C_12
REMARK    6  A    between atoms: C_16  and  O_17
REMARK    7  A    between atoms: O_17  and  C_18
REMARK                            x       y       z     vdW  Elec       q    Type
REMARK                         _______ _______ _______ _____ _____    ______ ____
ROOT
ATOM      1  C   UNL     1       6.366   6.179  16.648  0.00  0.00    +0.000 C 
ATOM      2  O   UNL     1       6.914   7.276  16.697  0.00  0.00    +0.000 OA
ENDROOT
BRANCH   1   7
ATOM      3  C   UNL     1       2.901   6.835  18.070  0.00  0.00    +0.000 A 
ATOM      4  C   UNL     1       2.383   5.538  18.082  0.00  0.00    +0.000 A 
ATOM      5  C   UNL     1       3.144   4.468  17.610  0.00  0.00    +0.000 A 
ATOM      6  C   UNL     1       4.436   4.692  17.136  0.00  0.00    +0.000 A 
ATOM      7  C   UNL     1       4.969   5.989  17.123  0.00  0.00    +0.000 A 
ATOM      8  C   UNL     1       4.188   7.061  17.579  0.00  0.00    +0.000 A 
BRANCH   3  10
ATOM      9  C   UNL     1       1.915   8.988  17.818  0.00  0.00    +0.000 C 
ATOM     10  O   UNL     1       2.062   7.792  18.576  0.00  0.00    +0.000 OA
ENDBRANCH   3  10
ENDBRANCH   1   7
BRANCH   1  11
ATOM     11  C   UNL     1       7.134   5.016  16.052  0.00  0.00    +0.000 C 
ATOM     12  O   UNL     1       7.805   4.317  16.806  0.00  0.00    +0.000 OA
BRANCH  11  13
ATOM     13  C   UNL     1       7.050   4.720  14.596  0.00  0.00    +0.000 A 
ATOM     14  C   UNL     1       7.866   5.454  13.723  0.00  0.00    +0.000 A 
ATOM     15  C   UNL     1       7.801   5.231  12.348  0.00  0.00    +0.000 A 
ATOM     16  C   UNL     1       6.923   4.274  11.840  0.00  0.00    +0.000 A 
ATOM     17  C   UNL     1       6.114   3.529  12.701  0.00  0.00    +0.000 A 
ATOM     18  C   UNL     1       6.185   3.746  14.080  0.00  0.00    +0.000 A 
BRANCH  17  19
ATOM     19  O   UNL     1       5.292   2.630  12.074  0.00  0.00    +0.000 OA
ATOM     20  C   UNL     1       5.921   1.614  11.302  0.00  0.00    +0.000 C 
ENDBRANCH  17  19
ENDBRANCH  11  13
ENDBRANCH   1  11
TORSDOF 5
ENDMDL
MODEL 4
REMARK VINA RESULT:      -7.0      2.678      4.916
REMARK  Name = 
REMARK  7 active torsions:
REMARK  status: ('A' for Active; 'I' for Inactive)
REMARK    1  A    between atoms: C_1  and  O_2
REMARK    2  A    between atoms: O_2  and  C_3
REMARK    3  A    between atoms: C_7  and  C_8
REMARK    4  A    between atoms: C_8  and  C_10
REMARK    5  A    between atoms: C_10  and  C_12
REMARK    6  A    between atoms: C_16  and  O_17
REMARK    7  A    between atoms: O_17  and  C_18
REMARK                            x       y       z     vdW  Elec       q    Type
REMARK                         _______ _______ _______ _____ _____    ______ ____
ROOT
ATOM      1  C   UNL     1       3.035   5.627  17.724  0.00  0.00    +0.000 C 
ATOM      2  O   UNL     1       2.686   6.766  18.019  0.00  0.00    +0.000 OA
ENDROOT
BRANCH   1   7
ATOM      3  C   UNL     1       6.667   6.001  16.660  0.00  0.00    +0.000 A 
ATOM      4  C   UNL     1       6.848   4.809  15.955  0.00  0.00    +0.000 A 
ATOM      5  C   UNL     1       5.808   3.886  15.848  0.00  0.00    +0.000 A 
ATOM      6  C   UNL     1       4.574   4.160  16.438  0.00  0.00    +0.000 A 
ATOM      7  C   UNL     1       4.379   5.354  17.146  0.00  0.00    +0.000 A 
ATOM      8  C   UNL     1       5.437   6.266  17.265  0.00  0.00    +0.000 A 
BRANCH   3  10
ATOM      9  C   UNL     1       7.726   7.922  17.587  0.00  0.00    +0.000 C 
ATOM     10  O   UNL     1       7.758   6.829  16.675  0.00  0.00    +0.000 OA
ENDBRANCH   3  10
ENDBRANCH   1   7
BRANCH   1  11
ATOM     11  C   UNL     1       2.078   4.485  18.000  0.00  0.00    +0.000 C 
ATOM     12  O   UNL     1       1.289   4.164  17.117  0.00  0.00    +0.000 OA
BRANCH  11  13
ATOM     13  C   UNL     1       2.118   3.760  19.300  0.00  0.00    +0.000 A 
ATOM     14  C   UNL     1       0.961   3.757  20.092  0.00  0.00    +0.000 A 
ATOM     15  C   UNL     1       0.959   3.115  21.330  0.00  0.00    +0.000 A 
ATOM     16  C   UNL     1       2.113   2.475  21.781  0.00  0.00    +0.000 A 
ATOM     17  C   UNL     1       3.268   2.463  20.996  0.00  0.00    +0.000 A 
ATOM     18  C   UNL     1       3.267   3.098  19.751  0.00  0.00    +0.000 A 
BRANCH  17  19
ATOM     19  O   UNL     1       4.332   1.808  21.558  0.00  0.00    +0.000 OA
ATOM     20  C   UNL     1       5.292   1.254  20.665  0.00  0.00    +0.000 C 
ENDBRANCH  17  19
ENDBRANCH  11  13
ENDBRANCH   1  11
TORSDOF 5
ENDMDL
MODEL 5
REMARK VINA RESULT:      -7.0      1.426      6.387
REMARK  Name = 
REMARK  7 active torsions:
REMARK  status: ('A' for Active; 'I' for Inactive)
REMARK    1  A    between atoms: C_1  and  O_2
REMARK    2  A    between atoms: O_2  and  C_3
REMARK    3  A    between atoms: C_7  and  C_8
REMARK    4  A    between atoms: C_8  and  C_10
REMARK    5  A    between atoms: C_10  and  C_12
REMARK    6  A    between atoms: C_16  and  O_17
REMARK    7  A    between atoms: O_17  and  C_18
REMARK                            x       y       z     vdW  Elec       q    Type
REMARK                         _______ _______ _______ _____ _____    ______ ____
ROOT
ATOM      1  C   UNL     1       4.958   5.424  16.570  0.00  0.00    +0.000 C 
ATOM      2  O   UNL     1       4.773   6.585  16.217  0.00  0.00    +0.000 OA
ENDROOT
BRANCH   1   7
ATOM      3  C   UNL     1       2.691   4.386  19.442  0.00  0.00    +0.000 A 
ATOM      4  C   UNL     1       2.131   3.221  18.912  0.00  0.00    +0.000 A 
ATOM      5  C   UNL     1       2.470   2.793  17.628  0.00  0.00    +0.000 A 
ATOM      6  C   UNL     1       3.383   3.526  16.872  0.00  0.00    +0.000 A 
ATOM      7  C   UNL     1       3.956   4.695  17.393  0.00  0.00    +0.000 A 
ATOM      8  C   UNL     1       3.593   5.128  18.677  0.00  0.00    +0.000 A 
BRANCH   3  10
ATOM      9  C   UNL     1       2.107   3.592  21.609  0.00  0.00    +0.000 C 
ATOM     10  O   UNL     1       2.292   4.686  20.717  0.00  0.00    +0.000 OA
ENDBRANCH   3  10
ENDBRANCH   1   7
BRANCH   1  11
ATOM     11  C   UNL     1       6.224   4.726  16.115  0.00  0.00    +0.000 C 
ATOM     12  O   UNL     1       7.011   4.335  16.971  0.00  0.00    +0.000 OA
BRANCH  11  13
ATOM     13  C   UNL     1       6.486   4.501  14.666  0.00  0.00    +0.000 A 
ATOM     14  C   UNL     1       7.509   5.239  14.056  0.00  0.00    +0.000 A 
ATOM     15  C   UNL     1       7.772   5.082  12.695  0.00  0.00    +0.000 A 
ATOM     16  C   UNL     1       7.014   4.187  11.941  0.00  0.00    +0.000 A 
ATOM     17  C   UNL     1       5.999   3.439  12.541  0.00  0.00    +0.000 A 
ATOM     18  C   UNL     1       5.741   3.590  13.906  0.00  0.00    +0.000 A 
BRANCH  17  19
ATOM     19  O   UNL     1       5.325   2.606  11.687  0.00  0.00    +0.000 OA
ATOM     20  C   UNL     1       4.081   3.074  11.178  0.00  0.00    +0.000 C 
ENDBRANCH  17  19
ENDBRANCH  11  13
ENDBRANCH   1  11
TORSDOF 5
ENDMDL
MODEL 6
REMARK VINA RESULT:      -7.0      2.780      5.144
REMARK  Name = 
REMARK  7 active torsions:
REMARK  status: ('A' for Active; 'I' for Inactive)
REMARK    1  A    between atoms: C_1  and  O_2
REMARK    2  A    between atoms: O_2  and  C_3
REMARK    3  A    between atoms: C_7  and  C_8
REMARK    4  A    between atoms: C_8  and  C_10
REMARK    5  A    between atoms: C_10  and  C_12
REMARK    6  A    between atoms: C_16  and  O_17
REMARK    7  A    between atoms: O_17  and  C_18
REMARK                            x       y       z     vdW  Elec       q    Type
REMARK                         _______ _______ _______ _____ _____    ______ ____
ROOT
ATOM      1  C   UNL     1       3.578   2.995  18.115  0.00  0.00    +0.000 C 
ATOM      2  O   UNL     1       3.616   1.803  18.408  0.00  0.00    +0.000 OA
ENDROOT
BRANCH   1   7
ATOM      3  C   UNL     1       6.786   5.033  17.992  0.00  0.00    +0.000 A 
ATOM      4  C   UNL     1       6.983   5.111  16.612  0.00  0.00    +0.000 A 
ATOM      5  C   UNL     1       6.096   4.487  15.734  0.00  0.00    +0.000 A 
ATOM      6  C   UNL     1       4.997   3.791  16.238  0.00  0.00    +0.000 A 
ATOM      7  C   UNL     1       4.786   3.710  17.621  0.00  0.00    +0.000 A 
ATOM      8  C   UNL     1       5.694   4.323  18.496  0.00  0.00    +0.000 A 
BRANCH   3  10
ATOM      9  C   UNL     1       7.989   7.052  18.377  0.00  0.00    +0.000 C 
ATOM     10  O   UNL     1       7.716   5.703  18.742  0.00  0.00    +0.000 OA
ENDBRANCH   3  10
ENDBRANCH   1   7
BRANCH   1  11
ATOM     11  C   UNL     1       2.254   3.723  18.229  0.00  0.00    +0.000 C 
ATOM     12  O   UNL     1       1.238   3.139  17.865  0.00  0.00    +0.000 OA
BRANCH  11  13
ATOM     13  C   UNL     1       2.193   5.101  18.791  0.00  0.00    +0.000 A 
ATOM     14  C   UNL     1       1.865   5.250  20.146  0.00  0.00    +0.000 A 
ATOM     15  C   UNL     1       1.770   6.522  20.709  0.00  0.00    +0.000 A 
ATOM     16  C   UNL     1       2.001   7.648  19.921  0.00  0.00    +0.000 A 
ATOM     17  C   UNL     1       2.339   7.512  18.573  0.00  0.00    +0.000 A 
ATOM     18  C   UNL     1       2.444   6.237  18.011  0.00  0.00    +0.000 A 
BRANCH  17  19
ATOM     19  O   UNL     1       2.531   8.696  17.912  0.00  0.00    +0.000 OA
ATOM     20  C   UNL     1       1.475   9.648  17.977  0.00  0.00    +0.000 C 
ENDBRANCH  17  19
ENDBRANCH  11  13
ENDBRANCH   1  11
TORSDOF 5
ENDMDL
MODEL 7
REMARK VINA RESULT:      -6.9      2.559      4.903
REMARK  Name = 
REMARK  7 active torsions:
REMARK  status: ('A' for Active; 'I' for Inactive)
REMARK    1  A    between atoms: C_1  and  O_2
REMARK    2  A    between atoms: O_2  and  C_3
REMARK    3  A    between atoms: C_7  and  C_8
REMARK    4  A    between atoms: C_8  and  C_10
REMARK    5  A    between atoms: C_10  and  C_12
REMARK    6  A    between atoms: C_16  and  O_17
REMARK    7  A    between atoms: O_17  and  C_18
REMARK                            x       y       z     vdW  Elec       q    Type
REMARK                         _______ _______ _______ _____ _____    ______ ____
ROOT
ATOM      1  C   UNL     1       4.455   3.855  18.844  0.00  0.00    +0.000 C 
ATOM      2  O   UNL     1       4.977   3.166  19.715  0.00  0.00    +0.000 OA
ENDROOT
BRANCH   1   7
ATOM      3  C   UNL     1       6.838   5.794  16.602  0.00  0.00    +0.000 A 
ATOM      4  C   UNL     1       6.566   5.197  15.369  0.00  0.00    +0.000 A 
ATOM      5  C   UNL     1       5.636   4.161  15.274  0.00  0.00    +0.000 A 
ATOM      6  C   UNL     1       4.964   3.726  16.415  0.00  0.00    +0.000 A 
ATOM      7  C   UNL     1       5.225   4.320  17.658  0.00  0.00    +0.000 A 
ATOM      8  C   UNL     1       6.176   5.346  17.747  0.00  0.00    +0.000 A 
BRANCH   3  10
ATOM      9  C   UNL     1       7.703   7.773  17.605  0.00  0.00    +0.000 C 
ATOM     10  O   UNL     1       7.755   6.809  16.557  0.00  0.00    +0.000 OA
ENDBRANCH   3  10
ENDBRANCH   1   7
BRANCH   1  11
ATOM     11  C   UNL     1       2.984   4.196  18.979  0.00  0.00    +0.000 C 
ATOM     12  O   UNL     1       2.173   3.276  18.960  0.00  0.00    +0.000 OA
BRANCH  11  13
ATOM     13  C   UNL     1       2.547   5.608  19.154  0.00  0.00    +0.000 A 
ATOM     14  C   UNL     1       2.708   6.491  18.077  0.00  0.00    +0.000 A 
ATOM     15  C   UNL     1       2.338   7.829  18.204  0.00  0.00    +0.000 A 
ATOM     16  C   UNL     1       1.805   8.290  19.408  0.00  0.00    +0.000 A 
ATOM     17  C   UNL     1       1.630   7.418  20.484  0.00  0.00    +0.000 A 
ATOM     18  C   UNL     1       1.992   6.074  20.354  0.00  0.00    +0.000 A 
BRANCH  17  19
ATOM     19  O   UNL     1       1.107   7.999  21.609  0.00  0.00    +0.000 OA
ATOM     20  C   UNL     1       1.244   9.411  21.726  0.00  0.00    +0.000 C 
ENDBRANCH  17  19
ENDBRANCH  11  13
ENDBRANCH   1  11
TORSDOF 5
ENDMDL
MODEL 8
REMARK VINA RESULT:      -6.9      3.036      6.955
REMARK  Name = 
REMARK  7 active torsions:
REMARK  status: ('A' for Active; 'I' for Inactive)
REMARK    1  A    between atoms: C_1  and  O_2
REMARK    2  A    between atoms: O_2  and  C_3
REMARK    3  A    between atoms: C_7  and  C_8
REMARK    4  A    between atoms: C_8  and  C_10
REMARK    5  A    between atoms: C_10  and  C_12
REMARK    6  A    between atoms: C_16  and  O_17
REMARK    7  A    between atoms: O_17  and  C_18
REMARK                            x       y       z     vdW  Elec       q    Type
REMARK                         _______ _______ _______ _____ _____    ______ ____
ROOT
ATOM      1  C   UNL     1       4.088   3.725  17.615  0.00  0.00    +0.000 C 
ATOM      2  O   UNL     1       4.013   2.508  17.471  0.00  0.00    +0.000 OA
ENDROOT
BRANCH   1   7
ATOM      3  C   UNL     1       2.339   6.466  19.587  0.00  0.00    +0.000 A 
ATOM      4  C   UNL     1       1.781   5.714  20.623  0.00  0.00    +0.000 A 
ATOM      5  C   UNL     1       1.952   4.330  20.666  0.00  0.00    +0.000 A 
ATOM      6  C   UNL     1       2.697   3.694  19.673  0.00  0.00    +0.000 A 
ATOM      7  C   UNL     1       3.265   4.437  18.630  0.00  0.00    +0.000 A 
ATOM      8  C   UNL     1       3.070   5.825  18.585  0.00  0.00    +0.000 A 
BRANCH   3  10
ATOM      9  C   UNL     1       1.375   8.276  20.798  0.00  0.00    +0.000 C 
ATOM     10  O   UNL     1       2.114   7.814  19.671  0.00  0.00    +0.000 OA
ENDBRANCH   3  10
ENDBRANCH   1   7
BRANCH   1  11
ATOM     11  C   UNL     1       5.076   4.492  16.759  0.00  0.00    +0.000 C 
ATOM     12  O   UNL     1       4.969   4.413  15.539  0.00  0.00    +0.000 OA
BRANCH  11  13
ATOM     13  C   UNL     1       6.128   5.337  17.388  0.00  0.00    +0.000 A 
ATOM     14  C   UNL     1       6.832   4.813  18.482  0.00  0.00    +0.000 A 
ATOM     15  C   UNL     1       7.807   5.578  19.121  0.00  0.00    +0.000 A 
ATOM     16  C   UNL     1       8.082   6.868  18.669  0.00  0.00    +0.000 A 
ATOM     17  C   UNL     1       7.395   7.397  17.575  0.00  0.00    +0.000 A 
ATOM     18  C   UNL     1       6.424   6.626  16.928  0.00  0.00    +0.000 A 
BRANCH  17  19
ATOM     19  O   UNL     1       7.754   8.675  17.240  0.00  0.00    +0.000 OA
ATOM     20  C   UNL     1       8.466   9.422  18.221  0.00  0.00    +0.000 C 
ENDBRANCH  17  19
ENDBRANCH  11  13
ENDBRANCH   1  11
TORSDOF 5
ENDMDL
MODEL 9
REMARK VINA RESULT:      -6.9      3.118      6.876
REMARK  Name = 
REMARK  7 active torsions:
REMARK  status: ('A' for Active; 'I' for Inactive)
REMARK    1  A    between atoms: C_1  and  O_2
REMARK    2  A    between atoms: O_2  and  C_3
REMARK    3  A    between atoms: C_7  and  C_8
REMARK    4  A    between atoms: C_8  and  C_10
REMARK    5  A    between atoms: C_10  and  C_12
REMARK    6  A    between atoms: C_16  and  O_17
REMARK    7  A    between atoms: O_17  and  C_18
REMARK                            x       y       z     vdW  Elec       q    Type
REMARK                         _______ _______ _______ _____ _____    ______ ____
ROOT
ATOM      1  C   UNL     1       3.006   4.045  19.113  0.00  0.00    +0.000 C 
ATOM      2  O   UNL     1       2.208   3.118  19.018  0.00  0.00    +0.000 OA
ENDROOT
BRANCH   1   7
ATOM      3  C   UNL     1       2.238   7.701  18.399  0.00  0.00    +0.000 A 
ATOM      4  C   UNL     1       1.742   8.102  19.641  0.00  0.00    +0.000 A 
ATOM      5  C   UNL     1       1.637   7.188  20.690  0.00  0.00    +0.000 A 
ATOM      6  C   UNL     1       2.042   5.867  20.501  0.00  0.00    +0.000 A 
ATOM      7  C   UNL     1       2.545   5.453  19.260  0.00  0.00    +0.000 A 
ATOM      8  C   UNL     1       2.627   6.374  18.206  0.00  0.00    +0.000 A 
BRANCH   3  10
ATOM      9  C   UNL     1       1.955  10.009  17.886  0.00  0.00    +0.000 C 
ATOM     10  O   UNL     1       2.307   8.696  17.461  0.00  0.00    +0.000 OA
ENDBRANCH   3  10
ENDBRANCH   1   7
BRANCH   1  11
ATOM     11  C   UNL     1       4.487   3.723  19.120  0.00  0.00    +0.000 C 
ATOM     12  O   UNL     1       4.872   2.782  19.807  0.00  0.00    +0.000 OA
BRANCH  11  13
ATOM     13  C   UNL     1       5.438   4.516  18.294  0.00  0.00    +0.000 A 
ATOM     14  C   UNL     1       5.472   4.279  16.912  0.00  0.00    +0.000 A 
ATOM     15  C   UNL     1       6.366   4.979  16.102  0.00  0.00    +0.000 A 
ATOM     16  C   UNL     1       7.229   5.916  16.669  0.00  0.00    +0.000 A 
ATOM     17  C   UNL     1       7.197   6.168  18.042  0.00  0.00    +0.000 A 
ATOM     18  C   UNL     1       6.294   5.474  18.853  0.00  0.00    +0.000 A 
BRANCH  17  19
ATOM     19  O   UNL     1       8.100   7.104  18.470  0.00  0.00    +0.000 OA
ATOM     20  C   UNL     1       8.059   8.376  17.834  0.00  0.00    +0.000 C 
ENDBRANCH  17  19
ENDBRANCH  11  13
ENDBRANCH   1  11
TORSDOF 5
ENDMDL
