MODEL 1
REMARK VINA RESULT:      -6.7      0.000      0.000
REMARK  Name = 
REMARK  13 active torsions:
REMARK  status: ('A' for Active; 'I' for Inactive)
REMARK    1  A    between atoms: C_1  and  C_2
REMARK    2  A    between atoms: C_2  and  C_3
REMARK    3  A    between atoms: C_2  and  C_4
REMARK    4  A    between atoms: C_2  and  O_5
REMARK    5  A    between atoms: O_5  and  C_6
REMARK    6  A    between atoms: N_8  and  C_9
REMARK    7  A    between atoms: C_9  and  C_10
REMARK    8  A    between atoms: C_10  and  C_11
REMARK    9  A    between atoms: C_11  and  C_12
REMARK   10  A    between atoms: C_12  and  C_13
REMARK   11  A    between atoms: C_13  and  C_14
REMARK   12  A    between atoms: N_16  and  C_17
REMARK   13  A    between atoms: C_17  and  C_18
REMARK                            x       y       z     vdW  Elec       q    Type
REMARK                         _______ _______ _______ _____ _____    ______ ____
ROOT
ATOM      1  C   UNL     1       7.762   4.987  17.883  0.00  0.00    +0.000 C 
ENDROOT
BRANCH   1   2
ATOM      2  C   UNL     1       6.376   4.339  17.808  0.00  0.00    +0.000 C 
BRANCH   2   3
ATOM      3  C   UNL     1       5.835   4.367  16.373  0.00  0.00    +0.000 C 
BRANCH   3   4
ATOM      4  C   UNL     1       4.339   4.053  16.320  0.00  0.00    +0.000 C 
BRANCH   4   7
ATOM      5  C   UNL     1       2.629   3.518  17.986  0.00  0.00    +0.000 C 
ATOM      6  O   UNL     1       1.820   4.281  17.472  0.00  0.00    +0.000 OA
ATOM      7  N   UNL     1       3.888   3.328  17.492  0.00  0.00    +0.000 N 
ATOM      8  H   UNL     1       4.475   2.652  17.958  0.00  0.00    +0.000 HD
BRANCH   5   9
ATOM      9  O   UNL     1       2.413   2.767  19.094  0.00  0.00    +0.000 OA
BRANCH   9  11
ATOM     10  C   UNL     1       2.728   4.850  20.374  0.00  0.00    +0.000 C 
ATOM     11  C   UNL     1       2.106   3.447  20.345  0.00  0.00    +0.000 C 
ATOM     12  C   UNL     1       2.532   2.599  21.553  0.00  0.00    +0.000 C 
ATOM     13  C   UNL     1       0.576   3.619  20.409  0.00  0.00    +0.000 C 
ENDBRANCH   9  11
ENDBRANCH   5   9
ENDBRANCH   4   7
ENDBRANCH   3   4
ENDBRANCH   2   3
ENDBRANCH   1   2
BRANCH   1  14
ATOM     14  C   UNL     1       7.776   6.226  18.779  0.00  0.00    +0.000 C 
BRANCH  14  15
ATOM     15  C   UNL     1       7.848   7.515  17.980  0.00  0.00    +0.000 C 
ATOM     16  O   UNL     1       7.419   7.593  16.833  0.00  0.00    +0.000 OA
ATOM     17  N   UNL     1       8.468   8.557  18.631  0.00  0.00    +0.000 N 
ATOM     18  H   UNL     1       8.749   8.444  19.595  0.00  0.00    +0.000 HD
BRANCH  17  19
ATOM     19  C   UNL     1       8.612   9.862  18.027  0.00  0.00    +0.000 C 
BRANCH  19  20
ATOM     20  C   UNL     1       9.552  10.741  18.798  0.00  0.00    +0.000 A 
ATOM     21  C   UNL     1      10.599  11.419  18.166  0.00  0.00    +0.000 A 
ATOM     22  C   UNL     1      11.462  12.213  18.915  0.00  0.00    +0.000 A 
ATOM     23  C   UNL     1      11.241  12.317  20.277  0.00  0.00    +0.000 A 
ATOM     24  N   UNL     1      10.232  11.695  20.924  0.00  0.00    +0.000 NA
ATOM     25  C   UNL     1       9.413  10.925  20.170  0.00  0.00    +0.000 A 
ENDBRANCH  19  20
ENDBRANCH  17  19
ENDBRANCH  14  15
ENDBRANCH   1  14
TORSDOF 10
ENDMDL
MODEL 2
REMARK VINA RESULT:      -6.6      1.716      2.309
REMARK  Name = 
REMARK  13 active torsions:
REMARK  status: ('A' for Active; 'I' for Inactive)
REMARK    1  A    between atoms: C_1  and  C_2
REMARK    2  A    between atoms: C_2  and  C_3
REMARK    3  A    between atoms: C_2  and  C_4
REMARK    4  A    between atoms: C_2  and  O_5
REMARK    5  A    between atoms: O_5  and  C_6
REMARK    6  A    between atoms: N_8  and  C_9
REMARK    7  A    between atoms: C_9  and  C_10
REMARK    8  A    between atoms: C_10  and  C_11
REMARK    9  A    between atoms: C_11  and  C_12
REMARK   10  A    between atoms: C_12  and  C_13
REMARK   11  A    between atoms: C_13  and  C_14
REMARK   12  A    between atoms: N_16  and  C_17
REMARK   13  A    between atoms: C_17  and  C_18
REMARK                            x       y       z     vdW  Elec       q    Type
REMARK                         _______ _______ _______ _____ _____    ______ ____
ROOT
ATOM      1  C   UNL     1       5.962   6.971  17.170  0.00  0.00    +0.000 C 
ENDROOT
BRANCH   1   2
ATOM      2  C   UNL     1       5.777   5.723  16.301  0.00  0.00    +0.000 C 
BRANCH   2   3
ATOM      3  C   UNL     1       6.581   4.542  16.859  0.00  0.00    +0.000 C 
BRANCH   3   4
ATOM      4  C   UNL     1       6.447   4.426  18.378  0.00  0.00    +0.000 C 
BRANCH   4   7
ATOM      5  C   UNL     1       4.233   4.289  19.408  0.00  0.00    +0.000 C 
ATOM      6  O   UNL     1       4.224   5.487  19.664  0.00  0.00    +0.000 OA
ATOM      7  N   UNL     1       5.272   3.673  18.771  0.00  0.00    +0.000 N 
ATOM      8  H   UNL     1       5.178   2.690  18.567  0.00  0.00    +0.000 HD
BRANCH   5   9
ATOM      9  O   UNL     1       3.246   3.409  19.708  0.00  0.00    +0.000 OA
BRANCH   9  11
ATOM     10  C   UNL     1       0.866   2.829  19.429  0.00  0.00    +0.000 C 
ATOM     11  C   UNL     1       2.183   3.199  18.733  0.00  0.00    +0.000 C 
ATOM     12  C   UNL     1       2.597   2.155  17.684  0.00  0.00    +0.000 C 
ATOM     13  C   UNL     1       1.961   4.536  18.002  0.00  0.00    +0.000 C 
ENDBRANCH   9  11
ENDBRANCH   5   9
ENDBRANCH   4   7
ENDBRANCH   3   4
ENDBRANCH   2   3
ENDBRANCH   1   2
BRANCH   1  14
ATOM     14  C   UNL     1       7.247   7.727  16.833  0.00  0.00    +0.000 C 
BRANCH  14  15
ATOM     15  C   UNL     1       8.075   8.035  18.068  0.00  0.00    +0.000 C 
ATOM     16  O   UNL     1       8.395   7.163  18.870  0.00  0.00    +0.000 OA
ATOM     17  N   UNL     1       8.391   9.365  18.226  0.00  0.00    +0.000 N 
ATOM     18  H   UNL     1       8.146  10.023  17.500  0.00  0.00    +0.000 HD
BRANCH  17  19
ATOM     19  C   UNL     1       9.186   9.838  19.336  0.00  0.00    +0.000 C 
BRANCH  19  20
ATOM     20  C   UNL     1       9.848  11.151  19.039  0.00  0.00    +0.000 A 
ATOM     21  C   UNL     1      10.804  11.697  19.900  0.00  0.00    +0.000 A 
ATOM     22  C   UNL     1      11.386  12.925  19.601  0.00  0.00    +0.000 A 
ATOM     23  C   UNL     1      11.002  13.566  18.435  0.00  0.00    +0.000 A 
ATOM     24  N   UNL     1      10.096  13.066  17.568  0.00  0.00    +0.000 NA
ATOM     25  C   UNL     1       9.543  11.873  17.889  0.00  0.00    +0.000 A 
ENDBRANCH  19  20
ENDBRANCH  17  19
ENDBRANCH  14  15
ENDBRANCH   1  14
TORSDOF 10
ENDMDL
MODEL 3
REMARK VINA RESULT:      -6.5      5.203      7.711
REMARK  Name = 
REMARK  13 active torsions:
REMARK  status: ('A' for Active; 'I' for Inactive)
REMARK    1  A    between atoms: C_1  and  C_2
REMARK    2  A    between atoms: C_2  and  C_3
REMARK    3  A    between atoms: C_2  and  C_4
REMARK    4  A    between atoms: C_2  and  O_5
REMARK    5  A    between atoms: O_5  and  C_6
REMARK    6  A    between atoms: N_8  and  C_9
REMARK    7  A    between atoms: C_9  and  C_10
REMARK    8  A    between atoms: C_10  and  C_11
REMARK    9  A    between atoms: C_11  and  C_12
REMARK   10  A    between atoms: C_12  and  C_13
REMARK   11  A    between atoms: C_13  and  C_14
REMARK   12  A    between atoms: N_16  and  C_17
REMARK   13  A    between atoms: C_17  and  C_18
REMARK                            x       y       z     vdW  Elec       q    Type
REMARK                         _______ _______ _______ _____ _____    ______ ____
ROOT
ATOM      1  C   UNL     1       3.521   7.033  18.146  0.00  0.00    +0.000 C 
ENDROOT
BRANCH   1   2
ATOM      2  C   UNL     1       4.633   6.539  17.216  0.00  0.00    +0.000 C 
BRANCH   2   3
ATOM      3  C   UNL     1       5.781   5.913  18.018  0.00  0.00    +0.000 C 
BRANCH   3   4
ATOM      4  C   UNL     1       5.811   4.389  17.878  0.00  0.00    +0.000 C 
BRANCH   4   7
ATOM      5  C   UNL     1       3.879   3.132  18.695  0.00  0.00    +0.000 C 
ATOM      6  O   UNL     1       3.362   3.110  17.584  0.00  0.00    +0.000 OA
ATOM      7  N   UNL     1       5.083   3.726  18.942  0.00  0.00    +0.000 N 
ATOM      8  H   UNL     1       5.451   3.664  19.879  0.00  0.00    +0.000 HD
BRANCH   5   9
ATOM      9  O   UNL     1       3.354   2.590  19.821  0.00  0.00    +0.000 OA
BRANCH   9  11
ATOM     10  C   UNL     1       2.245   4.697  20.458  0.00  0.00    +0.000 C 
ATOM     11  C   UNL     1       2.134   3.169  20.367  0.00  0.00    +0.000 C 
ATOM     12  C   UNL     1       1.778   2.532  21.719  0.00  0.00    +0.000 C 
ATOM     13  C   UNL     1       0.993   2.846  19.382  0.00  0.00    +0.000 C 
ENDBRANCH   9  11
ENDBRANCH   5   9
ENDBRANCH   4   7
ENDBRANCH   3   4
ENDBRANCH   2   3
ENDBRANCH   1   2
BRANCH   1  14
ATOM     14  C   UNL     1       2.584   8.024  17.456  0.00  0.00    +0.000 C 
BRANCH  14  15
ATOM     15  C   UNL     1       1.737   8.802  18.447  0.00  0.00    +0.000 C 
ATOM     16  O   UNL     1       1.673   8.491  19.632  0.00  0.00    +0.000 OA
ATOM     17  N   UNL     1       1.025   9.843  17.897  0.00  0.00    +0.000 N 
ATOM     18  H   UNL     1       1.166  10.083  16.925  0.00  0.00    +0.000 HD
BRANCH  17  19
ATOM     19  C   UNL     1       0.179  10.702  18.694  0.00  0.00    +0.000 C 
BRANCH  19  20
ATOM     20  C   UNL     1      -1.239  10.711  18.206  0.00  0.00    +0.000 A 
ATOM     21  C   UNL     1      -2.181  11.607  18.719  0.00  0.00    +0.000 A 
ATOM     22  C   UNL     1      -3.492  11.578  18.253  0.00  0.00    +0.000 A 
ATOM     23  C   UNL     1      -3.818  10.656  17.274  0.00  0.00    +0.000 A 
ATOM     24  N   UNL     1      -2.937   9.784  16.739  0.00  0.00    +0.000 NA
ATOM     25  C   UNL     1      -1.671   9.834  17.215  0.00  0.00    +0.000 A 
ENDBRANCH  19  20
ENDBRANCH  17  19
ENDBRANCH  14  15
ENDBRANCH   1  14
TORSDOF 10
ENDMDL
MODEL 4
REMARK VINA RESULT:      -6.5      3.896      7.324
REMARK  Name = 
REMARK  13 active torsions:
REMARK  status: ('A' for Active; 'I' for Inactive)
REMARK    1  A    between atoms: C_1  and  C_2
REMARK    2  A    between atoms: C_2  and  C_3
REMARK    3  A    between atoms: C_2  and  C_4
REMARK    4  A    between atoms: C_2  and  O_5
REMARK    5  A    between atoms: O_5  and  C_6
REMARK    6  A    between atoms: N_8  and  C_9
REMARK    7  A    between atoms: C_9  and  C_10
REMARK    8  A    between atoms: C_10  and  C_11
REMARK    9  A    between atoms: C_11  and  C_12
REMARK   10  A    between atoms: C_12  and  C_13
REMARK   11  A    between atoms: C_13  and  C_14
REMARK   12  A    between atoms: N_16  and  C_17
REMARK   13  A    between atoms: C_17  and  C_18
REMARK                            x       y       z     vdW  Elec       q    Type
REMARK                         _______ _______ _______ _____ _____    ______ ____
ROOT
ATOM      1  C   UNL     1       1.092   3.545  20.181  0.00  0.00    +0.000 C 
ENDROOT
BRANCH   1   2
ATOM      2  C   UNL     1       1.446   2.451  19.169  0.00  0.00    +0.000 C 
BRANCH   2   3
ATOM      3  C   UNL     1       2.961   2.383  18.941  0.00  0.00    +0.000 C 
BRANCH   3   4
ATOM      4  C   UNL     1       3.346   2.814  17.525  0.00  0.00    +0.000 C 
BRANCH   4   7
ATOM      5  C   UNL     1       5.108   4.254  16.629  0.00  0.00    +0.000 C 
ATOM      6  O   UNL     1       5.445   3.413  15.805  0.00  0.00    +0.000 OA
ATOM      7  N   UNL     1       4.085   4.062  17.512  0.00  0.00    +0.000 N 
ATOM      8  H   UNL     1       3.852   4.824  18.130  0.00  0.00    +0.000 HD
BRANCH   5   9
ATOM      9  O   UNL     1       5.682   5.472  16.794  0.00  0.00    +0.000 OA
BRANCH   9  11
ATOM     10  C   UNL     1       7.396   7.000  17.688  0.00  0.00    +0.000 C 
ATOM     11  C   UNL     1       6.756   5.608  17.769  0.00  0.00    +0.000 C 
ATOM     12  C   UNL     1       7.791   4.483  17.609  0.00  0.00    +0.000 C 
ATOM     13  C   UNL     1       6.125   5.469  19.168  0.00  0.00    +0.000 C 
ENDBRANCH   9  11
ENDBRANCH   5   9
ENDBRANCH   4   7
ENDBRANCH   3   4
ENDBRANCH   2   3
ENDBRANCH   1   2
BRANCH   1  14
ATOM     14  C   UNL     1       2.272   4.475  20.466  0.00  0.00    +0.000 C 
BRANCH  14  15
ATOM     15  C   UNL     1       2.134   5.813  19.760  0.00  0.00    +0.000 C 
ATOM     16  O   UNL     1       2.234   5.918  18.542  0.00  0.00    +0.000 OA
ATOM     17  N   UNL     1       1.934   6.884  20.601  0.00  0.00    +0.000 N 
ATOM     18  H   UNL     1       1.804   6.721  21.590  0.00  0.00    +0.000 HD
BRANCH  17  19
ATOM     19  C   UNL     1       1.765   8.229  20.103  0.00  0.00    +0.000 C 
BRANCH  19  20
ATOM     20  C   UNL     1       0.881   9.055  20.991  0.00  0.00    +0.000 A 
ATOM     21  C   UNL     1       0.815   8.826  22.369  0.00  0.00    +0.000 A 
ATOM     22  C   UNL     1      -0.027   9.601  23.160  0.00  0.00    +0.000 A 
ATOM     23  C   UNL     1      -0.771  10.594  22.548  0.00  0.00    +0.000 A 
ATOM     24  N   UNL     1      -0.725  10.859  21.224  0.00  0.00    +0.000 NA
ATOM     25  C   UNL     1       0.100  10.086  20.480  0.00  0.00    +0.000 A 
ENDBRANCH  19  20
ENDBRANCH  17  19
ENDBRANCH  14  15
ENDBRANCH   1  14
TORSDOF 10
ENDMDL
MODEL 5
REMARK VINA RESULT:      -6.5      5.463      7.821
REMARK  Name = 
REMARK  13 active torsions:
REMARK  status: ('A' for Active; 'I' for Inactive)
REMARK    1  A    between atoms: C_1  and  C_2
REMARK    2  A    between atoms: C_2  and  C_3
REMARK    3  A    between atoms: C_2  and  C_4
REMARK    4  A    between atoms: C_2  and  O_5
REMARK    5  A    between atoms: O_5  and  C_6
REMARK    6  A    between atoms: N_8  and  C_9
REMARK    7  A    between atoms: C_9  and  C_10
REMARK    8  A    between atoms: C_10  and  C_11
REMARK    9  A    between atoms: C_11  and  C_12
REMARK   10  A    between atoms: C_12  and  C_13
REMARK   11  A    between atoms: C_13  and  C_14
REMARK   12  A    between atoms: N_16  and  C_17
REMARK   13  A    between atoms: C_17  and  C_18
REMARK                            x       y       z     vdW  Elec       q    Type
REMARK                         _______ _______ _______ _____ _____    ______ ____
ROOT
ATOM      1  C   UNL     1       2.951   7.439  17.340  0.00  0.00    +0.000 C 
ENDROOT
BRANCH   1   2
ATOM      2  C   UNL     1       4.297   6.809  17.711  0.00  0.00    +0.000 C 
BRANCH   2   3
ATOM      3  C   UNL     1       4.813   5.910  16.581  0.00  0.00    +0.000 C 
BRANCH   3   4
ATOM      4  C   UNL     1       5.127   4.496  17.073  0.00  0.00    +0.000 C 
BRANCH   4   7
ATOM      5  C   UNL     1       3.899   3.085  18.649  0.00  0.00    +0.000 C 
ATOM      6  O   UNL     1       3.726   2.211  17.807  0.00  0.00    +0.000 OA
ATOM      7  N   UNL     1       4.581   4.239  18.392  0.00  0.00    +0.000 N 
ATOM      8  H   UNL     1       4.708   4.887  19.154  0.00  0.00    +0.000 HD
BRANCH   5   9
ATOM      9  O   UNL     1       3.453   3.048  19.929  0.00  0.00    +0.000 OA
BRANCH   9  11
ATOM     10  C   UNL     1       2.320   5.070  20.768  0.00  0.00    +0.000 C 
ATOM     11  C   UNL     1       2.157   3.642  20.230  0.00  0.00    +0.000 C 
ATOM     12  C   UNL     1       1.351   2.751  21.187  0.00  0.00    +0.000 C 
ATOM     13  C   UNL     1       1.376   3.734  18.905  0.00  0.00    +0.000 C 
ENDBRANCH   9  11
ENDBRANCH   5   9
ENDBRANCH   4   7
ENDBRANCH   3   4
ENDBRANCH   2   3
ENDBRANCH   1   2
BRANCH   1  14
ATOM     14  C   UNL     1       2.225   8.016  18.555  0.00  0.00    +0.000 C 
BRANCH  14  15
ATOM     15  C   UNL     1       1.696   9.416  18.298  0.00  0.00    +0.000 C 
ATOM     16  O   UNL     1       2.278  10.205  17.561  0.00  0.00    +0.000 OA
ATOM     17  N   UNL     1       0.550   9.729  18.991  0.00  0.00    +0.000 N 
ATOM     18  H   UNL     1       0.089   9.015  19.538  0.00  0.00    +0.000 HD
BRANCH  17  19
ATOM     19  C   UNL     1      -0.103  11.012  18.857  0.00  0.00    +0.000 C 
BRANCH  19  20
ATOM     20  C   UNL     1      -1.477  10.889  18.266  0.00  0.00    +0.000 A 
ATOM     21  C   UNL     1      -1.754   9.968  17.252  0.00  0.00    +0.000 A 
ATOM     22  C   UNL     1      -3.036   9.891  16.717  0.00  0.00    +0.000 A 
ATOM     23  C   UNL     1      -4.009  10.734  17.225  0.00  0.00    +0.000 A 
ATOM     24  N   UNL     1      -3.788  11.626  18.215  0.00  0.00    +0.000 NA
ATOM     25  C   UNL     1      -2.531  11.680  18.712  0.00  0.00    +0.000 A 
ENDBRANCH  19  20
ENDBRANCH  17  19
ENDBRANCH  14  15
ENDBRANCH   1  14
TORSDOF 10
ENDMDL
MODEL 6
REMARK VINA RESULT:      -6.4      2.506      9.966
REMARK  Name = 
REMARK  13 active torsions:
REMARK  status: ('A' for Active; 'I' for Inactive)
REMARK    1  A    between atoms: C_1  and  C_2
REMARK    2  A    between atoms: C_2  and  C_3
REMARK    3  A    between atoms: C_2  and  C_4
REMARK    4  A    between atoms: C_2  and  O_5
REMARK    5  A    between atoms: O_5  and  C_6
REMARK    6  A    between atoms: N_8  and  C_9
REMARK    7  A    between atoms: C_9  and  C_10
REMARK    8  A    between atoms: C_10  and  C_11
REMARK    9  A    between atoms: C_11  and  C_12
REMARK   10  A    between atoms: C_12  and  C_13
REMARK   11  A    between atoms: C_13  and  C_14
REMARK   12  A    between atoms: N_16  and  C_17
REMARK   13  A    between atoms: C_17  and  C_18
REMARK                            x       y       z     vdW  Elec       q    Type
REMARK                         _______ _______ _______ _____ _____    ______ ____
ROOT
ATOM      1  C   UNL     1       7.327   6.543  18.473  0.00  0.00    +0.000 C 
ENDROOT
BRANCH   1   2
ATOM      2  C   UNL     1       7.894   7.426  17.357  0.00  0.00    +0.000 C 
BRANCH   2   3
ATOM      3  C   UNL     1       7.746   8.912  17.706  0.00  0.00    +0.000 C 
BRANCH   3   4
ATOM      4  C   UNL     1       8.772   9.360  18.749  0.00  0.00    +0.000 C 
BRANCH   4   7
ATOM      5  C   UNL     1      10.144  11.335  19.196  0.00  0.00    +0.000 C 
ATOM      6  O   UNL     1      10.059  11.180  20.408  0.00  0.00    +0.000 OA
ATOM      7  N   UNL     1       9.557  10.492  18.296  0.00  0.00    +0.000 N 
ATOM      8  H   UNL     1       9.711  10.674  17.316  0.00  0.00    +0.000 HD
BRANCH   5   9
ATOM      9  O   UNL     1      10.811  12.337  18.572  0.00  0.00    +0.000 OA
BRANCH   9  11
ATOM     10  C   UNL     1      10.701  14.420  19.887  0.00  0.00    +0.000 C 
ATOM     11  C   UNL     1      10.248  13.681  18.620  0.00  0.00    +0.000 C 
ATOM     12  C   UNL     1       8.718  13.643  18.487  0.00  0.00    +0.000 C 
ATOM     13  C   UNL     1      10.806  14.454  17.410  0.00  0.00    +0.000 C 
ENDBRANCH   9  11
ENDBRANCH   5   9
ENDBRANCH   4   7
ENDBRANCH   3   4
ENDBRANCH   2   3
ENDBRANCH   1   2
BRANCH   1  14
ATOM     14  C   UNL     1       7.071   5.110  18.005  0.00  0.00    +0.000 C 
BRANCH  14  15
ATOM     15  C   UNL     1       5.593   4.824  17.805  0.00  0.00    +0.000 C 
ATOM     16  O   UNL     1       4.793   5.710  17.521  0.00  0.00    +0.000 OA
ATOM     17  N   UNL     1       5.232   3.513  18.010  0.00  0.00    +0.000 N 
ATOM     18  H   UNL     1       5.948   2.822  18.186  0.00  0.00    +0.000 HD
BRANCH  17  19
ATOM     19  C   UNL     1       3.871   3.056  17.848  0.00  0.00    +0.000 C 
BRANCH  19  20
ATOM     20  C   UNL     1       3.113   3.063  19.143  0.00  0.00    +0.000 A 
ATOM     21  C   UNL     1       1.816   3.577  19.226  0.00  0.00    +0.000 A 
ATOM     22  C   UNL     1       1.149   3.581  20.447  0.00  0.00    +0.000 A 
ATOM     23  C   UNL     1       1.798   3.055  21.550  0.00  0.00    +0.000 A 
ATOM     24  N   UNL     1       3.043   2.532  21.510  0.00  0.00    +0.000 NA
ATOM     25  C   UNL     1       3.668   2.547  20.310  0.00  0.00    +0.000 A 
ENDBRANCH  19  20
ENDBRANCH  17  19
ENDBRANCH  14  15
ENDBRANCH   1  14
TORSDOF 10
ENDMDL
MODEL 7
REMARK VINA RESULT:      -6.4      5.021      7.435
REMARK  Name = 
REMARK  13 active torsions:
REMARK  status: ('A' for Active; 'I' for Inactive)
REMARK    1  A    between atoms: C_1  and  C_2
REMARK    2  A    between atoms: C_2  and  C_3
REMARK    3  A    between atoms: C_2  and  C_4
REMARK    4  A    between atoms: C_2  and  O_5
REMARK    5  A    between atoms: O_5  and  C_6
REMARK    6  A    between atoms: N_8  and  C_9
REMARK    7  A    between atoms: C_9  and  C_10
REMARK    8  A    between atoms: C_10  and  C_11
REMARK    9  A    between atoms: C_11  and  C_12
REMARK   10  A    between atoms: C_12  and  C_13
REMARK   11  A    between atoms: C_13  and  C_14
REMARK   12  A    between atoms: N_16  and  C_17
REMARK   13  A    between atoms: C_17  and  C_18
REMARK                            x       y       z     vdW  Elec       q    Type
REMARK                         _______ _______ _______ _____ _____    ______ ____
ROOT
ATOM      1  C   UNL     1       3.851   7.544  17.594  0.00  0.00    +0.000 C 
ENDROOT
BRANCH   1   2
ATOM      2  C   UNL     1       4.556   6.390  16.875  0.00  0.00    +0.000 C 
BRANCH   2   3
ATOM      3  C   UNL     1       5.632   5.761  17.771  0.00  0.00    +0.000 C 
BRANCH   3   4
ATOM      4  C   UNL     1       5.644   4.235  17.665  0.00  0.00    +0.000 C 
BRANCH   4   7
ATOM      5  C   UNL     1       3.659   3.197  18.648  0.00  0.00    +0.000 C 
ATOM      6  O   UNL     1       3.019   3.326  17.612  0.00  0.00    +0.000 OA
ATOM      7  N   UNL     1       4.957   3.602  18.774  0.00  0.00    +0.000 N 
ATOM      8  H   UNL     1       5.419   3.424  19.652  0.00  0.00    +0.000 HD
BRANCH   5   9
ATOM      9  O   UNL     1       3.197   2.653  19.800  0.00  0.00    +0.000 OA
BRANCH   9  11
ATOM     10  C   UNL     1       1.690   2.539  21.747  0.00  0.00    +0.000 C 
ATOM     11  C   UNL     1       2.013   3.235  20.418  0.00  0.00    +0.000 C 
ATOM     12  C   UNL     1       0.821   3.219  19.450  0.00  0.00    +0.000 C 
ATOM     13  C   UNL     1       2.340   4.707  20.735  0.00  0.00    +0.000 C 
ENDBRANCH   9  11
ENDBRANCH   5   9
ENDBRANCH   4   7
ENDBRANCH   3   4
ENDBRANCH   2   3
ENDBRANCH   1   2
BRANCH   1  14
ATOM     14  C   UNL     1       2.489   7.134  18.153  0.00  0.00    +0.000 C 
BRANCH  14  15
ATOM     15  C   UNL     1       1.850   8.235  18.981  0.00  0.00    +0.000 C 
ATOM     16  O   UNL     1       1.797   8.181  20.205  0.00  0.00    +0.000 OA
ATOM     17  N   UNL     1       1.305   9.261  18.242  0.00  0.00    +0.000 N 
ATOM     18  H   UNL     1       1.432   9.273  17.240  0.00  0.00    +0.000 HD
BRANCH  17  19
ATOM     19  C   UNL     1       0.671  10.401  18.863  0.00  0.00    +0.000 C 
BRANCH  19  20
ATOM     20  C   UNL     1      -0.751  10.573  18.414  0.00  0.00    +0.000 A 
ATOM     21  C   UNL     1      -1.296   9.777  17.402  0.00  0.00    +0.000 A 
ATOM     22  C   UNL     1      -2.613   9.974  16.999  0.00  0.00    +0.000 A 
ATOM     23  C   UNL     1      -3.352  10.958  17.634  0.00  0.00    +0.000 A 
ATOM     24  N   UNL     1      -2.870  11.736  18.627  0.00  0.00    +0.000 NA
ATOM     25  C   UNL     1      -1.584  11.524  18.993  0.00  0.00    +0.000 A 
ENDBRANCH  19  20
ENDBRANCH  17  19
ENDBRANCH  14  15
ENDBRANCH   1  14
TORSDOF 10
ENDMDL
MODEL 8
REMARK VINA RESULT:      -6.3      5.058      6.917
REMARK  Name = 
REMARK  13 active torsions:
REMARK  status: ('A' for Active; 'I' for Inactive)
REMARK    1  A    between atoms: C_1  and  C_2
REMARK    2  A    between atoms: C_2  and  C_3
REMARK    3  A    between atoms: C_2  and  C_4
REMARK    4  A    between atoms: C_2  and  O_5
REMARK    5  A    between atoms: O_5  and  C_6
REMARK    6  A    between atoms: N_8  and  C_9
REMARK    7  A    between atoms: C_9  and  C_10
REMARK    8  A    between atoms: C_10  and  C_11
REMARK    9  A    between atoms: C_11  and  C_12
REMARK   10  A    between atoms: C_12  and  C_13
REMARK   11  A    between atoms: C_13  and  C_14
REMARK   12  A    between atoms: N_16  and  C_17
REMARK   13  A    between atoms: C_17  and  C_18
REMARK                            x       y       z     vdW  Elec       q    Type
REMARK                         _______ _______ _______ _____ _____    ______ ____
ROOT
ATOM      1  C   UNL     1       2.948   2.114  19.552  0.00  0.00    +0.000 C 
ENDROOT
BRANCH   1   2
ATOM      2  C   UNL     1       1.459   2.460  19.458  0.00  0.00    +0.000 C 
BRANCH   2   3
ATOM      3  C   UNL     1       1.027   3.350  20.630  0.00  0.00    +0.000 C 
BRANCH   3   4
ATOM      4  C   UNL     1       2.226   3.986  21.336  0.00  0.00    +0.000 C 
BRANCH   4   7
ATOM      5  C   UNL     1       2.205   6.265  20.449  0.00  0.00    +0.000 C 
ATOM      6  O   UNL     1       1.146   6.525  21.008  0.00  0.00    +0.000 OA
ATOM      7  N   UNL     1       2.822   5.052  20.555  0.00  0.00    +0.000 N 
ATOM      8  H   UNL     1       3.710   4.938  20.091  0.00  0.00    +0.000 HD
BRANCH   5   9
ATOM      9  O   UNL     1       2.910   7.112  19.659  0.00  0.00    +0.000 OA
BRANCH   9  11
ATOM     10  C   UNL     1       1.926   5.791  17.825  0.00  0.00    +0.000 C 
ATOM     11  C   UNL     1       2.695   7.060  18.219  0.00  0.00    +0.000 C 
ATOM     12  C   UNL     1       4.023   7.193  17.458  0.00  0.00    +0.000 C 
ATOM     13  C   UNL     1       1.816   8.268  17.844  0.00  0.00    +0.000 C 
ENDBRANCH   9  11
ENDBRANCH   5   9
ENDBRANCH   4   7
ENDBRANCH   3   4
ENDBRANCH   2   3
ENDBRANCH   1   2
BRANCH   1  14
ATOM     14  C   UNL     1       3.627   2.095  18.183  0.00  0.00    +0.000 C 
BRANCH  14  15
ATOM     15  C   UNL     1       4.563   3.275  17.987  0.00  0.00    +0.000 C 
ATOM     16  O   UNL     1       4.936   3.971  18.926  0.00  0.00    +0.000 OA
ATOM     17  N   UNL     1       4.914   3.515  16.678  0.00  0.00    +0.000 N 
ATOM     18  H   UNL     1       4.619   2.870  15.959  0.00  0.00    +0.000 HD
BRANCH  17  19
ATOM     19  C   UNL     1       5.810   4.586  16.308  0.00  0.00    +0.000 C 
BRANCH  19  20
ATOM     20  C   UNL     1       6.251   4.486  14.877  0.00  0.00    +0.000 A 
ATOM     21  C   UNL     1       5.582   3.665  13.965  0.00  0.00    +0.000 A 
ATOM     22  C   UNL     1       6.028   3.584  12.649  0.00  0.00    +0.000 A 
ATOM     23  C   UNL     1       7.126   4.343  12.282  0.00  0.00    +0.000 A 
ATOM     24  N   UNL     1       7.790   5.161  13.126  0.00  0.00    +0.000 NA
ATOM     25  C   UNL     1       7.336   5.215  14.400  0.00  0.00    +0.000 A 
ENDBRANCH  19  20
ENDBRANCH  17  19
ENDBRANCH  14  15
ENDBRANCH   1  14
TORSDOF 10
ENDMDL
MODEL 9
REMARK VINA RESULT:      -6.3      6.052      8.937
REMARK  Name = 
REMARK  13 active torsions:
REMARK  status: ('A' for Active; 'I' for Inactive)
REMARK    1  A    between atoms: C_1  and  C_2
REMARK    2  A    between atoms: C_2  and  C_3
REMARK    3  A    between atoms: C_2  and  C_4
REMARK    4  A    between atoms: C_2  and  O_5
REMARK    5  A    between atoms: O_5  and  C_6
REMARK    6  A    between atoms: N_8  and  C_9
REMARK    7  A    between atoms: C_9  and  C_10
REMARK    8  A    between atoms: C_10  and  C_11
REMARK    9  A    between atoms: C_11  and  C_12
REMARK   10  A    between atoms: C_12  and  C_13
REMARK   11  A    between atoms: C_13  and  C_14
REMARK   12  A    between atoms: N_16  and  C_17
REMARK   13  A    between atoms: C_17  and  C_18
REMARK                            x       y       z     vdW  Elec       q    Type
REMARK                         _______ _______ _______ _____ _____    ______ ____
ROOT
ATOM      1  C   UNL     1       2.568   7.796  18.700  0.00  0.00    +0.000 C 
ENDROOT
BRANCH   1   2
ATOM      2  C   UNL     1       2.188   6.317  18.573  0.00  0.00    +0.000 C 
BRANCH   2   3
ATOM      3  C   UNL     1       2.404   5.580  19.901  0.00  0.00    +0.000 C 
BRANCH   3   4
ATOM      4  C   UNL     1       2.707   4.096  19.688  0.00  0.00    +0.000 C 
BRANCH   4   7
ATOM      5  C   UNL     1       4.649   3.822  18.226  0.00  0.00    +0.000 C 
ATOM      6  O   UNL     1       5.432   4.007  19.150  0.00  0.00    +0.000 OA
ATOM      7  N   UNL     1       3.293   3.836  18.388  0.00  0.00    +0.000 N 
ATOM      8  H   UNL     1       2.724   3.637  17.579  0.00  0.00    +0.000 HD
BRANCH   5   9
ATOM      9  O   UNL     1       4.991   3.584  16.936  0.00  0.00    +0.000 OA
BRANCH   9  11
ATOM     10  C   UNL     1       5.592   4.414  14.694  0.00  0.00    +0.000 C 
ATOM     11  C   UNL     1       5.723   4.614  16.210  0.00  0.00    +0.000 C 
ATOM     12  C   UNL     1       7.190   4.671  16.663  0.00  0.00    +0.000 C 
ATOM     13  C   UNL     1       5.073   5.967  16.556  0.00  0.00    +0.000 C 
ENDBRANCH   9  11
ENDBRANCH   5   9
ENDBRANCH   4   7
ENDBRANCH   3   4
ENDBRANCH   2   3
ENDBRANCH   1   2
BRANCH   1  14
ATOM     14  C   UNL     1       1.710   8.694  17.809  0.00  0.00    +0.000 C 
BRANCH  14  15
ATOM     15  C   UNL     1       0.879   9.679  18.612  0.00  0.00    +0.000 C 
ATOM     16  O   UNL     1       0.982   9.773  19.831  0.00  0.00    +0.000 OA
ATOM     17  N   UNL     1      -0.015  10.412  17.868  0.00  0.00    +0.000 N 
ATOM     18  H   UNL     1      -0.010  10.329  16.861  0.00  0.00    +0.000 HD
BRANCH  17  19
ATOM     19  C   UNL     1      -0.876  11.409  18.464  0.00  0.00    +0.000 C 
BRANCH  19  20
ATOM     20  C   UNL     1      -2.259  11.383  17.883  0.00  0.00    +0.000 A 
ATOM     21  C   UNL     1      -2.496  10.922  16.585  0.00  0.00    +0.000 A 
ATOM     22  C   UNL     1      -3.789  10.926  16.073  0.00  0.00    +0.000 A 
ATOM     23  C   UNL     1      -4.814  11.383  16.885  0.00  0.00    +0.000 A 
ATOM     24  N   UNL     1      -4.631  11.820  18.149  0.00  0.00    +0.000 NA
ATOM     25  C   UNL     1      -3.361  11.808  18.618  0.00  0.00    +0.000 A 
ENDBRANCH  19  20
ENDBRANCH  17  19
ENDBRANCH  14  15
ENDBRANCH   1  14
TORSDOF 10
ENDMDL
