MODEL 1
REMARK VINA RESULT:      -6.6      0.000      0.000
REMARK  Name = 
REMARK  13 active torsions:
REMARK  status: ('A' for Active; 'I' for Inactive)
REMARK    1  A    between atoms: C_1  and  C_2
REMARK    2  A    between atoms: C_2  and  C_3
REMARK    3  A    between atoms: C_2  and  O_4
REMARK    4  A    between atoms: O_4  and  C_5
REMARK    5  A    between atoms: C_7  and  C_8
REMARK    6  A    between atoms: C_8  and  N_9
REMARK    7  A    between atoms: N_9  and  C_10
REMARK    8  A    between atoms: N_9  and  C_11
REMARK    9  A    between atoms: C_13  and  O_14
REMARK   10  A    between atoms: O_14  and  C_15
REMARK   11  A    between atoms: C_15  and  C_16
REMARK   12  A    between atoms: C_15  and  C_17
REMARK   13  A    between atoms: C_18  and  O_19
REMARK                            x       y       z     vdW  Elec       q    Type
REMARK                         _______ _______ _______ _____ _____    ______ ____
ROOT
ATOM      1  C   UNL     1       6.744   5.486  16.064  0.00  0.00    +0.000 A 
ATOM      2  C   UNL     1       5.667   4.945  16.794  0.00  0.00    +0.000 A 
ATOM      3  C   UNL     1       4.799   4.014  16.209  0.00  0.00    +0.000 A 
ATOM      4  C   UNL     1       5.036   3.580  14.902  0.00  0.00    +0.000 A 
ATOM      5  C   UNL     1       6.116   4.074  14.155  0.00  0.00    +0.000 A 
ATOM      6  C   UNL     1       6.942   5.075  14.727  0.00  0.00    +0.000 A 
ENDROOT
BRANCH   6   7
ATOM      7  O   UNL     1       7.950   5.631  14.019  0.00  0.00    +0.000 OA
ATOM      8  H   UNL     1       8.503   6.341  14.370  0.00  0.00    +0.000 HD
ENDBRANCH   6   7
BRANCH   1   9
ATOM      9  O   UNL     1       7.618   6.380  16.614  0.00  0.00    +0.000 OA
BRANCH   9  11
ATOM     10  C   UNL     1       8.086   6.316  18.967  0.00  0.00    +0.000 C 
ATOM     11  C   UNL     1       7.437   7.081  17.802  0.00  0.00    +0.000 C 
ATOM     12  C   UNL     1       8.084   8.465  17.691  0.00  0.00    +0.000 C 
ENDBRANCH   9  11
ENDBRANCH   1   9
BRANCH   3  13
ATOM     13  C   UNL     1       3.603   3.485  16.962  0.00  0.00    +0.000 C 
BRANCH  13  14
ATOM     14  N   UNL     1       3.589   3.944  18.368  0.00  0.00    +0.000 NA
ATOM     15  C   UNL     1       2.370   4.711  18.691  0.00  0.00    +0.000 C 
ATOM     16  C   UNL     1       3.682   2.782  19.269  0.00  0.00    +0.000 C 
ENDBRANCH  13  14
ENDBRANCH   3  13
BRANCH   5  17
ATOM     17  O   UNL     1       6.410   3.576  12.916  0.00  0.00    +0.000 OA
BRANCH  17  18
ATOM     18  C   UNL     1       5.614   2.661  12.221  0.00  0.00    +0.000 C 
ATOM     19  C   UNL     1       4.510   3.373  11.440  0.00  0.00    +0.000 C 
ATOM     20  C   UNL     1       6.488   1.832  11.280  0.00  0.00    +0.000 C 
ENDBRANCH  17  18
ENDBRANCH   5  17
TORSDOF 7
ENDMDL
MODEL 2
REMARK VINA RESULT:      -6.3      0.802      1.118
REMARK  Name = 
REMARK  13 active torsions:
REMARK  status: ('A' for Active; 'I' for Inactive)
REMARK    1  A    between atoms: C_1  and  C_2
REMARK    2  A    between atoms: C_2  and  C_3
REMARK    3  A    between atoms: C_2  and  O_4
REMARK    4  A    between atoms: O_4  and  C_5
REMARK    5  A    between atoms: C_7  and  C_8
REMARK    6  A    between atoms: C_8  and  N_9
REMARK    7  A    between atoms: N_9  and  C_10
REMARK    8  A    between atoms: N_9  and  C_11
REMARK    9  A    between atoms: C_13  and  O_14
REMARK   10  A    between atoms: O_14  and  C_15
REMARK   11  A    between atoms: C_15  and  C_16
REMARK   12  A    between atoms: C_15  and  C_17
REMARK   13  A    between atoms: C_18  and  O_19
REMARK                            x       y       z     vdW  Elec       q    Type
REMARK                         _______ _______ _______ _____ _____    ______ ____
ROOT
ATOM      1  C   UNL     1       6.491   5.859  16.278  0.00  0.00    +0.000 A 
ATOM      2  C   UNL     1       5.380   5.480  17.057  0.00  0.00    +0.000 A 
ATOM      3  C   UNL     1       4.565   4.409  16.670  0.00  0.00    +0.000 A 
ATOM      4  C   UNL     1       4.888   3.677  15.524  0.00  0.00    +0.000 A 
ATOM      5  C   UNL     1       6.004   4.007  14.740  0.00  0.00    +0.000 A 
ATOM      6  C   UNL     1       6.777   5.142  15.096  0.00  0.00    +0.000 A 
ENDROOT
BRANCH   6   7
ATOM      7  O   UNL     1       7.818   5.539  14.330  0.00  0.00    +0.000 OA
ATOM      8  H   UNL     1       7.709   6.119  13.564  0.00  0.00    +0.000 HD
ENDBRANCH   6   7
BRANCH   1   9
ATOM      9  O   UNL     1       7.315   6.887  16.641  0.00  0.00    +0.000 OA
BRANCH   9  11
ATOM     10  C   UNL     1       8.122   6.521  18.871  0.00  0.00    +0.000 C 
ATOM     11  C   UNL     1       7.397   7.468  17.902  0.00  0.00    +0.000 C 
ATOM     12  C   UNL     1       8.174   8.786  17.816  0.00  0.00    +0.000 C 
ENDBRANCH   9  11
ENDBRANCH   1   9
BRANCH   3  13
ATOM     13  C   UNL     1       3.333   4.042  17.462  0.00  0.00    +0.000 C 
BRANCH  13  14
ATOM     14  N   UNL     1       3.661   3.205  18.636  0.00  0.00    +0.000 NA
ATOM     15  C   UNL     1       2.971   3.665  19.857  0.00  0.00    +0.000 C 
ATOM     16  C   UNL     1       3.287   1.806  18.368  0.00  0.00    +0.000 C 
ENDBRANCH  13  14
ENDBRANCH   3  13
BRANCH   5  17
ATOM     17  O   UNL     1       6.382   3.232  13.680  0.00  0.00    +0.000 OA
BRANCH  17  18
ATOM     18  C   UNL     1       6.202   3.582  12.339  0.00  0.00    +0.000 C 
ATOM     19  C   UNL     1       7.168   2.816  11.435  0.00  0.00    +0.000 C 
ATOM     20  C   UNL     1       4.754   3.313  11.928  0.00  0.00    +0.000 C 
ENDBRANCH  17  18
ENDBRANCH   5  17
TORSDOF 7
ENDMDL
MODEL 3
REMARK VINA RESULT:      -6.3      1.029      5.134
REMARK  Name = 
REMARK  13 active torsions:
REMARK  status: ('A' for Active; 'I' for Inactive)
REMARK    1  A    between atoms: C_1  and  C_2
REMARK    2  A    between atoms: C_2  and  C_3
REMARK    3  A    between atoms: C_2  and  O_4
REMARK    4  A    between atoms: O_4  and  C_5
REMARK    5  A    between atoms: C_7  and  C_8
REMARK    6  A    between atoms: C_8  and  N_9
REMARK    7  A    between atoms: N_9  and  C_10
REMARK    8  A    between atoms: N_9  and  C_11
REMARK    9  A    between atoms: C_13  and  O_14
REMARK   10  A    between atoms: O_14  and  C_15
REMARK   11  A    between atoms: C_15  and  C_16
REMARK   12  A    between atoms: C_15  and  C_17
REMARK   13  A    between atoms: C_18  and  O_19
REMARK                            x       y       z     vdW  Elec       q    Type
REMARK                         _______ _______ _______ _____ _____    ______ ____
ROOT
ATOM      1  C   UNL     1       5.841   4.153  14.987  0.00  0.00    +0.000 A 
ATOM      2  C   UNL     1       4.695   3.912  15.770  0.00  0.00    +0.000 A 
ATOM      3  C   UNL     1       4.414   4.705  16.892  0.00  0.00    +0.000 A 
ATOM      4  C   UNL     1       5.254   5.777  17.204  0.00  0.00    +0.000 A 
ATOM      5  C   UNL     1       6.386   6.065  16.428  0.00  0.00    +0.000 A 
ATOM      6  C   UNL     1       6.707   5.210  15.343  0.00  0.00    +0.000 A 
ENDROOT
BRANCH   6   7
ATOM      7  O   UNL     1       7.827   5.407  14.613  0.00  0.00    +0.000 OA
ATOM      8  H   UNL     1       8.169   4.746  13.996  0.00  0.00    +0.000 HD
ENDBRANCH   6   7
BRANCH   1   9
ATOM      9  O   UNL     1       6.130   3.410  13.877  0.00  0.00    +0.000 OA
BRANCH   9  11
ATOM     10  C   UNL     1       7.155   3.355  11.708  0.00  0.00    +0.000 C 
ATOM     11  C   UNL     1       5.954   3.805  12.555  0.00  0.00    +0.000 C 
ATOM     12  C   UNL     1       4.679   3.171  11.990  0.00  0.00    +0.000 C 
ENDBRANCH   9  11
ENDBRANCH   1   9
BRANCH   3  13
ATOM     13  C   UNL     1       3.228   4.408  17.776  0.00  0.00    +0.000 C 
BRANCH  13  14
ATOM     14  N   UNL     1       3.109   2.964  18.074  0.00  0.00    +0.000 NA
ATOM     15  C   UNL     1       3.903   2.572  19.255  0.00  0.00    +0.000 C 
ATOM     16  C   UNL     1       1.696   2.620  18.307  0.00  0.00    +0.000 C 
ENDBRANCH  13  14
ENDBRANCH   3  13
BRANCH   5  17
ATOM     17  O   UNL     1       7.150   7.173  16.669  0.00  0.00    +0.000 OA
BRANCH  17  18
ATOM     18  C   UNL     1       7.415   7.691  17.940  0.00  0.00    +0.000 C 
ATOM     19  C   UNL     1       8.172   6.679  18.801  0.00  0.00    +0.000 C 
ATOM     20  C   UNL     1       8.214   8.988  17.809  0.00  0.00    +0.000 C 
ENDBRANCH  17  18
ENDBRANCH   5  17
TORSDOF 7
ENDMDL
MODEL 4
REMARK VINA RESULT:      -6.3      0.490      5.149
REMARK  Name = 
REMARK  13 active torsions:
REMARK  status: ('A' for Active; 'I' for Inactive)
REMARK    1  A    between atoms: C_1  and  C_2
REMARK    2  A    between atoms: C_2  and  C_3
REMARK    3  A    between atoms: C_2  and  O_4
REMARK    4  A    between atoms: O_4  and  C_5
REMARK    5  A    between atoms: C_7  and  C_8
REMARK    6  A    between atoms: C_8  and  N_9
REMARK    7  A    between atoms: N_9  and  C_10
REMARK    8  A    between atoms: N_9  and  C_11
REMARK    9  A    between atoms: C_13  and  O_14
REMARK   10  A    between atoms: O_14  and  C_15
REMARK   11  A    between atoms: C_15  and  C_16
REMARK   12  A    between atoms: C_15  and  C_17
REMARK   13  A    between atoms: C_18  and  O_19
REMARK                            x       y       z     vdW  Elec       q    Type
REMARK                         _______ _______ _______ _____ _____    ______ ____
ROOT
ATOM      1  C   UNL     1       5.804   4.248  14.332  0.00  0.00    +0.000 A 
ATOM      2  C   UNL     1       4.819   3.657  15.148  0.00  0.00    +0.000 A 
ATOM      3  C   UNL     1       4.854   3.813  16.540  0.00  0.00    +0.000 A 
ATOM      4  C   UNL     1       5.849   4.606  17.119  0.00  0.00    +0.000 A 
ATOM      5  C   UNL     1       6.827   5.234  16.334  0.00  0.00    +0.000 A 
ATOM      6  C   UNL     1       6.831   5.006  14.934  0.00  0.00    +0.000 A 
ENDROOT
BRANCH   6   7
ATOM      7  O   UNL     1       7.797   5.533  14.149  0.00  0.00    +0.000 OA
ATOM      8  H   UNL     1       7.601   5.994  13.322  0.00  0.00    +0.000 HD
ENDBRANCH   6   7
BRANCH   1   9
ATOM      9  O   UNL     1       5.784   4.130  12.971  0.00  0.00    +0.000 OA
BRANCH   9  11
ATOM     10  C   UNL     1       4.451   3.137  11.240  0.00  0.00    +0.000 C 
ATOM     11  C   UNL     1       5.595   2.955  12.250  0.00  0.00    +0.000 C 
ATOM     12  C   UNL     1       6.878   2.599  11.493  0.00  0.00    +0.000 C 
ENDBRANCH   9  11
ENDBRANCH   1   9
BRANCH   3  13
ATOM     13  C   UNL     1       3.844   3.125  17.426  0.00  0.00    +0.000 C 
BRANCH  13  14
ATOM     14  N   UNL     1       3.867   3.658  18.806  0.00  0.00    +0.000 NA
ATOM     15  C   UNL     1       2.638   4.405  19.133  0.00  0.00    +0.000 C 
ATOM     16  C   UNL     1       4.028   2.549  19.763  0.00  0.00    +0.000 C 
ENDBRANCH  13  14
ENDBRANCH   3  13
BRANCH   5  17
ATOM     17  O   UNL     1       7.737   6.092  16.886  0.00  0.00    +0.000 OA
BRANCH  17  18
ATOM     18  C   UNL     1       7.507   6.864  18.027  0.00  0.00    +0.000 C 
ATOM     19  C   UNL     1       8.125   6.216  19.266  0.00  0.00    +0.000 C 
ATOM     20  C   UNL     1       8.071   8.270  17.819  0.00  0.00    +0.000 C 
ENDBRANCH  17  18
ENDBRANCH   5  17
TORSDOF 7
ENDMDL
MODEL 5
REMARK VINA RESULT:      -6.2      3.784      6.195
REMARK  Name = 
REMARK  13 active torsions:
REMARK  status: ('A' for Active; 'I' for Inactive)
REMARK    1  A    between atoms: C_1  and  C_2
REMARK    2  A    between atoms: C_2  and  C_3
REMARK    3  A    between atoms: C_2  and  O_4
REMARK    4  A    between atoms: O_4  and  C_5
REMARK    5  A    between atoms: C_7  and  C_8
REMARK    6  A    between atoms: C_8  and  N_9
REMARK    7  A    between atoms: N_9  and  C_10
REMARK    8  A    between atoms: N_9  and  C_11
REMARK    9  A    between atoms: C_13  and  O_14
REMARK   10  A    between atoms: O_14  and  C_15
REMARK   11  A    between atoms: C_15  and  C_16
REMARK   12  A    between atoms: C_15  and  C_17
REMARK   13  A    between atoms: C_18  and  O_19
REMARK                            x       y       z     vdW  Elec       q    Type
REMARK                         _______ _______ _______ _____ _____    ______ ____
ROOT
ATOM      1  C   UNL     1       3.319   3.620  18.718  0.00  0.00    +0.000 A 
ATOM      2  C   UNL     1       2.596   4.712  18.197  0.00  0.00    +0.000 A 
ATOM      3  C   UNL     1       3.167   5.991  18.145  0.00  0.00    +0.000 A 
ATOM      4  C   UNL     1       4.486   6.173  18.570  0.00  0.00    +0.000 A 
ATOM      5  C   UNL     1       5.246   5.103  19.066  0.00  0.00    +0.000 A 
ATOM      6  C   UNL     1       4.634   3.829  19.189  0.00  0.00    +0.000 A 
ENDROOT
BRANCH   6   7
ATOM      7  O   UNL     1       5.304   2.787  19.728  0.00  0.00    +0.000 OA
ATOM      8  H   UNL     1       6.252   2.652  19.594  0.00  0.00    +0.000 HD
ENDBRANCH   6   7
BRANCH   1   9
ATOM      9  O   UNL     1       2.796   2.359  18.762  0.00  0.00    +0.000 OA
BRANCH   9  11
ATOM     10  C   UNL     1       1.729   2.577  20.900  0.00  0.00    +0.000 C 
ATOM     11  C   UNL     1       1.685   1.955  19.495  0.00  0.00    +0.000 C 
ATOM     12  C   UNL     1       0.404   2.409  18.789  0.00  0.00    +0.000 C 
ENDBRANCH   9  11
ENDBRANCH   1   9
BRANCH   3  13
ATOM     13  C   UNL     1       2.375   7.178  17.655  0.00  0.00    +0.000 C 
BRANCH  13  14
ATOM     14  N   UNL     1       2.468   8.325  18.584  0.00  0.00    +0.000 NA
ATOM     15  C   UNL     1       1.892   9.555  18.007  0.00  0.00    +0.000 C 
ATOM     16  C   UNL     1       1.766   8.005  19.839  0.00  0.00    +0.000 C 
ENDBRANCH  13  14
ENDBRANCH   3  13
BRANCH   5  17
ATOM     17  O   UNL     1       6.566   5.256  19.385  0.00  0.00    +0.000 OA
BRANCH  17  18
ATOM     18  C   UNL     1       7.594   5.403  18.450  0.00  0.00    +0.000 C 
ATOM     19  C   UNL     1       7.286   4.632  17.166  0.00  0.00    +0.000 C 
ATOM     20  C   UNL     1       7.804   6.887  18.147  0.00  0.00    +0.000 C 
ENDBRANCH  17  18
ENDBRANCH   5  17
TORSDOF 7
ENDMDL
MODEL 6
REMARK VINA RESULT:      -6.1      1.197      5.068
REMARK  Name = 
REMARK  13 active torsions:
REMARK  status: ('A' for Active; 'I' for Inactive)
REMARK    1  A    between atoms: C_1  and  C_2
REMARK    2  A    between atoms: C_2  and  C_3
REMARK    3  A    between atoms: C_2  and  O_4
REMARK    4  A    between atoms: O_4  and  C_5
REMARK    5  A    between atoms: C_7  and  C_8
REMARK    6  A    between atoms: C_8  and  N_9
REMARK    7  A    between atoms: N_9  and  C_10
REMARK    8  A    between atoms: N_9  and  C_11
REMARK    9  A    between atoms: C_13  and  O_14
REMARK   10  A    between atoms: O_14  and  C_15
REMARK   11  A    between atoms: C_15  and  C_16
REMARK   12  A    between atoms: C_15  and  C_17
REMARK   13  A    between atoms: C_18  and  O_19
REMARK                            x       y       z     vdW  Elec       q    Type
REMARK                         _______ _______ _______ _____ _____    ______ ____
ROOT
ATOM      1  C   UNL     1       5.896   4.048  15.291  0.00  0.00    +0.000 A 
ATOM      2  C   UNL     1       4.936   3.533  16.184  0.00  0.00    +0.000 A 
ATOM      3  C   UNL     1       4.616   4.217  17.364  0.00  0.00    +0.000 A 
ATOM      4  C   UNL     1       5.221   5.449  17.632  0.00  0.00    +0.000 A 
ATOM      5  C   UNL     1       6.159   6.005  16.750  0.00  0.00    +0.000 A 
ATOM      6  C   UNL     1       6.536   5.268  15.598  0.00  0.00    +0.000 A 
ENDROOT
BRANCH   6   7
ATOM      7  O   UNL     1       7.488   5.733  14.759  0.00  0.00    +0.000 OA
ATOM      8  H   UNL     1       8.257   6.230  15.068  0.00  0.00    +0.000 HD
ENDBRANCH   6   7
BRANCH   1   9
ATOM      9  O   UNL     1       6.214   3.413  14.123  0.00  0.00    +0.000 OA
BRANCH   9  11
ATOM     10  C   UNL     1       7.180   3.607  11.935  0.00  0.00    +0.000 C 
ATOM     11  C   UNL     1       5.968   3.885  12.838  0.00  0.00    +0.000 C 
ATOM     12  C   UNL     1       4.738   3.183  12.254  0.00  0.00    +0.000 C 
ENDBRANCH   9  11
ENDBRANCH   1   9
BRANCH   3  13
ATOM     13  C   UNL     1       3.641   3.638  18.360  0.00  0.00    +0.000 C 
BRANCH  13  14
ATOM     14  N   UNL     1       2.344   3.303  17.731  0.00  0.00    +0.000 NA
ATOM     15  C   UNL     1       1.626   2.245  18.468  0.00  0.00    +0.000 C 
ATOM     16  C   UNL     1       1.498   4.507  17.668  0.00  0.00    +0.000 C 
ENDBRANCH  13  14
ENDBRANCH   3  13
BRANCH   5  17
ATOM     17  O   UNL     1       6.675   7.254  16.957  0.00  0.00    +0.000 OA
BRANCH  17  18
ATOM     18  C   UNL     1       7.907   7.512  17.562  0.00  0.00    +0.000 C 
ATOM     19  C   UNL     1       8.044   8.991  17.925  0.00  0.00    +0.000 C 
ATOM     20  C   UNL     1       8.062   6.638  18.806  0.00  0.00    +0.000 C 
ENDBRANCH  17  18
ENDBRANCH   5  17
TORSDOF 7
ENDMDL
MODEL 7
REMARK VINA RESULT:      -6.0      4.035      6.915
REMARK  Name = 
REMARK  13 active torsions:
REMARK  status: ('A' for Active; 'I' for Inactive)
REMARK    1  A    between atoms: C_1  and  C_2
REMARK    2  A    between atoms: C_2  and  C_3
REMARK    3  A    between atoms: C_2  and  O_4
REMARK    4  A    between atoms: O_4  and  C_5
REMARK    5  A    between atoms: C_7  and  C_8
REMARK    6  A    between atoms: C_8  and  N_9
REMARK    7  A    between atoms: N_9  and  C_10
REMARK    8  A    between atoms: N_9  and  C_11
REMARK    9  A    between atoms: C_13  and  O_14
REMARK   10  A    between atoms: O_14  and  C_15
REMARK   11  A    between atoms: C_15  and  C_16
REMARK   12  A    between atoms: C_15  and  C_17
REMARK   13  A    between atoms: C_18  and  O_19
REMARK                            x       y       z     vdW  Elec       q    Type
REMARK                         _______ _______ _______ _____ _____    ______ ____
ROOT
ATOM      1  C   UNL     1       2.428   7.669  18.863  0.00  0.00    +0.000 A 
ATOM      2  C   UNL     1       3.258   7.491  17.739  0.00  0.00    +0.000 A 
ATOM      3  C   UNL     1       4.039   6.336  17.601  0.00  0.00    +0.000 A 
ATOM      4  C   UNL     1       3.953   5.327  18.565  0.00  0.00    +0.000 A 
ATOM      5  C   UNL     1       3.114   5.458  19.681  0.00  0.00    +0.000 A 
ATOM      6  C   UNL     1       2.388   6.664  19.854  0.00  0.00    +0.000 A 
ENDROOT
BRANCH   6   7
ATOM      7  O   UNL     1       1.623   6.863  20.950  0.00  0.00    +0.000 OA
ATOM      8  H   UNL     1       1.105   7.668  21.085  0.00  0.00    +0.000 HD
ENDBRANCH   6   7
BRANCH   1   9
ATOM      9  O   UNL     1       1.640   8.776  19.014  0.00  0.00    +0.000 OA
BRANCH   9  11
ATOM     10  C   UNL     1      -0.237   9.945  18.084  0.00  0.00    +0.000 C 
ATOM     11  C   UNL     1       1.273   9.666  18.011  0.00  0.00    +0.000 C 
ATOM     12  C   UNL     1       2.033  10.985  18.184  0.00  0.00    +0.000 C 
ENDBRANCH   9  11
ENDBRANCH   1   9
BRANCH   3  13
ATOM     13  C   UNL     1       4.984   6.170  16.436  0.00  0.00    +0.000 C 
BRANCH  13  14
ATOM     14  N   UNL     1       6.278   5.587  16.854  0.00  0.00    +0.000 NA
ATOM     15  C   UNL     1       6.905   4.796  15.777  0.00  0.00    +0.000 C 
ATOM     16  C   UNL     1       7.198   6.663  17.262  0.00  0.00    +0.000 C 
ENDBRANCH  13  14
ENDBRANCH   3  13
BRANCH   5  17
ATOM     17  O   UNL     1       2.949   4.433  20.570  0.00  0.00    +0.000 OA
BRANCH  17  18
ATOM     18  C   UNL     1       2.225   3.267  20.309  0.00  0.00    +0.000 C 
ATOM     19  C   UNL     1       1.677   2.657  21.600  0.00  0.00    +0.000 C 
ATOM     20  C   UNL     1       1.086   3.577  19.337  0.00  0.00    +0.000 C 
ENDBRANCH  17  18
ENDBRANCH   5  17
TORSDOF 7
ENDMDL
MODEL 8
REMARK VINA RESULT:      -5.9      3.913      6.533
REMARK  Name = 
REMARK  13 active torsions:
REMARK  status: ('A' for Active; 'I' for Inactive)
REMARK    1  A    between atoms: C_1  and  C_2
REMARK    2  A    between atoms: C_2  and  C_3
REMARK    3  A    between atoms: C_2  and  O_4
REMARK    4  A    between atoms: O_4  and  C_5
REMARK    5  A    between atoms: C_7  and  C_8
REMARK    6  A    between atoms: C_8  and  N_9
REMARK    7  A    between atoms: N_9  and  C_10
REMARK    8  A    between atoms: N_9  and  C_11
REMARK    9  A    between atoms: C_13  and  O_14
REMARK   10  A    between atoms: O_14  and  C_15
REMARK   11  A    between atoms: C_15  and  C_16
REMARK   12  A    between atoms: C_15  and  C_17
REMARK   13  A    between atoms: C_18  and  O_19
REMARK                            x       y       z     vdW  Elec       q    Type
REMARK                         _______ _______ _______ _____ _____    ______ ____
ROOT
ATOM      1  C   UNL     1       2.646   5.877  19.732  0.00  0.00    +0.000 A 
ATOM      2  C   UNL     1       1.995   7.044  19.285  0.00  0.00    +0.000 A 
ATOM      3  C   UNL     1       2.549   7.827  18.263  0.00  0.00    +0.000 A 
ATOM      4  C   UNL     1       3.735   7.416  17.647  0.00  0.00    +0.000 A 
ATOM      5  C   UNL     1       4.394   6.244  18.046  0.00  0.00    +0.000 A 
ATOM      6  C   UNL     1       3.868   5.501  19.134  0.00  0.00    +0.000 A 
ENDROOT
BRANCH   6   7
ATOM      7  O   UNL     1       4.509   4.405  19.599  0.00  0.00    +0.000 OA
ATOM      8  H   UNL     1       4.048   3.579  19.800  0.00  0.00    +0.000 HD
ENDBRANCH   6   7
BRANCH   1   9
ATOM      9  O   UNL     1       2.119   5.084  20.712  0.00  0.00    +0.000 OA
BRANCH   9  11
ATOM     10  C   UNL     1       1.137   3.623  19.082  0.00  0.00    +0.000 C 
ATOM     11  C   UNL     1       1.148   4.103  20.542  0.00  0.00    +0.000 C 
ATOM     12  C   UNL     1       1.450   2.911  21.457  0.00  0.00    +0.000 C 
ENDBRANCH   9  11
ENDBRANCH   1   9
BRANCH   3  13
ATOM     13  C   UNL     1       1.895   9.115  17.828  0.00  0.00    +0.000 C 
BRANCH  13  14
ATOM     14  N   UNL     1       0.811   9.523  18.749  0.00  0.00    +0.000 NA
ATOM     15  C   UNL     1       1.182  10.700  19.558  0.00  0.00    +0.000 C 
ATOM     16  C   UNL     1      -0.406   9.830  17.978  0.00  0.00    +0.000 C 
ENDBRANCH  13  14
ENDBRANCH   3  13
BRANCH   5  17
ATOM     17  O   UNL     1       5.495   5.785  17.379  0.00  0.00    +0.000 OA
BRANCH  17  18
ATOM     18  C   UNL     1       6.800   5.840  17.873  0.00  0.00    +0.000 C 
ATOM     19  C   UNL     1       7.607   4.617  17.435  0.00  0.00    +0.000 C 
ATOM     20  C   UNL     1       7.476   7.126  17.399  0.00  0.00    +0.000 C 
ENDBRANCH  17  18
ENDBRANCH   5  17
TORSDOF 7
ENDMDL
MODEL 9
REMARK VINA RESULT:      -5.9      0.987      5.153
REMARK  Name = 
REMARK  13 active torsions:
REMARK  status: ('A' for Active; 'I' for Inactive)
REMARK    1  A    between atoms: C_1  and  C_2
REMARK    2  A    between atoms: C_2  and  C_3
REMARK    3  A    between atoms: C_2  and  O_4
REMARK    4  A    between atoms: O_4  and  C_5
REMARK    5  A    between atoms: C_7  and  C_8
REMARK    6  A    between atoms: C_8  and  N_9
REMARK    7  A    between atoms: N_9  and  C_10
REMARK    8  A    between atoms: N_9  and  C_11
REMARK    9  A    between atoms: C_13  and  O_14
REMARK   10  A    between atoms: O_14  and  C_15
REMARK   11  A    between atoms: C_15  and  C_16
REMARK   12  A    between atoms: C_15  and  C_17
REMARK   13  A    between atoms: C_18  and  O_19
REMARK                            x       y       z     vdW  Elec       q    Type
REMARK                         _______ _______ _______ _____ _____    ______ ____
ROOT
ATOM      1  C   UNL     1       6.167   3.962  14.908  0.00  0.00    +0.000 A 
ATOM      2  C   UNL     1       5.148   3.543  15.785  0.00  0.00    +0.000 A 
ATOM      3  C   UNL     1       4.911   4.223  16.987  0.00  0.00    +0.000 A 
ATOM      4  C   UNL     1       5.664   5.361  17.293  0.00  0.00    +0.000 A 
ATOM      5  C   UNL     1       6.666   5.825  16.429  0.00  0.00    +0.000 A 
ATOM      6  C   UNL     1       6.952   5.084  15.253  0.00  0.00    +0.000 A 
ENDROOT
BRANCH   6   7
ATOM      7  O   UNL     1       7.957   5.454  14.428  0.00  0.00    +0.000 OA
ATOM      8  H   UNL     1       7.801   5.899  13.585  0.00  0.00    +0.000 HD
ENDBRANCH   6   7
BRANCH   1   9
ATOM      9  O   UNL     1       6.407   3.331  13.720  0.00  0.00    +0.000 OA
BRANCH   9  11
ATOM     10  C   UNL     1       7.167   4.150  11.597  0.00  0.00    +0.000 C 
ATOM     11  C   UNL     1       5.967   3.743  12.467  0.00  0.00    +0.000 C 
ATOM     12  C   UNL     1       5.217   2.599  11.778  0.00  0.00    +0.000 C 
ENDBRANCH   9  11
ENDBRANCH   1   9
BRANCH   3  13
ATOM     13  C   UNL     1       3.869   3.737  17.964  0.00  0.00    +0.000 C 
BRANCH  13  14
ATOM     14  N   UNL     1       2.514   4.213  17.608  0.00  0.00    +0.000 NA
ATOM     15  C   UNL     1       1.458   3.338  18.151  0.00  0.00    +0.000 C 
ATOM     16  C   UNL     1       2.319   5.581  18.119  0.00  0.00    +0.000 C 
ENDBRANCH  13  14
ENDBRANCH   3  13
BRANCH   5  17
ATOM     17  O   UNL     1       7.331   6.993  16.675  0.00  0.00    +0.000 OA
BRANCH  17  18
ATOM     18  C   UNL     1       7.456   7.583  17.935  0.00  0.00    +0.000 C 
ATOM     19  C   UNL     1       8.220   6.673  18.897  0.00  0.00    +0.000 C 
ATOM     20  C   UNL     1       8.161   8.934  17.802  0.00  0.00    +0.000 C 
ENDBRANCH  17  18
ENDBRANCH   5  17
TORSDOF 7
ENDMDL
