MODEL 1
REMARK VINA RESULT:      -8.7      0.000      0.000
REMARK  Name = 
REMARK  9 active torsions:
REMARK  status: ('A' for Active; 'I' for Inactive)
REMARK    1  A    between atoms: C_1  and  C_2
REMARK    2  A    between atoms: C_5  and  S_6
REMARK    3  A    between atoms: S_6  and  C_9
REMARK    4  A    between atoms: C_11  and  C_12
REMARK    5  A    between atoms: C_20  and  S_21
REMARK    6  A    between atoms: S_21  and  C_22
REMARK    7  A    between atoms: C_22  and  C_23
REMARK    8  A    between atoms: N_25  and  C_26
REMARK    9  A    between atoms: C_26  and  C_27
REMARK                            x       y       z     vdW  Elec       q    Type
REMARK                         _______ _______ _______ _____ _____    ______ ____
ROOT
ATOM      1  C   UNL     1       4.690   4.045  17.595  0.00  0.00    +0.000 A 
ATOM      2  N   UNL     1       4.650   3.728  16.247  0.00  0.00    +0.000 NA
ATOM      3  C   UNL     1       5.752   4.251  15.771  0.00  0.00    +0.000 A 
ATOM      4  O   UNL     1       6.541   4.839  16.706  0.00  0.00    +0.000 OA
ATOM      5  C   UNL     1       5.847   4.746  17.890  0.00  0.00    +0.000 A 
ENDROOT
BRANCH   3   6
ATOM      6  C   UNL     1       6.220   4.257  14.394  0.00  0.00    +0.000 A 
ATOM      7  C   UNL     1       7.301   5.086  14.049  0.00  0.00    +0.000 A 
ATOM      8  C   UNL     1       7.746   5.154  12.735  0.00  0.00    +0.000 A 
ATOM      9  C   UNL     1       7.117   4.390  11.761  0.00  0.00    +0.000 A 
ATOM     10  F   UNL     1       7.524   4.476  10.489  0.00  0.00    +0.000 F 
ATOM     11  C   UNL     1       6.067   3.542  12.086  0.00  0.00    +0.000 A 
ATOM     12  C   UNL     1       5.621   3.469  13.405  0.00  0.00    +0.000 A 
ENDBRANCH   3   6
BRANCH   1  13
ATOM     13  S   UNL     1       3.403   3.549  18.636  0.00  0.00    +0.000 S 
ATOM     14  O   UNL     1       4.040   2.893  19.761  0.00  0.00    +0.000 OA
ATOM     15  O   UNL     1       2.456   2.877  17.767  0.00  0.00    +0.000 OA
BRANCH  13  20
ATOM     16  C   UNL     1       1.216   8.826  20.762  0.00  0.00    +0.000 C 
ATOM     17  C   UNL     1       1.688   7.511  20.208  0.00  0.00    +0.000 A 
ATOM     18  C   UNL     1       1.548   6.328  20.948  0.00  0.00    +0.000 A 
ATOM     19  C   UNL     1       2.035   5.115  20.450  0.00  0.00    +0.000 A 
ATOM     20  C   UNL     1       2.675   5.080  19.206  0.00  0.00    +0.000 A 
ATOM     21  C   UNL     1       2.786   6.244  18.440  0.00  0.00    +0.000 A 
ATOM     22  C   UNL     1       2.296   7.456  18.945  0.00  0.00    +0.000 A 
ENDBRANCH  13  20
ENDBRANCH   1  13
BRANCH   5  23
ATOM     23  S   UNL     1       6.454   5.500  19.335  0.00  0.00    +0.000 S 
BRANCH  23  24
ATOM     24  C   UNL     1       8.057   6.188  18.811  0.00  0.00    +0.000 C 
BRANCH  24  25
ATOM     25  C   UNL     1       8.029   7.614  18.264  0.00  0.00    +0.000 C 
ATOM     26  O   UNL     1       7.358   7.983  17.306  0.00  0.00    +0.000 OA
ATOM     27  N   UNL     1       8.835   8.485  18.987  0.00  0.00    +0.000 N 
ATOM     28  H   UNL     1       9.139   8.216  19.917  0.00  0.00    +0.000 HD
BRANCH  27  29
ATOM     29  C   UNL     1       8.913   9.912  18.701  0.00  0.00    +0.000 C 
BRANCH  29  30
ATOM     30  C   UNL     1       9.778  10.672  19.716  0.00  0.00    +0.000 C 
ATOM     31  C   UNL     1       9.122  11.892  20.334  0.00  0.00    +0.000 C 
ATOM     32  C   UNL     1      10.314  12.648  20.860  0.00  0.00    +0.000 C 
ATOM     33  C   UNL     1      11.370  12.370  19.809  0.00  0.00    +0.000 C 
ATOM     34  O   UNL     1      10.985  11.172  19.109  0.00  0.00    +0.000 OA
ENDBRANCH  29  30
ENDBRANCH  27  29
ENDBRANCH  24  25
ENDBRANCH  23  24
ENDBRANCH   5  23
TORSDOF 8
ENDMDL
MODEL 2
REMARK VINA RESULT:      -8.5      0.664      1.167
REMARK  Name = 
REMARK  9 active torsions:
REMARK  status: ('A' for Active; 'I' for Inactive)
REMARK    1  A    between atoms: C_1  and  C_2
REMARK    2  A    between atoms: C_5  and  S_6
REMARK    3  A    between atoms: S_6  and  C_9
REMARK    4  A    between atoms: C_11  and  C_12
REMARK    5  A    between atoms: C_20  and  S_21
REMARK    6  A    between atoms: S_21  and  C_22
REMARK    7  A    between atoms: C_22  and  C_23
REMARK    8  A    between atoms: N_25  and  C_26
REMARK    9  A    between atoms: C_26  and  C_27
REMARK                            x       y       z     vdW  Elec       q    Type
REMARK                         _______ _______ _______ _____ _____    ______ ____
ROOT
ATOM      1  C   UNL     1       4.720   4.139  17.656  0.00  0.00    +0.000 A 
ATOM      2  N   UNL     1       4.655   3.807  16.314  0.00  0.00    +0.000 NA
ATOM      3  C   UNL     1       5.784   4.257  15.826  0.00  0.00    +0.000 A 
ATOM      4  O   UNL     1       6.610   4.811  16.751  0.00  0.00    +0.000 OA
ATOM      5  C   UNL     1       5.917   4.774  17.938  0.00  0.00    +0.000 A 
ENDROOT
BRANCH   3   6
ATOM      6  C   UNL     1       6.246   4.217  14.448  0.00  0.00    +0.000 A 
ATOM      7  C   UNL     1       7.323   5.037  14.070  0.00  0.00    +0.000 A 
ATOM      8  C   UNL     1       7.762   5.060  12.751  0.00  0.00    +0.000 A 
ATOM      9  C   UNL     1       7.130   4.263  11.807  0.00  0.00    +0.000 A 
ATOM     10  F   UNL     1       7.531   4.306  10.531  0.00  0.00    +0.000 F 
ATOM     11  C   UNL     1       6.084   3.423  12.166  0.00  0.00    +0.000 A 
ATOM     12  C   UNL     1       5.644   3.395  13.489  0.00  0.00    +0.000 A 
ENDBRANCH   3   6
BRANCH   1  13
ATOM     13  S   UNL     1       3.411   3.734  18.709  0.00  0.00    +0.000 S 
ATOM     14  O   UNL     1       4.011   3.047  19.835  0.00  0.00    +0.000 OA
ATOM     15  O   UNL     1       2.417   3.117  17.851  0.00  0.00    +0.000 OA
BRANCH  13  20
ATOM     16  C   UNL     1       0.989   9.053  20.439  0.00  0.00    +0.000 C 
ATOM     17  C   UNL     1       1.651   7.762  20.046  0.00  0.00    +0.000 A 
ATOM     18  C   UNL     1       2.365   7.658  18.844  0.00  0.00    +0.000 A 
ATOM     19  C   UNL     1       2.936   6.440  18.458  0.00  0.00    +0.000 A 
ATOM     20  C   UNL     1       2.785   5.312  19.272  0.00  0.00    +0.000 A 
ATOM     21  C   UNL     1       2.109   5.411  20.492  0.00  0.00    +0.000 A 
ATOM     22  C   UNL     1       1.541   6.634  20.872  0.00  0.00    +0.000 A 
ENDBRANCH  13  20
ENDBRANCH   1  13
BRANCH   5  23
ATOM     23  S   UNL     1       6.574   5.511  19.371  0.00  0.00    +0.000 S 
BRANCH  23  24
ATOM     24  C   UNL     1       8.055   6.377  18.759  0.00  0.00    +0.000 C 
BRANCH  24  25
ATOM     25  C   UNL     1       7.802   7.636  17.932  0.00  0.00    +0.000 C 
ATOM     26  O   UNL     1       7.066   7.693  16.953  0.00  0.00    +0.000 OA
ATOM     27  N   UNL     1       8.482   8.746  18.419  0.00  0.00    +0.000 N 
ATOM     28  H   UNL     1       8.839   8.726  19.368  0.00  0.00    +0.000 HD
BRANCH  27  29
ATOM     29  C   UNL     1       8.338  10.077  17.842  0.00  0.00    +0.000 C 
BRANCH  29  30
ATOM     30  C   UNL     1       9.169  11.135  18.581  0.00  0.00    +0.000 C 
ATOM     31  C   UNL     1      10.404  11.614  17.842  0.00  0.00    +0.000 C 
ATOM     32  C   UNL     1      11.213  12.221  18.958  0.00  0.00    +0.000 C 
ATOM     33  C   UNL     1      10.906  11.303  20.124  0.00  0.00    +0.000 C 
ATOM     34  O   UNL     1       9.665  10.631  19.837  0.00  0.00    +0.000 OA
ENDBRANCH  29  30
ENDBRANCH  27  29
ENDBRANCH  24  25
ENDBRANCH  23  24
ENDBRANCH   5  23
TORSDOF 8
ENDMDL
MODEL 3
REMARK VINA RESULT:      -8.4      0.731      1.218
REMARK  Name = 
REMARK  9 active torsions:
REMARK  status: ('A' for Active; 'I' for Inactive)
REMARK    1  A    between atoms: C_1  and  C_2
REMARK    2  A    between atoms: C_5  and  S_6
REMARK    3  A    between atoms: S_6  and  C_9
REMARK    4  A    between atoms: C_11  and  C_12
REMARK    5  A    between atoms: C_20  and  S_21
REMARK    6  A    between atoms: S_21  and  C_22
REMARK    7  A    between atoms: C_22  and  C_23
REMARK    8  A    between atoms: N_25  and  C_26
REMARK    9  A    between atoms: C_26  and  C_27
REMARK                            x       y       z     vdW  Elec       q    Type
REMARK                         _______ _______ _______ _____ _____    ______ ____
ROOT
ATOM      1  C   UNL     1       5.191   3.969  17.754  0.00  0.00    +0.000 A 
ATOM      2  N   UNL     1       5.100   3.647  16.410  0.00  0.00    +0.000 NA
ATOM      3  C   UNL     1       6.093   4.304  15.864  0.00  0.00    +0.000 A 
ATOM      4  O   UNL     1       6.863   4.988  16.749  0.00  0.00    +0.000 OA
ATOM      5  C   UNL     1       6.268   4.810  17.976  0.00  0.00    +0.000 A 
ENDROOT
BRANCH   3   6
ATOM      6  C   UNL     1       6.463   4.367  14.459  0.00  0.00    +0.000 A 
ATOM      7  C   UNL     1       5.793   3.537  13.544  0.00  0.00    +0.000 A 
ATOM      8  C   UNL     1       6.151   3.536  12.201  0.00  0.00    +0.000 A 
ATOM      9  C   UNL     1       7.175   4.366  11.767  0.00  0.00    +0.000 A 
ATOM     10  F   UNL     1       7.542   4.345  10.480  0.00  0.00    +0.000 F 
ATOM     11  C   UNL     1       7.829   5.216  12.649  0.00  0.00    +0.000 A 
ATOM     12  C   UNL     1       7.470   5.222  13.997  0.00  0.00    +0.000 A 
ENDBRANCH   3   6
BRANCH   1  13
ATOM     13  S   UNL     1       4.050   3.316  18.876  0.00  0.00    +0.000 S 
ATOM     14  O   UNL     1       4.834   2.831  19.995  0.00  0.00    +0.000 OA
ATOM     15  O   UNL     1       3.195   2.454  18.082  0.00  0.00    +0.000 OA
BRANCH  13  20
ATOM     16  C   UNL     1       1.062   8.207  20.949  0.00  0.00    +0.000 C 
ATOM     17  C   UNL     1       1.738   6.984  20.397  0.00  0.00    +0.000 A 
ATOM     18  C   UNL     1       1.616   5.744  21.041  0.00  0.00    +0.000 A 
ATOM     19  C   UNL     1       2.288   4.619  20.552  0.00  0.00    +0.000 A 
ATOM     20  C   UNL     1       3.098   4.730  19.417  0.00  0.00    +0.000 A 
ATOM     21  C   UNL     1       3.199   5.951  18.743  0.00  0.00    +0.000 A 
ATOM     22  C   UNL     1       2.522   7.074  19.237  0.00  0.00    +0.000 A 
ENDBRANCH  13  20
ENDBRANCH   1  13
BRANCH   5  23
ATOM     23  S   UNL     1       6.872   5.636  19.383  0.00  0.00    +0.000 S 
BRANCH  23  24
ATOM     24  C   UNL     1       8.284   6.590  18.738  0.00  0.00    +0.000 C 
BRANCH  24  25
ATOM     25  C   UNL     1       7.941   7.895  18.023  0.00  0.00    +0.000 C 
ATOM     26  O   UNL     1       7.118   8.003  17.120  0.00  0.00    +0.000 OA
ATOM     27  N   UNL     1       8.649   8.983  18.519  0.00  0.00    +0.000 N 
ATOM     28  H   UNL     1       9.092   8.908  19.428  0.00  0.00    +0.000 HD
BRANCH  27  29
ATOM     29  C   UNL     1       8.437  10.346  18.046  0.00  0.00    +0.000 C 
BRANCH  29  30
ATOM     30  C   UNL     1       9.307  11.370  18.787  0.00  0.00    +0.000 C 
ATOM     31  C   UNL     1      10.802  11.197  18.603  0.00  0.00    +0.000 C 
ATOM     32  C   UNL     1      11.348  11.978  19.770  0.00  0.00    +0.000 C 
ATOM     33  C   UNL     1      10.326  11.705  20.855  0.00  0.00    +0.000 C 
ATOM     34  O   UNL     1       9.102  11.302  20.212  0.00  0.00    +0.000 OA
ENDBRANCH  29  30
ENDBRANCH  27  29
ENDBRANCH  24  25
ENDBRANCH  23  24
ENDBRANCH   5  23
TORSDOF 8
ENDMDL
MODEL 4
REMARK VINA RESULT:      -8.0      3.068      8.354
REMARK  Name = 
REMARK  9 active torsions:
REMARK  status: ('A' for Active; 'I' for Inactive)
REMARK    1  A    between atoms: C_1  and  C_2
REMARK    2  A    between atoms: C_5  and  S_6
REMARK    3  A    between atoms: S_6  and  C_9
REMARK    4  A    between atoms: C_11  and  C_12
REMARK    5  A    between atoms: C_20  and  S_21
REMARK    6  A    between atoms: S_21  and  C_22
REMARK    7  A    between atoms: C_22  and  C_23
REMARK    8  A    between atoms: N_25  and  C_26
REMARK    9  A    between atoms: C_26  and  C_27
REMARK                            x       y       z     vdW  Elec       q    Type
REMARK                         _______ _______ _______ _____ _____    ______ ____
ROOT
ATOM      1  C   UNL     1       7.154   6.572  17.690  0.00  0.00    +0.000 A 
ATOM      2  N   UNL     1       8.246   7.291  18.148  0.00  0.00    +0.000 NA
ATOM      3  C   UNL     1       7.857   8.538  18.061  0.00  0.00    +0.000 A 
ATOM      4  O   UNL     1       6.578   8.696  17.634  0.00  0.00    +0.000 OA
ATOM      5  C   UNL     1       6.120   7.429  17.355  0.00  0.00    +0.000 A 
ENDROOT
BRANCH   3   6
ATOM      6  C   UNL     1       8.615   9.739  18.376  0.00  0.00    +0.000 A 
ATOM      7  C   UNL     1       9.343   9.784  19.577  0.00  0.00    +0.000 A 
ATOM      8  C   UNL     1      10.042  10.931  19.935  0.00  0.00    +0.000 A 
ATOM      9  C   UNL     1      10.019  12.035  19.092  0.00  0.00    +0.000 A 
ATOM     10  F   UNL     1      10.666  13.151  19.448  0.00  0.00    +0.000 F 
ATOM     11  C   UNL     1       9.330  11.999  17.887  0.00  0.00    +0.000 A 
ATOM     12  C   UNL     1       8.632  10.848  17.524  0.00  0.00    +0.000 A 
ENDBRANCH   3   6
BRANCH   1  13
ATOM     13  S   UNL     1       7.224   4.847  17.623  0.00  0.00    +0.000 S 
ATOM     14  O   UNL     1       6.214   4.377  18.550  0.00  0.00    +0.000 OA
ATOM     15  O   UNL     1       8.631   4.523  17.762  0.00  0.00    +0.000 OA
BRANCH  13  20
ATOM     16  C   UNL     1       5.677   3.210  11.959  0.00  0.00    +0.000 C 
ATOM     17  C   UNL     1       6.015   3.674  13.348  0.00  0.00    +0.000 A 
ATOM     18  C   UNL     1       7.099   4.534  13.574  0.00  0.00    +0.000 A 
ATOM     19  C   UNL     1       7.441   4.923  14.873  0.00  0.00    +0.000 A 
ATOM     20  C   UNL     1       6.702   4.444  15.961  0.00  0.00    +0.000 A 
ATOM     21  C   UNL     1       5.595   3.617  15.747  0.00  0.00    +0.000 A 
ATOM     22  C   UNL     1       5.258   3.232  14.443  0.00  0.00    +0.000 A 
ENDBRANCH  13  20
ENDBRANCH   1  13
BRANCH   5  23
ATOM     23  S   UNL     1       4.547   7.191  16.651  0.00  0.00    +0.000 S 
BRANCH  23  24
ATOM     24  C   UNL     1       3.500   6.786  18.086  0.00  0.00    +0.000 C 
BRANCH  24  25
ATOM     25  C   UNL     1       2.592   5.567  17.931  0.00  0.00    +0.000 C 
ATOM     26  O   UNL     1       1.413   5.612  17.592  0.00  0.00    +0.000 OA
ATOM     27  N   UNL     1       3.247   4.370  18.192  0.00  0.00    +0.000 N 
ATOM     28  H   UNL     1       4.260   4.354  18.187  0.00  0.00    +0.000 HD
BRANCH  27  29
ATOM     29  C   UNL     1       2.607   3.069  18.037  0.00  0.00    +0.000 C 
BRANCH  29  30
ATOM     30  C   UNL     1       2.197   2.449  19.379  0.00  0.00    +0.000 C 
ATOM     31  C   UNL     1       1.039   3.136  20.078  0.00  0.00    +0.000 C 
ATOM     32  C   UNL     1       1.198   2.644  21.493  0.00  0.00    +0.000 C 
ATOM     33  C   UNL     1       2.704   2.574  21.650  0.00  0.00    +0.000 C 
ATOM     34  O   UNL     1       3.278   2.492  20.332  0.00  0.00    +0.000 OA
ENDBRANCH  29  30
ENDBRANCH  27  29
ENDBRANCH  24  25
ENDBRANCH  23  24
ENDBRANCH   5  23
TORSDOF 8
ENDMDL
MODEL 5
REMARK VINA RESULT:      -8.0      7.193     10.765
REMARK  Name = 
REMARK  9 active torsions:
REMARK  status: ('A' for Active; 'I' for Inactive)
REMARK    1  A    between atoms: C_1  and  C_2
REMARK    2  A    between atoms: C_5  and  S_6
REMARK    3  A    between atoms: S_6  and  C_9
REMARK    4  A    between atoms: C_11  and  C_12
REMARK    5  A    between atoms: C_20  and  S_21
REMARK    6  A    between atoms: S_21  and  C_22
REMARK    7  A    between atoms: C_22  and  C_23
REMARK    8  A    between atoms: N_25  and  C_26
REMARK    9  A    between atoms: C_26  and  C_27
REMARK                            x       y       z     vdW  Elec       q    Type
REMARK                         _______ _______ _______ _____ _____    ______ ____
ROOT
ATOM      1  C   UNL     1      -1.478  12.188  20.907  0.00  0.00    +0.000 A 
ATOM      2  N   UNL     1      -2.452  12.231  19.923  0.00  0.00    +0.000 NA
ATOM      3  C   UNL     1      -2.053  11.339  19.051  0.00  0.00    +0.000 A 
ATOM      4  O   UNL     1      -0.924  10.675  19.408  0.00  0.00    +0.000 OA
ATOM      5  C   UNL     1      -0.519  11.241  20.594  0.00  0.00    +0.000 A 
ENDROOT
BRANCH   3   6
ATOM      6  C   UNL     1      -2.676  10.980  17.786  0.00  0.00    +0.000 A 
ATOM      7  C   UNL     1      -2.022  10.063  16.946  0.00  0.00    +0.000 A 
ATOM      8  C   UNL     1      -2.563   9.731  15.710  0.00  0.00    +0.000 A 
ATOM      9  C   UNL     1      -3.760  10.310  15.310  0.00  0.00    +0.000 A 
ATOM     10  F   UNL     1      -4.267  10.015  14.108  0.00  0.00    +0.000 F 
ATOM     11  C   UNL     1      -4.436  11.196  16.139  0.00  0.00    +0.000 A 
ATOM     12  C   UNL     1      -3.898  11.528  17.382  0.00  0.00    +0.000 A 
ENDBRANCH   3   6
BRANCH   1  13
ATOM     13  S   UNL     1      -1.596  13.228  22.283  0.00  0.00    +0.000 S 
ATOM     14  O   UNL     1      -1.348  14.566  21.785  0.00  0.00    +0.000 OA
ATOM     15  O   UNL     1      -0.771  12.601  23.298  0.00  0.00    +0.000 OA
BRANCH  13  20
ATOM     16  C   UNL     1      -7.386  13.125  24.183  0.00  0.00    +0.000 C 
ATOM     17  C   UNL     1      -5.970  13.084  23.681  0.00  0.00    +0.000 A 
ATOM     18  C   UNL     1      -4.958  12.470  24.433  0.00  0.00    +0.000 A 
ATOM     19  C   UNL     1      -3.634  12.479  23.986  0.00  0.00    +0.000 A 
ATOM     20  C   UNL     1      -3.309  13.114  22.782  0.00  0.00    +0.000 A 
ATOM     21  C   UNL     1      -4.314  13.696  22.002  0.00  0.00    +0.000 A 
ATOM     22  C   UNL     1      -5.639  13.682  22.456  0.00  0.00    +0.000 A 
ENDBRANCH  13  20
ENDBRANCH   1  13
BRANCH   5  23
ATOM     23  S   UNL     1       0.979  10.761  21.338  0.00  0.00    +0.000 S 
BRANCH  23  24
ATOM     24  C   UNL     1       0.887   8.942  21.337  0.00  0.00    +0.000 C 
BRANCH  24  25
ATOM     25  C   UNL     1       1.566   8.237  20.164  0.00  0.00    +0.000 C 
ATOM     26  O   UNL     1       1.795   8.755  19.075  0.00  0.00    +0.000 OA
ATOM     27  N   UNL     1       1.931   6.929  20.459  0.00  0.00    +0.000 N 
ATOM     28  H   UNL     1       1.983   6.641  21.429  0.00  0.00    +0.000 HD
BRANCH  27  29
ATOM     29  C   UNL     1       2.660   6.082  19.522  0.00  0.00    +0.000 C 
BRANCH  29  30
ATOM     30  C   UNL     1       2.286   4.599  19.654  0.00  0.00    +0.000 C 
ATOM     31  C   UNL     1       1.119   4.309  20.580  0.00  0.00    +0.000 C 
ATOM     32  C   UNL     1       1.313   2.844  20.867  0.00  0.00    +0.000 C 
ATOM     33  C   UNL     1       2.822   2.713  20.911  0.00  0.00    +0.000 C 
ATOM     34  O   UNL     1       3.379   3.826  20.188  0.00  0.00    +0.000 OA
ENDBRANCH  29  30
ENDBRANCH  27  29
ENDBRANCH  24  25
ENDBRANCH  23  24
ENDBRANCH   5  23
TORSDOF 8
ENDMDL
MODEL 6
REMARK VINA RESULT:      -7.8      3.761      7.303
REMARK  Name = 
REMARK  9 active torsions:
REMARK  status: ('A' for Active; 'I' for Inactive)
REMARK    1  A    between atoms: C_1  and  C_2
REMARK    2  A    between atoms: C_5  and  S_6
REMARK    3  A    between atoms: S_6  and  C_9
REMARK    4  A    between atoms: C_11  and  C_12
REMARK    5  A    between atoms: C_20  and  S_21
REMARK    6  A    between atoms: S_21  and  C_22
REMARK    7  A    between atoms: C_22  and  C_23
REMARK    8  A    between atoms: N_25  and  C_26
REMARK    9  A    between atoms: C_26  and  C_27
REMARK                            x       y       z     vdW  Elec       q    Type
REMARK                         _______ _______ _______ _____ _____    ______ ____
ROOT
ATOM      1  C   UNL     1       7.014   6.564  17.630  0.00  0.00    +0.000 A 
ATOM      2  N   UNL     1       8.098   7.330  18.027  0.00  0.00    +0.000 NA
ATOM      3  C   UNL     1       7.648   8.559  17.974  0.00  0.00    +0.000 A 
ATOM      4  O   UNL     1       6.339   8.659  17.625  0.00  0.00    +0.000 OA
ATOM      5  C   UNL     1       5.924   7.374  17.363  0.00  0.00    +0.000 A 
ENDROOT
BRANCH   3   6
ATOM      6  C   UNL     1       8.367   9.791  18.253  0.00  0.00    +0.000 A 
ATOM      7  C   UNL     1       9.277   9.816  19.323  0.00  0.00    +0.000 A 
ATOM      8  C   UNL     1       9.949  10.989  19.650  0.00  0.00    +0.000 A 
ATOM      9  C   UNL     1       9.717  12.138  18.907  0.00  0.00    +0.000 A 
ATOM     10  F   UNL     1      10.338  13.276  19.238  0.00  0.00    +0.000 F 
ATOM     11  C   UNL     1       8.844  12.126  17.827  0.00  0.00    +0.000 A 
ATOM     12  C   UNL     1       8.172  10.950  17.494  0.00  0.00    +0.000 A 
ENDBRANCH   3   6
BRANCH   1  13
ATOM     13  S   UNL     1       7.159   4.844  17.544  0.00  0.00    +0.000 S 
ATOM     14  O   UNL     1       8.040   4.470  18.633  0.00  0.00    +0.000 OA
ATOM     15  O   UNL     1       7.464   4.563  16.154  0.00  0.00    +0.000 OA
BRANCH  13  20
ATOM     16  C   UNL     1       1.440   3.111  18.742  0.00  0.00    +0.000 C 
ATOM     17  C   UNL     1       2.873   3.469  18.464  0.00  0.00    +0.000 A 
ATOM     18  C   UNL     1       3.700   3.963  19.484  0.00  0.00    +0.000 A 
ATOM     19  C   UNL     1       5.018   4.343  19.210  0.00  0.00    +0.000 A 
ATOM     20  C   UNL     1       5.516   4.239  17.907  0.00  0.00    +0.000 A 
ATOM     21  C   UNL     1       4.715   3.712  16.889  0.00  0.00    +0.000 A 
ATOM     22  C   UNL     1       3.396   3.333  17.170  0.00  0.00    +0.000 A 
ENDBRANCH  13  20
ENDBRANCH   1  13
BRANCH   5  23
ATOM     23  S   UNL     1       4.324   7.067  16.752  0.00  0.00    +0.000 S 
BRANCH  23  24
ATOM     24  C   UNL     1       3.254   7.388  18.191  0.00  0.00    +0.000 C 
BRANCH  24  25
ATOM     25  C   UNL     1       2.312   8.585  18.072  0.00  0.00    +0.000 C 
ATOM     26  O   UNL     1       2.137   9.238  17.048  0.00  0.00    +0.000 OA
ATOM     27  N   UNL     1       1.636   8.859  19.254  0.00  0.00    +0.000 N 
ATOM     28  H   UNL     1       1.592   8.143  19.971  0.00  0.00    +0.000 HD
BRANCH  27  29
ATOM     29  C   UNL     1       0.629   9.906  19.364  0.00  0.00    +0.000 C 
BRANCH  29  30
ATOM     30  C   UNL     1      -0.187   9.808  20.661  0.00  0.00    +0.000 C 
ATOM     31  C   UNL     1      -0.129  11.034  21.552  0.00  0.00    +0.000 C 
ATOM     32  C   UNL     1      -0.581  10.474  22.875  0.00  0.00    +0.000 C 
ATOM     33  C   UNL     1       0.018   9.082  22.865  0.00  0.00    +0.000 C 
ATOM     34  O   UNL     1       0.276   8.727  21.494  0.00  0.00    +0.000 OA
ENDBRANCH  29  30
ENDBRANCH  27  29
ENDBRANCH  24  25
ENDBRANCH  23  24
ENDBRANCH   5  23
TORSDOF 8
ENDMDL
MODEL 7
REMARK VINA RESULT:      -7.7      2.945      8.163
REMARK  Name = 
REMARK  9 active torsions:
REMARK  status: ('A' for Active; 'I' for Inactive)
REMARK    1  A    between atoms: C_1  and  C_2
REMARK    2  A    between atoms: C_5  and  S_6
REMARK    3  A    between atoms: S_6  and  C_9
REMARK    4  A    between atoms: C_11  and  C_12
REMARK    5  A    between atoms: C_20  and  S_21
REMARK    6  A    between atoms: S_21  and  C_22
REMARK    7  A    between atoms: C_22  and  C_23
REMARK    8  A    between atoms: N_25  and  C_26
REMARK    9  A    between atoms: C_26  and  C_27
REMARK                            x       y       z     vdW  Elec       q    Type
REMARK                         _______ _______ _______ _____ _____    ______ ____
ROOT
ATOM      1  C   UNL     1       7.039   6.471  17.737  0.00  0.00    +0.000 A 
ATOM      2  N   UNL     1       8.119   7.232  18.153  0.00  0.00    +0.000 NA
ATOM      3  C   UNL     1       7.690   8.465  18.049  0.00  0.00    +0.000 A 
ATOM      4  O   UNL     1       6.397   8.575  17.650  0.00  0.00    +0.000 OA
ATOM      5  C   UNL     1       5.972   7.289  17.409  0.00  0.00    +0.000 A 
ENDROOT
BRANCH   3   6
ATOM      6  C   UNL     1       8.418   9.695  18.321  0.00  0.00    +0.000 A 
ATOM      7  C   UNL     1       8.147  10.830  17.539  0.00  0.00    +0.000 A 
ATOM      8  C   UNL     1       8.855  12.009  17.738  0.00  0.00    +0.000 A 
ATOM      9  C   UNL     1       9.833  12.059  18.722  0.00  0.00    +0.000 A 
ATOM     10  F   UNL     1      10.538  13.184  18.896  0.00  0.00    +0.000 F 
ATOM     11  C   UNL     1      10.096  10.958  19.525  0.00  0.00    +0.000 A 
ATOM     12  C   UNL     1       9.384   9.775  19.330  0.00  0.00    +0.000 A 
ENDBRANCH   3   6
BRANCH   1  13
ATOM     13  S   UNL     1       7.161   4.748  17.704  0.00  0.00    +0.000 S 
ATOM     14  O   UNL     1       6.128   4.265  18.599  0.00  0.00    +0.000 OA
ATOM     15  O   UNL     1       8.570   4.468  17.904  0.00  0.00    +0.000 OA
BRANCH  13  20
ATOM     16  C   UNL     1       5.414   3.486  12.002  0.00  0.00    +0.000 C 
ATOM     17  C   UNL     1       5.887   3.735  13.407  0.00  0.00    +0.000 A 
ATOM     18  C   UNL     1       5.201   3.192  14.503  0.00  0.00    +0.000 A 
ATOM     19  C   UNL     1       5.615   3.468  15.810  0.00  0.00    +0.000 A 
ATOM     20  C   UNL     1       6.717   4.301  16.030  0.00  0.00    +0.000 A 
ATOM     21  C   UNL     1       7.434   4.818  14.946  0.00  0.00    +0.000 A 
ATOM     22  C   UNL     1       7.014   4.536  13.639  0.00  0.00    +0.000 A 
ENDBRANCH  13  20
ENDBRANCH   1  13
BRANCH   5  23
ATOM     23  S   UNL     1       4.391   6.988  16.748  0.00  0.00    +0.000 S 
BRANCH  23  24
ATOM     24  C   UNL     1       3.294   7.981  17.810  0.00  0.00    +0.000 C 
BRANCH  24  25
ATOM     25  C   UNL     1       2.589   7.228  18.937  0.00  0.00    +0.000 C 
ATOM     26  O   UNL     1       2.131   7.752  19.948  0.00  0.00    +0.000 OA
ATOM     27  N   UNL     1       2.491   5.864  18.695  0.00  0.00    +0.000 N 
ATOM     28  H   UNL     1       2.619   5.522  17.749  0.00  0.00    +0.000 HD
BRANCH  27  29
ATOM     29  C   UNL     1       1.793   4.950  19.592  0.00  0.00    +0.000 C 
BRANCH  29  30
ATOM     30  C   UNL     1       1.926   3.483  19.161  0.00  0.00    +0.000 C 
ATOM     31  C   UNL     1       3.234   2.817  19.540  0.00  0.00    +0.000 C 
ATOM     32  C   UNL     1       3.259   1.636  18.606  0.00  0.00    +0.000 C 
ATOM     33  C   UNL     1       2.625   2.196  17.349  0.00  0.00    +0.000 C 
ATOM     34  O   UNL     1       1.846   3.346  17.728  0.00  0.00    +0.000 OA
ENDBRANCH  29  30
ENDBRANCH  27  29
ENDBRANCH  24  25
ENDBRANCH  23  24
ENDBRANCH   5  23
TORSDOF 8
ENDMDL
MODEL 8
REMARK VINA RESULT:      -7.6      6.538      9.606
REMARK  Name = 
REMARK  9 active torsions:
REMARK  status: ('A' for Active; 'I' for Inactive)
REMARK    1  A    between atoms: C_1  and  C_2
REMARK    2  A    between atoms: C_5  and  S_6
REMARK    3  A    between atoms: S_6  and  C_9
REMARK    4  A    between atoms: C_11  and  C_12
REMARK    5  A    between atoms: C_20  and  S_21
REMARK    6  A    between atoms: S_21  and  C_22
REMARK    7  A    between atoms: C_22  and  C_23
REMARK    8  A    between atoms: N_25  and  C_26
REMARK    9  A    between atoms: C_26  and  C_27
REMARK                            x       y       z     vdW  Elec       q    Type
REMARK                         _______ _______ _______ _____ _____    ______ ____
ROOT
ATOM      1  C   UNL     1      -0.842  11.107  20.778  0.00  0.00    +0.000 A 
ATOM      2  N   UNL     1      -1.780  11.545  19.858  0.00  0.00    +0.000 NA
ATOM      3  C   UNL     1      -1.733  10.641  18.911  0.00  0.00    +0.000 A 
ATOM      4  O   UNL     1      -0.878   9.616  19.160  0.00  0.00    +0.000 OA
ATOM      5  C   UNL     1      -0.265   9.924  20.352  0.00  0.00    +0.000 A 
ENDROOT
BRANCH   3   6
ATOM      6  C   UNL     1      -2.484  10.605  17.666  0.00  0.00    +0.000 A 
ATOM      7  C   UNL     1      -2.028   9.784  16.623  0.00  0.00    +0.000 A 
ATOM      8  C   UNL     1      -2.693   9.758  15.402  0.00  0.00    +0.000 A 
ATOM      9  C   UNL     1      -3.818  10.551  15.222  0.00  0.00    +0.000 A 
ATOM     10  F   UNL     1      -4.443  10.552  14.038  0.00  0.00    +0.000 F 
ATOM     11  C   UNL     1      -4.303  11.347  16.251  0.00  0.00    +0.000 A 
ATOM     12  C   UNL     1      -3.640  11.371  17.478  0.00  0.00    +0.000 A 
ENDBRANCH   3   6
BRANCH   1  13
ATOM     13  S   UNL     1      -0.557  12.019  22.218  0.00  0.00    +0.000 S 
ATOM     14  O   UNL     1       0.450  13.001  21.868  0.00  0.00    +0.000 OA
ATOM     15  O   UNL     1      -0.360  11.026  23.257  0.00  0.00    +0.000 OA
BRANCH  13  20
ATOM     16  C   UNL     1      -5.694  15.011  23.562  0.00  0.00    +0.000 C 
ATOM     17  C   UNL     1      -4.461  14.247  23.169  0.00  0.00    +0.000 A 
ATOM     18  C   UNL     1      -4.282  12.916  23.571  0.00  0.00    +0.000 A 
ATOM     19  C   UNL     1      -3.110  12.226  23.246  0.00  0.00    +0.000 A 
ATOM     20  C   UNL     1      -2.101  12.869  22.520  0.00  0.00    +0.000 A 
ATOM     21  C   UNL     1      -2.283  14.184  22.079  0.00  0.00    +0.000 A 
ATOM     22  C   UNL     1      -3.460  14.869  22.408  0.00  0.00    +0.000 A 
ENDBRANCH  13  20
ENDBRANCH   1  13
BRANCH   5  23
ATOM     23  S   UNL     1       1.012   8.921  20.976  0.00  0.00    +0.000 S 
BRANCH  23  24
ATOM     24  C   UNL     1       1.898   8.384  19.477  0.00  0.00    +0.000 C 
BRANCH  24  25
ATOM     25  C   UNL     1       2.463   6.965  19.504  0.00  0.00    +0.000 C 
ATOM     26  O   UNL     1       2.261   6.149  20.398  0.00  0.00    +0.000 OA
ATOM     27  N   UNL     1       3.228   6.668  18.383  0.00  0.00    +0.000 N 
ATOM     28  H   UNL     1       3.137   7.250  17.558  0.00  0.00    +0.000 HD
BRANCH  27  29
ATOM     29  C   UNL     1       3.810   5.352  18.149  0.00  0.00    +0.000 C 
BRANCH  29  30
ATOM     30  C   UNL     1       5.311   5.416  17.838  0.00  0.00    +0.000 C 
ATOM     31  C   UNL     1       6.222   5.371  19.050  0.00  0.00    +0.000 C 
ATOM     32  C   UNL     1       7.507   5.922  18.489  0.00  0.00    +0.000 C 
ATOM     33  C   UNL     1       7.016   6.970  17.509  0.00  0.00    +0.000 C 
ATOM     34  O   UNL     1       5.657   6.643  17.164  0.00  0.00    +0.000 OA
ENDBRANCH  29  30
ENDBRANCH  27  29
ENDBRANCH  24  25
ENDBRANCH  23  24
ENDBRANCH   5  23
TORSDOF 8
ENDMDL
MODEL 9
REMARK VINA RESULT:      -7.6      3.766      6.987
REMARK  Name = 
REMARK  9 active torsions:
REMARK  status: ('A' for Active; 'I' for Inactive)
REMARK    1  A    between atoms: C_1  and  C_2
REMARK    2  A    between atoms: C_5  and  S_6
REMARK    3  A    between atoms: S_6  and  C_9
REMARK    4  A    between atoms: C_11  and  C_12
REMARK    5  A    between atoms: C_20  and  S_21
REMARK    6  A    between atoms: S_21  and  C_22
REMARK    7  A    between atoms: C_22  and  C_23
REMARK    8  A    between atoms: N_25  and  C_26
REMARK    9  A    between atoms: C_26  and  C_27
REMARK                            x       y       z     vdW  Elec       q    Type
REMARK                         _______ _______ _______ _____ _____    ______ ____
ROOT
ATOM      1  C   UNL     1       7.087   6.555  17.554  0.00  0.00    +0.000 A 
ATOM      2  N   UNL     1       8.168   7.302  17.989  0.00  0.00    +0.000 NA
ATOM      3  C   UNL     1       7.732   8.536  17.946  0.00  0.00    +0.000 A 
ATOM      4  O   UNL     1       6.433   8.656  17.570  0.00  0.00    +0.000 OA
ATOM      5  C   UNL     1       6.011   7.381  17.277  0.00  0.00    +0.000 A 
ENDROOT
BRANCH   3   6
ATOM      6  C   UNL     1       8.458   9.756  18.263  0.00  0.00    +0.000 A 
ATOM      7  C   UNL     1       9.325   9.762  19.368  0.00  0.00    +0.000 A 
ATOM      8  C   UNL     1      10.000  10.922  19.729  0.00  0.00    +0.000 A 
ATOM      9  C   UNL     1       9.814  12.079  18.985  0.00  0.00    +0.000 A 
ATOM     10  F   UNL     1      10.438  13.206  19.348  0.00  0.00    +0.000 F 
ATOM     11  C   UNL     1       8.984  12.087  17.871  0.00  0.00    +0.000 A 
ATOM     12  C   UNL     1       8.309  10.923  17.504  0.00  0.00    +0.000 A 
ENDBRANCH   3   6
BRANCH   1  13
ATOM     13  S   UNL     1       7.216   4.835  17.443  0.00  0.00    +0.000 S 
ATOM     14  O   UNL     1       8.131   4.441  18.496  0.00  0.00    +0.000 OA
ATOM     15  O   UNL     1       7.470   4.568  16.040  0.00  0.00    +0.000 OA
BRANCH  13  20
ATOM     16  C   UNL     1       1.532   3.128  18.829  0.00  0.00    +0.000 C 
ATOM     17  C   UNL     1       2.956   3.478  18.502  0.00  0.00    +0.000 A 
ATOM     18  C   UNL     1       3.833   3.926  19.501  0.00  0.00    +0.000 A 
ATOM     19  C   UNL     1       5.143   4.300  19.183  0.00  0.00    +0.000 A 
ATOM     20  C   UNL     1       5.582   4.237  17.856  0.00  0.00    +0.000 A 
ATOM     21  C   UNL     1       4.731   3.756  16.856  0.00  0.00    +0.000 A 
ATOM     22  C   UNL     1       3.420   3.382  17.182  0.00  0.00    +0.000 A 
ENDBRANCH  13  20
ENDBRANCH   1  13
BRANCH   5  23
ATOM     23  S   UNL     1       4.423   7.100  16.625  0.00  0.00    +0.000 S 
BRANCH  23  24
ATOM     24  C   UNL     1       3.335   7.270  18.076  0.00  0.00    +0.000 C 
BRANCH  24  25
ATOM     25  C   UNL     1       2.369   8.454  18.056  0.00  0.00    +0.000 C 
ATOM     26  O   UNL     1       2.203   9.204  17.099  0.00  0.00    +0.000 OA
ATOM     27  N   UNL     1       1.659   8.591  19.242  0.00  0.00    +0.000 N 
ATOM     28  H   UNL     1       1.615   7.806  19.881  0.00  0.00    +0.000 HD
BRANCH  27  29
ATOM     29  C   UNL     1       0.626   9.602  19.432  0.00  0.00    +0.000 C 
BRANCH  29  30
ATOM     30  C   UNL     1       1.178  10.908  20.020  0.00  0.00    +0.000 C 
ATOM     31  C   UNL     1       0.246  11.626  20.978  0.00  0.00    +0.000 C 
ATOM     32  C   UNL     1       0.825  13.016  20.985  0.00  0.00    +0.000 C 
ATOM     33  C   UNL     1       1.289  13.187  19.552  0.00  0.00    +0.000 C 
ATOM     34  O   UNL     1       1.458  11.874  18.988  0.00  0.00    +0.000 OA
ENDBRANCH  29  30
ENDBRANCH  27  29
ENDBRANCH  24  25
ENDBRANCH  23  24
ENDBRANCH   5  23
TORSDOF 8
ENDMDL
