MODEL 1
REMARK VINA RESULT:      -7.5      0.000      0.000
REMARK  Name = 
REMARK  3 active torsions:
REMARK  status: ('A' for Active; 'I' for Inactive)
REMARK    1  A    between atoms: C_1  and  N_2
REMARK    2  A    between atoms: C_10  and  C_11
REMARK    3  A    between atoms: N_21  and  C_22
REMARK                            x       y       z     vdW  Elec       q    Type
REMARK                         _______ _______ _______ _____ _____    ______ ____
ROOT
ATOM      1  C   UNL     1      -4.382  12.878  23.027  0.00  0.00    +0.000 C 
ATOM      2  N   UNL     1      -2.961  12.949  22.708  0.00  0.00    +0.000 NA
ATOM      3  C   UNL     1      -2.740  13.267  21.282  0.00  0.00    +0.000 C 
ATOM      4  C   UNL     1      -1.237  13.411  20.947  0.00  0.00    +0.000 C 
ATOM      5  N   UNL     1      -0.461  12.255  21.409  0.00  0.00    +0.000 N 
ATOM      6  C   UNL     1       0.349  11.530  20.560  0.00  0.00    +0.000 C 
ATOM      7  N   UNL     1       0.205  10.257  20.379  0.00  0.00    +0.000 NA
ATOM      8  C   UNL     1       1.057   9.457  19.590  0.00  0.00    +0.000 A 
ATOM      9  C   UNL     1       1.259   8.162  20.085  0.00  0.00    +0.000 A 
ATOM     10  C   UNL     1       2.086   7.232  19.439  0.00  0.00    +0.000 A 
ATOM     11  C   UNL     1       2.691   7.597  18.235  0.00  0.00    +0.000 A 
ATOM     12  C   UNL     1       2.478   8.869  17.701  0.00  0.00    +0.000 A 
ATOM     13  C   UNL     1       1.672   9.813  18.368  0.00  0.00    +0.000 A 
ATOM     14  N   UNL     1       1.656  11.139  17.854  0.00  0.00    +0.000 N 
ATOM     15  C   UNL     1       1.952  12.172  18.670  0.00  0.00    +0.000 A 
ATOM     16  N   UNL     1       2.861  13.109  18.390  0.00  0.00    +0.000 NA
ATOM     17  N   UNL     1       2.970  13.791  19.543  0.00  0.00    +0.000 N 
ATOM     18  C   UNL     1       4.002  14.785  19.704  0.00  0.00    +0.000 C 
ATOM     19  C   UNL     1       2.078  13.397  20.495  0.00  0.00    +0.000 A 
ATOM     20  C   UNL     1       1.388  12.332  19.950  0.00  0.00    +0.000 A 
ATOM     21  C   UNL     1      -0.772  11.758  22.750  0.00  0.00    +0.000 C 
ATOM     22  C   UNL     1      -2.287  11.665  23.000  0.00  0.00    +0.000 C 
ATOM     23  H   UNL     1       2.097  11.204  16.947  0.00  0.00    +0.000 HD
ENDROOT
BRANCH  10  24
ATOM     24  C   UNL     1       2.312   5.873  20.050  0.00  0.00    +0.000 C 
ATOM     25  F   UNL     1       1.708   4.860  19.368  0.00  0.00    +0.000 F 
ATOM     26  F   UNL     1       3.630   5.541  20.113  0.00  0.00    +0.000 F 
ATOM     27  F   UNL     1       1.843   5.789  21.326  0.00  0.00    +0.000 F 
ENDBRANCH  10  24
TORSDOF 1
ENDMDL
MODEL 2
REMARK VINA RESULT:      -7.1      4.662      6.187
REMARK  Name = 
REMARK  3 active torsions:
REMARK  status: ('A' for Active; 'I' for Inactive)
REMARK    1  A    between atoms: C_1  and  N_2
REMARK    2  A    between atoms: C_10  and  C_11
REMARK    3  A    between atoms: N_21  and  C_22
REMARK                            x       y       z     vdW  Elec       q    Type
REMARK                         _______ _______ _______ _____ _____    ______ ____
ROOT
ATOM      1  C   UNL     1       0.381  16.709  23.545  0.00  0.00    +0.000 C 
ATOM      2  N   UNL     1       0.289  15.302  23.172  0.00  0.00    +0.000 NA
ATOM      3  C   UNL     1       0.961  15.038  21.883  0.00  0.00    +0.000 C 
ATOM      4  C   UNL     1       0.928  13.537  21.510  0.00  0.00    +0.000 C 
ATOM      5  N   UNL     1      -0.431  12.986  21.579  0.00  0.00    +0.000 N 
ATOM      6  C   UNL     1      -1.011  12.333  20.512  0.00  0.00    +0.000 C 
ATOM      7  N   UNL     1      -2.132  12.713  19.989  0.00  0.00    +0.000 NA
ATOM      8  C   UNL     1      -2.807  12.032  18.956  0.00  0.00    +0.000 A 
ATOM      9  C   UNL     1      -4.204  12.071  19.053  0.00  0.00    +0.000 A 
ATOM     10  C   UNL     1      -5.039  11.438  18.122  0.00  0.00    +0.000 A 
ATOM     11  C   UNL     1      -4.455  10.784  17.034  0.00  0.00    +0.000 A 
ATOM     12  C   UNL     1      -3.066  10.761  16.894  0.00  0.00    +0.000 A 
ATOM     13  C   UNL     1      -2.228  11.371  17.849  0.00  0.00    +0.000 A 
ATOM     14  N   UNL     1      -0.829  11.144  17.731  0.00  0.00    +0.000 N 
ATOM     15  C   UNL     1      -0.145  10.654  18.785  0.00  0.00    +0.000 A 
ATOM     16  N   UNL     1       0.658   9.588  18.725  0.00  0.00    +0.000 NA
ATOM     17  N   UNL     1       0.948   9.344  20.015  0.00  0.00    +0.000 N 
ATOM     18  C   UNL     1       1.655   8.144  20.385  0.00  0.00    +0.000 C 
ATOM     19  C   UNL     1       0.460  10.286  20.870  0.00  0.00    +0.000 A 
ATOM     20  C   UNL     1      -0.263  11.168  20.090  0.00  0.00    +0.000 A 
ATOM     21  C   UNL     1      -1.230  13.374  22.742  0.00  0.00    +0.000 C 
ATOM     22  C   UNL     1      -1.122  14.878  23.049  0.00  0.00    +0.000 C 
ATOM     23  H   UNL     1      -0.584  10.706  16.854  0.00  0.00    +0.000 HD
ENDROOT
BRANCH  10  24
ATOM     24  C   UNL     1      -6.534  11.464  18.310  0.00  0.00    +0.000 C 
ATOM     25  F   UNL     1      -6.933  12.152  19.416  0.00  0.00    +0.000 F 
ATOM     26  F   UNL     1      -7.184  12.039  17.262  0.00  0.00    +0.000 F 
ATOM     27  F   UNL     1      -7.067  10.217  18.441  0.00  0.00    +0.000 F 
ENDBRANCH  10  24
TORSDOF 1
ENDMDL
MODEL 3
REMARK VINA RESULT:      -6.7      4.480      6.077
REMARK  Name = 
REMARK  3 active torsions:
REMARK  status: ('A' for Active; 'I' for Inactive)
REMARK    1  A    between atoms: C_1  and  N_2
REMARK    2  A    between atoms: C_10  and  C_11
REMARK    3  A    between atoms: N_21  and  C_22
REMARK                            x       y       z     vdW  Elec       q    Type
REMARK                         _______ _______ _______ _____ _____    ______ ____
ROOT
ATOM      1  C   UNL     1       1.587  16.546  22.572  0.00  0.00    +0.000 C 
ATOM      2  N   UNL     1       1.341  15.121  22.387  0.00  0.00    +0.000 NA
ATOM      3  C   UNL     1       1.920  14.630  21.120  0.00  0.00    +0.000 C 
ATOM      4  C   UNL     1       1.724  13.106  20.945  0.00  0.00    +0.000 C 
ATOM      5  N   UNL     1       0.323  12.711  21.133  0.00  0.00    +0.000 N 
ATOM      6  C   UNL     1      -0.369  11.992  20.180  0.00  0.00    +0.000 C 
ATOM      7  N   UNL     1      -1.471  12.417  19.653  0.00  0.00    +0.000 NA
ATOM      8  C   UNL     1      -2.259  11.685  18.742  0.00  0.00    +0.000 A 
ATOM      9  C   UNL     1      -3.639  11.879  18.882  0.00  0.00    +0.000 A 
ATOM     10  C   UNL     1      -4.576  11.223  18.071  0.00  0.00    +0.000 A 
ATOM     11  C   UNL     1      -4.112  10.383  17.057  0.00  0.00    +0.000 A 
ATOM     12  C   UNL     1      -2.740  10.200  16.871  0.00  0.00    +0.000 A 
ATOM     13  C   UNL     1      -1.802  10.836  17.709  0.00  0.00    +0.000 A 
ATOM     14  N   UNL     1      -0.439  10.453  17.571  0.00  0.00    +0.000 N 
ATOM     15  C   UNL     1       0.245  10.031  18.654  0.00  0.00    +0.000 A 
ATOM     16  N   UNL     1       0.937   8.890  18.703  0.00  0.00    +0.000 NA
ATOM     17  N   UNL     1       1.264   8.780  20.002  0.00  0.00    +0.000 N 
ATOM     18  C   UNL     1       1.869   7.569  20.499  0.00  0.00    +0.000 C 
ATOM     19  C   UNL     1       0.912   9.866  20.746  0.00  0.00    +0.000 A 
ATOM     20  C   UNL     1       0.241  10.713  19.886  0.00  0.00    +0.000 A 
ATOM     21  C   UNL     1      -0.377  13.320  22.264  0.00  0.00    +0.000 C 
ATOM     22  C   UNL     1      -0.109  14.831  22.370  0.00  0.00    +0.000 C 
ATOM     23  H   UNL     1      -0.280   9.886  16.749  0.00  0.00    +0.000 HD
ENDROOT
BRANCH  10  24
ATOM     24  C   UNL     1      -6.051  11.426  18.308  0.00  0.00    +0.000 C 
ATOM     25  F   UNL     1      -6.678  12.100  17.304  0.00  0.00    +0.000 F 
ATOM     26  F   UNL     1      -6.725  10.251  18.442  0.00  0.00    +0.000 F 
ATOM     27  F   UNL     1      -6.306  12.135  19.443  0.00  0.00    +0.000 F 
ENDBRANCH  10  24
TORSDOF 1
ENDMDL
MODEL 4
REMARK VINA RESULT:      -6.6      5.123      6.826
REMARK  Name = 
REMARK  3 active torsions:
REMARK  status: ('A' for Active; 'I' for Inactive)
REMARK    1  A    between atoms: C_1  and  N_2
REMARK    2  A    between atoms: C_10  and  C_11
REMARK    3  A    between atoms: N_21  and  C_22
REMARK                            x       y       z     vdW  Elec       q    Type
REMARK                         _______ _______ _______ _____ _____    ______ ____
ROOT
ATOM      1  C   UNL     1      -2.649  17.572  25.527  0.00  0.00    +0.000 C 
ATOM      2  N   UNL     1      -2.511  16.168  25.154  0.00  0.00    +0.000 NA
ATOM      3  C   UNL     1      -1.415  15.970  24.185  0.00  0.00    +0.000 C 
ATOM      4  C   UNL     1      -1.216  14.477  23.833  0.00  0.00    +0.000 C 
ATOM      5  N   UNL     1      -2.473  13.839  23.423  0.00  0.00    +0.000 N 
ATOM      6  C   UNL     1      -2.598  13.169  22.225  0.00  0.00    +0.000 C 
ATOM      7  N   UNL     1      -3.486  13.486  21.339  0.00  0.00    +0.000 NA
ATOM      8  C   UNL     1      -3.710  12.781  20.139  0.00  0.00    +0.000 A 
ATOM      9  C   UNL     1      -5.052  12.731  19.738  0.00  0.00    +0.000 A 
ATOM     10  C   UNL     1      -5.463  12.061  18.577  0.00  0.00    +0.000 A 
ATOM     11  C   UNL     1      -4.493  11.465  17.768  0.00  0.00    +0.000 A 
ATOM     12  C   UNL     1      -3.145  11.533  18.125  0.00  0.00    +0.000 A 
ATOM     13  C   UNL     1      -2.737  12.179  19.309  0.00  0.00    +0.000 A 
ATOM     14  N   UNL     1      -1.374  12.043  19.692  0.00  0.00    +0.000 N 
ATOM     15  C   UNL     1      -1.072  11.579  20.922  0.00  0.00    +0.000 A 
ATOM     16  N   UNL     1      -0.231  10.568  21.154  0.00  0.00    +0.000 NA
ATOM     17  N   UNL     1      -0.398  10.320  22.465  0.00  0.00    +0.000 N 
ATOM     18  C   UNL     1       0.212   9.161  23.067  0.00  0.00    +0.000 C 
ATOM     19  C   UNL     1      -1.215  11.214  23.089  0.00  0.00    +0.000 A 
ATOM     20  C   UNL     1      -1.675  12.061  22.099  0.00  0.00    +0.000 A 
ATOM     21  C   UNL     1      -3.653  14.155  24.229  0.00  0.00    +0.000 C 
ATOM     22  C   UNL     1      -3.759  15.657  24.546  0.00  0.00    +0.000 C 
ATOM     23  H   UNL     1      -0.809  11.636  18.959  0.00  0.00    +0.000 HD
ENDROOT
BRANCH  10  24
ATOM     24  C   UNL     1      -6.928  11.989  18.228  0.00  0.00    +0.000 C 
ATOM     25  F   UNL     1      -7.226  12.525  17.012  0.00  0.00    +0.000 F 
ATOM     26  F   UNL     1      -7.395  10.711  18.194  0.00  0.00    +0.000 F 
ATOM     27  F   UNL     1      -7.712  12.650  19.124  0.00  0.00    +0.000 F 
ENDBRANCH  10  24
TORSDOF 1
ENDMDL
MODEL 5
REMARK VINA RESULT:      -6.5      4.603      6.668
REMARK  Name = 
REMARK  3 active torsions:
REMARK  status: ('A' for Active; 'I' for Inactive)
REMARK    1  A    between atoms: C_1  and  N_2
REMARK    2  A    between atoms: C_10  and  C_11
REMARK    3  A    between atoms: N_21  and  C_22
REMARK                            x       y       z     vdW  Elec       q    Type
REMARK                         _______ _______ _______ _____ _____    ______ ____
ROOT
ATOM      1  C   UNL     1       3.037   5.586  19.901  0.00  0.00    +0.000 C 
ATOM      2  N   UNL     1       2.746   6.978  19.580  0.00  0.00    +0.000 NA
ATOM      3  C   UNL     1       1.746   7.550  20.505  0.00  0.00    +0.000 C 
ATOM      4  C   UNL     1       1.478   9.046  20.216  0.00  0.00    +0.000 C 
ATOM      5  N   UNL     1       1.161   9.281  18.802  0.00  0.00    +0.000 N 
ATOM      6  C   UNL     1       0.012   9.934  18.409  0.00  0.00    +0.000 C 
ATOM      7  N   UNL     1      -0.854   9.399  17.611  0.00  0.00    +0.000 NA
ATOM      8  C   UNL     1      -1.999  10.054  17.112  0.00  0.00    +0.000 A 
ATOM      9  C   UNL     1      -2.340   9.705  15.798  0.00  0.00    +0.000 A 
ATOM     10  C   UNL     1      -3.440  10.267  15.135  0.00  0.00    +0.000 A 
ATOM     11  C   UNL     1      -4.250  11.170  15.826  0.00  0.00    +0.000 A 
ATOM     12  C   UNL     1      -3.954  11.506  17.149  0.00  0.00    +0.000 A 
ATOM     13  C   UNL     1      -2.829  10.965  17.803  0.00  0.00    +0.000 A 
ATOM     14  N   UNL     1      -2.496  11.498  19.079  0.00  0.00    +0.000 N 
ATOM     15  C   UNL     1      -1.253  11.976  19.295  0.00  0.00    +0.000 A 
ATOM     16  N   UNL     1      -0.994  13.185  19.798  0.00  0.00    +0.000 NA
ATOM     17  N   UNL     1       0.335  13.309  19.640  0.00  0.00    +0.000 N 
ATOM     18  C   UNL     1       0.982  14.572  19.900  0.00  0.00    +0.000 C 
ATOM     19  C   UNL     1       0.936  12.179  19.174  0.00  0.00    +0.000 A 
ATOM     20  C   UNL     1      -0.083  11.278  18.939  0.00  0.00    +0.000 A 
ATOM     21  C   UNL     1       1.994   8.580  17.825  0.00  0.00    +0.000 C 
ATOM     22  C   UNL     1       2.222   7.106  18.203  0.00  0.00    +0.000 C 
ATOM     23  H   UNL     1      -3.225  12.092  19.449  0.00  0.00    +0.000 HD
ENDROOT
BRANCH  10  24
ATOM     24  C   UNL     1      -3.723   9.899  13.701  0.00  0.00    +0.000 C 
ATOM     25  F   UNL     1      -4.235  10.925  12.965  0.00  0.00    +0.000 F 
ATOM     26  F   UNL     1      -2.608   9.488  13.036  0.00  0.00    +0.000 F 
ATOM     27  F   UNL     1      -4.621   8.881  13.590  0.00  0.00    +0.000 F 
ENDBRANCH  10  24
TORSDOF 1
ENDMDL
MODEL 6
REMARK VINA RESULT:      -6.4      4.550      6.367
REMARK  Name = 
REMARK  3 active torsions:
REMARK  status: ('A' for Active; 'I' for Inactive)
REMARK    1  A    between atoms: C_1  and  N_2
REMARK    2  A    between atoms: C_10  and  C_11
REMARK    3  A    between atoms: N_21  and  C_22
REMARK                            x       y       z     vdW  Elec       q    Type
REMARK                         _______ _______ _______ _____ _____    ______ ____
ROOT
ATOM      1  C   UNL     1       1.530  16.960  22.604  0.00  0.00    +0.000 C 
ATOM      2  N   UNL     1       1.302  15.539  22.365  0.00  0.00    +0.000 NA
ATOM      3  C   UNL     1       1.644  15.161  20.978  0.00  0.00    +0.000 C 
ATOM      4  C   UNL     1       1.468  13.644  20.732  0.00  0.00    +0.000 C 
ATOM      5  N   UNL     1       0.144  13.172  21.151  0.00  0.00    +0.000 N 
ATOM      6  C   UNL     1      -0.693  12.486  20.296  0.00  0.00    +0.000 C 
ATOM      7  N   UNL     1      -1.890  12.892  20.019  0.00  0.00    +0.000 NA
ATOM      8  C   UNL     1      -2.813  12.186  19.220  0.00  0.00    +0.000 A 
ATOM      9  C   UNL     1      -4.146  12.306  19.633  0.00  0.00    +0.000 A 
ATOM     10  C   UNL     1      -5.198  11.661  18.967  0.00  0.00    +0.000 A 
ATOM     11  C   UNL     1      -4.909  10.912  17.824  0.00  0.00    +0.000 A 
ATOM     12  C   UNL     1      -3.593  10.807  17.370  0.00  0.00    +0.000 A 
ATOM     13  C   UNL     1      -2.533  11.429  18.060  0.00  0.00    +0.000 A 
ATOM     14  N   UNL     1      -1.210  11.121  17.641  0.00  0.00    +0.000 N 
ATOM     15  C   UNL     1      -0.317  10.660  18.541  0.00  0.00    +0.000 A 
ATOM     16  N   UNL     1       0.409   9.552  18.375  0.00  0.00    +0.000 NA
ATOM     17  N   UNL     1       0.981   9.372  19.578  0.00  0.00    +0.000 N 
ATOM     18  C   UNL     1       1.710   8.161  19.861  0.00  0.00    +0.000 C 
ATOM     19  C   UNL     1       0.743  10.390  20.452  0.00  0.00    +0.000 A 
ATOM     20  C   UNL     1      -0.109  11.259  19.798  0.00  0.00    +0.000 A 
ATOM     21  C   UNL     1      -0.347  13.672  22.435  0.00  0.00    +0.000 C 
ATOM     22  C   UNL     1      -0.114  15.184  22.600  0.00  0.00    +0.000 C 
ATOM     23  H   UNL     1      -1.193  10.617  16.764  0.00  0.00    +0.000 HD
ENDROOT
BRANCH  10  24
ATOM     24  C   UNL     1      -6.607  11.779  19.492  0.00  0.00    +0.000 C 
ATOM     25  F   UNL     1      -7.320  10.621  19.405  0.00  0.00    +0.000 F 
ATOM     26  F   UNL     1      -6.648  12.141  20.803  0.00  0.00    +0.000 F 
ATOM     27  F   UNL     1      -7.338  12.712  18.822  0.00  0.00    +0.000 F 
ENDBRANCH  10  24
TORSDOF 1
ENDMDL
MODEL 7
REMARK VINA RESULT:      -6.3      3.374      5.859
REMARK  Name = 
REMARK  3 active torsions:
REMARK  status: ('A' for Active; 'I' for Inactive)
REMARK    1  A    between atoms: C_1  and  N_2
REMARK    2  A    between atoms: C_10  and  C_11
REMARK    3  A    between atoms: N_21  and  C_22
REMARK                            x       y       z     vdW  Elec       q    Type
REMARK                         _______ _______ _______ _____ _____    ______ ____
ROOT
ATOM      1  C   UNL     1      -7.720  14.494  16.509  0.00  0.00    +0.000 C 
ATOM      2  N   UNL     1      -7.181  13.877  17.716  0.00  0.00    +0.000 NA
ATOM      3  C   UNL     1      -6.439  14.853  18.539  0.00  0.00    +0.000 C 
ATOM      4  C   UNL     1      -5.920  14.225  19.854  0.00  0.00    +0.000 C 
ATOM      5  N   UNL     1      -5.172  12.986  19.611  0.00  0.00    +0.000 N 
ATOM      6  C   UNL     1      -3.889  12.802  20.079  0.00  0.00    +0.000 C 
ATOM      7  N   UNL     1      -2.896  12.524  19.297  0.00  0.00    +0.000 NA
ATOM      8  C   UNL     1      -1.585  12.243  19.733  0.00  0.00    +0.000 A 
ATOM      9  C   UNL     1      -0.915  11.278  18.970  0.00  0.00    +0.000 A 
ATOM     10  C   UNL     1       0.392  10.863  19.265  0.00  0.00    +0.000 A 
ATOM     11  C   UNL     1       1.063  11.469  20.329  0.00  0.00    +0.000 A 
ATOM     12  C   UNL     1       0.431  12.459  21.083  0.00  0.00    +0.000 A 
ATOM     13  C   UNL     1      -0.893  12.852  20.805  0.00  0.00    +0.000 A 
ATOM     14  N   UNL     1      -1.523  13.730  21.730  0.00  0.00    +0.000 N 
ATOM     15  C   UNL     1      -2.707  13.382  22.275  0.00  0.00    +0.000 A 
ATOM     16  N   UNL     1      -2.956  13.384  23.587  0.00  0.00    +0.000 NA
ATOM     17  N   UNL     1      -4.154  12.781  23.677  0.00  0.00    +0.000 N 
ATOM     18  C   UNL     1      -4.692  12.425  24.966  0.00  0.00    +0.000 C 
ATOM     19  C   UNL     1      -4.721  12.513  22.467  0.00  0.00    +0.000 A 
ATOM     20  C   UNL     1      -3.794  12.901  21.520  0.00  0.00    +0.000 A 
ATOM     21  C   UNL     1      -5.756  12.055  18.645  0.00  0.00    +0.000 C 
ATOM     22  C   UNL     1      -6.261  12.769  17.379  0.00  0.00    +0.000 C 
ATOM     23  H   UNL     1      -0.870  14.114  22.399  0.00  0.00    +0.000 HD
ENDROOT
BRANCH  10  24
ATOM     24  C   UNL     1       1.040   9.777  18.445  0.00  0.00    +0.000 C 
ATOM     25  F   UNL     1       0.227   9.261  17.481  0.00  0.00    +0.000 F 
ATOM     26  F   UNL     1       2.156  10.208  17.795  0.00  0.00    +0.000 F 
ATOM     27  F   UNL     1       1.434   8.715  19.201  0.00  0.00    +0.000 F 
ENDBRANCH  10  24
TORSDOF 1
ENDMDL
MODEL 8
REMARK VINA RESULT:      -6.2      4.587      6.279
REMARK  Name = 
REMARK  3 active torsions:
REMARK  status: ('A' for Active; 'I' for Inactive)
REMARK    1  A    between atoms: C_1  and  N_2
REMARK    2  A    between atoms: C_10  and  C_11
REMARK    3  A    between atoms: N_21  and  C_22
REMARK                            x       y       z     vdW  Elec       q    Type
REMARK                         _______ _______ _______ _____ _____    ______ ____
ROOT
ATOM      1  C   UNL     1       1.361  17.820  20.351  0.00  0.00    +0.000 C 
ATOM      2  N   UNL     1       1.100  16.436  20.733  0.00  0.00    +0.000 NA
ATOM      3  C   UNL     1       1.703  15.487  19.776  0.00  0.00    +0.000 C 
ATOM      4  C   UNL     1       1.489  14.017  20.206  0.00  0.00    +0.000 C 
ATOM      5  N   UNL     1       0.079  13.731  20.494  0.00  0.00    +0.000 N 
ATOM      6  C   UNL     1      -0.599  12.699  19.880  0.00  0.00    +0.000 C 
ATOM      7  N   UNL     1      -1.682  12.887  19.198  0.00  0.00    +0.000 NA
ATOM      8  C   UNL     1      -2.458  11.858  18.623  0.00  0.00    +0.000 A 
ATOM      9  C   UNL     1      -3.838  12.097  18.637  0.00  0.00    +0.000 A 
ATOM     10  C   UNL     1      -4.764  11.179  18.122  0.00  0.00    +0.000 A 
ATOM     11  C   UNL     1      -4.286  10.007  17.531  0.00  0.00    +0.000 A 
ATOM     12  C   UNL     1      -2.913   9.761  17.472  0.00  0.00    +0.000 A 
ATOM     13  C   UNL     1      -1.987  10.671  18.019  0.00  0.00    +0.000 A 
ATOM     14  N   UNL     1      -0.626  10.261  18.082  0.00  0.00    +0.000 N 
ATOM     15  C   UNL     1       0.024  10.294  19.263  0.00  0.00    +0.000 A 
ATOM     16  N   UNL     1       0.698   9.261  19.775  0.00  0.00    +0.000 NA
ATOM     17  N   UNL     1       0.991   9.669  21.022  0.00  0.00    +0.000 N 
ATOM     18  C   UNL     1       1.566   8.747  21.970  0.00  0.00    +0.000 C 
ATOM     19  C   UNL     1       0.637  10.961  21.270  0.00  0.00    +0.000 A 
ATOM     20  C   UNL     1      -0.001  11.404  20.128  0.00  0.00    +0.000 A 
ATOM     21  C   UNL     1      -0.641  14.737  21.276  0.00  0.00    +0.000 C 
ATOM     22  C   UNL     1      -0.354  16.168  20.789  0.00  0.00    +0.000 C 
ATOM     23  H   UNL     1      -0.456   9.416  17.553  0.00  0.00    +0.000 HD
ENDROOT
BRANCH  10  24
ATOM     24  C   UNL     1      -6.241  11.463  18.218  0.00  0.00    +0.000 C 
ATOM     25  F   UNL     1      -6.735  12.151  17.151  0.00  0.00    +0.000 F 
ATOM     26  F   UNL     1      -6.987  10.328  18.304  0.00  0.00    +0.000 F 
ATOM     27  F   UNL     1      -6.560  12.205  19.315  0.00  0.00    +0.000 F 
ENDBRANCH  10  24
TORSDOF 1
ENDMDL
MODEL 9
REMARK VINA RESULT:      -6.1      2.459      5.130
REMARK  Name = 
REMARK  3 active torsions:
REMARK  status: ('A' for Active; 'I' for Inactive)
REMARK    1  A    between atoms: C_1  and  N_2
REMARK    2  A    between atoms: C_10  and  C_11
REMARK    3  A    between atoms: N_21  and  C_22
REMARK                            x       y       z     vdW  Elec       q    Type
REMARK                         _______ _______ _______ _____ _____    ______ ____
ROOT
ATOM      1  C   UNL     1       1.376  18.590  19.734  0.00  0.00    +0.000 C 
ATOM      2  N   UNL     1       0.361  17.548  19.837  0.00  0.00    +0.000 NA
ATOM      3  C   UNL     1       0.235  17.048  21.221  0.00  0.00    +0.000 C 
ATOM      4  C   UNL     1      -0.885  15.990  21.355  0.00  0.00    +0.000 C 
ATOM      5  N   UNL     1      -0.745  14.917  20.363  0.00  0.00    +0.000 N 
ATOM      6  C   UNL     1      -0.693  13.588  20.725  0.00  0.00    +0.000 C 
ATOM      7  N   UNL     1       0.298  12.819  20.408  0.00  0.00    +0.000 NA
ATOM      8  C   UNL     1       0.359  11.436  20.679  0.00  0.00    +0.000 A 
ATOM      9  C   UNL     1       1.000  10.680  19.690  0.00  0.00    +0.000 A 
ATOM     10  C   UNL     1       1.142   9.288  19.783  0.00  0.00    +0.000 A 
ATOM     11  C   UNL     1       0.669   8.642  20.927  0.00  0.00    +0.000 A 
ATOM     12  C   UNL     1       0.059   9.377  21.946  0.00  0.00    +0.000 A 
ATOM     13  C   UNL     1      -0.111  10.772  21.834  0.00  0.00    +0.000 A 
ATOM     14  N   UNL     1      -0.902  11.414  22.826  0.00  0.00    +0.000 N 
ATOM     15  C   UNL     1      -1.951  12.174  22.449  0.00  0.00    +0.000 A 
ATOM     16  N   UNL     1      -3.187  12.037  22.936  0.00  0.00    +0.000 NA
ATOM     17  N   UNL     1      -3.924  12.834  22.142  0.00  0.00    +0.000 N 
ATOM     18  C   UNL     1      -5.363  12.818  22.233  0.00  0.00    +0.000 C 
ATOM     19  C   UNL     1      -3.182  13.559  21.259  0.00  0.00    +0.000 A 
ATOM     20  C   UNL     1      -1.875  13.150  21.438  0.00  0.00    +0.000 A 
ATOM     21  C   UNL     1      -0.419  15.334  18.999  0.00  0.00    +0.000 C 
ATOM     22  C   UNL     1       0.690  16.400  18.964  0.00  0.00    +0.000 C 
ATOM     23  H   UNL     1      -1.107  10.806  23.607  0.00  0.00    +0.000 HD
ENDROOT
BRANCH  10  24
ATOM     24  C   UNL     1       1.788   8.519  18.659  0.00  0.00    +0.000 C 
ATOM     25  F   UNL     1       2.934   9.092  18.194  0.00  0.00    +0.000 F 
ATOM     26  F   UNL     1       2.128   7.252  19.020  0.00  0.00    +0.000 F 
ATOM     27  F   UNL     1       0.973   8.394  17.575  0.00  0.00    +0.000 F 
ENDBRANCH  10  24
TORSDOF 1
ENDMDL
