MODEL 1
REMARK VINA RESULT:      -6.9      0.000      0.000
REMARK  Name = 
REMARK  8 active torsions:
REMARK  status: ('A' for Active; 'I' for Inactive)
REMARK    1  A    between atoms: C_1  and  O_2
REMARK    2  A    between atoms: O_2  and  C_3
REMARK    3  A    between atoms: C_3  and  C_5
REMARK    4  A    between atoms: C_5  and  N_6
REMARK    5  A    between atoms: C_7  and  C_9
REMARK    6  A    between atoms: C_9  and  N_10
REMARK    7  A    between atoms: N_17  and  C_18
REMARK    8  A    between atoms: N_21  and  C_22
REMARK                            x       y       z     vdW  Elec       q    Type
REMARK                         _______ _______ _______ _____ _____    ______ ____
ROOT
ATOM      1  N   UNL     1       4.290   6.304  18.094  0.00  0.00    +0.000 N 
ATOM      2  C   UNL     1       3.167   7.092  18.149  0.00  0.00    +0.000 A 
ATOM      3  N   UNL     1       2.219   6.535  18.875  0.00  0.00    +0.000 NA
ATOM      4  C   UNL     1       2.753   5.354  19.288  0.00  0.00    +0.000 A 
ATOM      5  C   UNL     1       4.028   5.189  18.838  0.00  0.00    +0.000 A 
ATOM      6  C   UNL     1       4.813   4.042  19.134  0.00  0.00    +0.000 A 
ATOM      7  O   UNL     1       5.958   3.901  18.708  0.00  0.00    +0.000 OA
ATOM      8  N   UNL     1       4.141   3.114  19.931  0.00  0.00    +0.000 N 
ATOM      9  C   UNL     1       4.837   1.897  20.302  0.00  0.00    +0.000 C 
ATOM     10  C   UNL     1       2.813   3.236  20.395  0.00  0.00    +0.000 A 
ATOM     11  O   UNL     1       2.293   2.343  21.068  0.00  0.00    +0.000 OA
ATOM     12  N   UNL     1       2.126   4.401  20.054  0.00  0.00    +0.000 N 
ATOM     13  C   UNL     1       0.751   4.597  20.477  0.00  0.00    +0.000 C 
ENDROOT
BRANCH   1  14
ATOM     14  C   UNL     1       5.514   6.626  17.389  0.00  0.00    +0.000 C 
BRANCH  14  16
ATOM     15  N   UNL     1       5.920   4.898  15.707  0.00  0.00    +0.000 N 
ATOM     16  C   UNL     1       5.462   6.174  15.945  0.00  0.00    +0.000 C 
ATOM     17  O   UNL     1       5.060   6.906  15.043  0.00  0.00    +0.000 OA
ATOM     18  H   UNL     1       6.060   4.248  16.479  0.00  0.00    +0.000 HD
BRANCH  15  19
ATOM     19  C   UNL     1       5.915   4.348  14.358  0.00  0.00    +0.000 C 
BRANCH  19  20
ATOM     20  C   UNL     1       7.145   4.778  13.577  0.00  0.00    +0.000 C 
ATOM     21  O   UNL     1       8.037   5.495  14.021  0.00  0.00    +0.000 OA
BRANCH  20  23
ATOM     22  C   UNL     1       6.145   3.216  12.142  0.00  0.00    +0.000 C 
ATOM     23  O   UNL     1       7.112   4.251  12.320  0.00  0.00    +0.000 OA
ENDBRANCH  20  23
ENDBRANCH  19  20
ENDBRANCH  15  19
ENDBRANCH  14  16
ENDBRANCH   1  14
TORSDOF 5
ENDMDL
MODEL 2
REMARK VINA RESULT:      -6.8      2.271      4.124
REMARK  Name = 
REMARK  8 active torsions:
REMARK  status: ('A' for Active; 'I' for Inactive)
REMARK    1  A    between atoms: C_1  and  O_2
REMARK    2  A    between atoms: O_2  and  C_3
REMARK    3  A    between atoms: C_3  and  C_5
REMARK    4  A    between atoms: C_5  and  N_6
REMARK    5  A    between atoms: C_7  and  C_9
REMARK    6  A    between atoms: C_9  and  N_10
REMARK    7  A    between atoms: N_17  and  C_18
REMARK    8  A    between atoms: N_21  and  C_22
REMARK                            x       y       z     vdW  Elec       q    Type
REMARK                         _______ _______ _______ _____ _____    ______ ____
ROOT
ATOM      1  N   UNL     1       4.013   3.420  17.358  0.00  0.00    +0.000 N 
ATOM      2  C   UNL     1       3.848   2.196  17.956  0.00  0.00    +0.000 A 
ATOM      3  N   UNL     1       3.168   2.292  19.080  0.00  0.00    +0.000 NA
ATOM      4  C   UNL     1       2.899   3.620  19.205  0.00  0.00    +0.000 A 
ATOM      5  C   UNL     1       3.391   4.338  18.157  0.00  0.00    +0.000 A 
ATOM      6  C   UNL     1       3.241   5.746  18.041  0.00  0.00    +0.000 A 
ATOM      7  O   UNL     1       3.704   6.381  17.096  0.00  0.00    +0.000 OA
ATOM      8  N   UNL     1       2.537   6.307  19.108  0.00  0.00    +0.000 N 
ATOM      9  C   UNL     1       2.317   7.740  19.107  0.00  0.00    +0.000 C 
ATOM     10  C   UNL     1       2.034   5.602  20.224  0.00  0.00    +0.000 A 
ATOM     11  O   UNL     1       1.452   6.193  21.137  0.00  0.00    +0.000 OA
ATOM     12  N   UNL     1       2.230   4.221  20.243  0.00  0.00    +0.000 N 
ATOM     13  C   UNL     1       1.759   3.426  21.363  0.00  0.00    +0.000 C 
ENDROOT
BRANCH   1  14
ATOM     14  C   UNL     1       4.705   3.664  16.108  0.00  0.00    +0.000 C 
BRANCH  14  16
ATOM     15  N   UNL     1       6.511   4.234  17.654  0.00  0.00    +0.000 N 
ATOM     16  C   UNL     1       6.110   4.178  16.339  0.00  0.00    +0.000 C 
ATOM     17  O   UNL     1       6.834   4.543  15.416  0.00  0.00    +0.000 OA
ATOM     18  H   UNL     1       5.981   3.749  18.377  0.00  0.00    +0.000 HD
BRANCH  15  19
ATOM     19  C   UNL     1       7.844   4.706  18.004  0.00  0.00    +0.000 C 
BRANCH  19  20
ATOM     20  C   UNL     1       7.798   5.715  19.139  0.00  0.00    +0.000 C 
ATOM     21  O   UNL     1       7.421   5.463  20.280  0.00  0.00    +0.000 OA
BRANCH  20  23
ATOM     22  C   UNL     1       7.546   7.432  17.562  0.00  0.00    +0.000 C 
ATOM     23  O   UNL     1       8.238   6.931  18.707  0.00  0.00    +0.000 OA
ENDBRANCH  20  23
ENDBRANCH  19  20
ENDBRANCH  15  19
ENDBRANCH  14  16
ENDBRANCH   1  14
TORSDOF 5
ENDMDL
MODEL 3
REMARK VINA RESULT:      -6.6      2.471      6.233
REMARK  Name = 
REMARK  8 active torsions:
REMARK  status: ('A' for Active; 'I' for Inactive)
REMARK    1  A    between atoms: C_1  and  O_2
REMARK    2  A    between atoms: O_2  and  C_3
REMARK    3  A    between atoms: C_3  and  C_5
REMARK    4  A    between atoms: C_5  and  N_6
REMARK    5  A    between atoms: C_7  and  C_9
REMARK    6  A    between atoms: C_9  and  N_10
REMARK    7  A    between atoms: N_17  and  C_18
REMARK    8  A    between atoms: N_21  and  C_22
REMARK                            x       y       z     vdW  Elec       q    Type
REMARK                         _______ _______ _______ _____ _____    ______ ____
ROOT
ATOM      1  N   UNL     1       3.887   3.485  18.731  0.00  0.00    +0.000 N 
ATOM      2  C   UNL     1       3.243   2.902  17.667  0.00  0.00    +0.000 A 
ATOM      3  N   UNL     1       3.808   3.223  16.521  0.00  0.00    +0.000 NA
ATOM      4  C   UNL     1       4.839   4.042  16.866  0.00  0.00    +0.000 A 
ATOM      5  C   UNL     1       4.924   4.211  18.215  0.00  0.00    +0.000 A 
ATOM      6  C   UNL     1       5.917   5.015  18.836  0.00  0.00    +0.000 A 
ATOM      7  O   UNL     1       5.971   5.168  20.055  0.00  0.00    +0.000 OA
ATOM      8  N   UNL     1       6.791   5.604  17.920  0.00  0.00    +0.000 N 
ATOM      9  C   UNL     1       7.851   6.450  18.431  0.00  0.00    +0.000 C 
ATOM     10  C   UNL     1       6.720   5.475  16.516  0.00  0.00    +0.000 A 
ATOM     11  O   UNL     1       7.520   6.063  15.785  0.00  0.00    +0.000 OA
ATOM     12  N   UNL     1       5.710   4.660  16.002  0.00  0.00    +0.000 N 
ATOM     13  C   UNL     1       5.559   4.488  14.569  0.00  0.00    +0.000 C 
ENDROOT
BRANCH   1  14
ATOM     14  C   UNL     1       3.526   3.330  20.125  0.00  0.00    +0.000 C 
BRANCH  14  16
ATOM     15  N   UNL     1       2.627   5.570  20.515  0.00  0.00    +0.000 N 
ATOM     16  C   UNL     1       2.361   4.220  20.503  0.00  0.00    +0.000 C 
ATOM     17  O   UNL     1       1.260   3.765  20.803  0.00  0.00    +0.000 OA
ATOM     18  H   UNL     1       3.474   5.933  20.079  0.00  0.00    +0.000 HD
BRANCH  15  19
ATOM     19  C   UNL     1       1.586   6.529  20.858  0.00  0.00    +0.000 C 
BRANCH  19  20
ATOM     20  C   UNL     1       1.777   7.846  20.125  0.00  0.00    +0.000 C 
ATOM     21  O   UNL     1       1.318   8.922  20.496  0.00  0.00    +0.000 OA
BRANCH  20  23
ATOM     22  C   UNL     1       2.088   8.393  17.866  0.00  0.00    +0.000 C 
ATOM     23  O   UNL     1       2.533   7.657  19.006  0.00  0.00    +0.000 OA
ENDBRANCH  20  23
ENDBRANCH  19  20
ENDBRANCH  15  19
ENDBRANCH  14  16
ENDBRANCH   1  14
TORSDOF 5
ENDMDL
MODEL 4
REMARK VINA RESULT:      -6.6      1.866      2.830
REMARK  Name = 
REMARK  8 active torsions:
REMARK  status: ('A' for Active; 'I' for Inactive)
REMARK    1  A    between atoms: C_1  and  O_2
REMARK    2  A    between atoms: O_2  and  C_3
REMARK    3  A    between atoms: C_3  and  C_5
REMARK    4  A    between atoms: C_5  and  N_6
REMARK    5  A    between atoms: C_7  and  C_9
REMARK    6  A    between atoms: C_9  and  N_10
REMARK    7  A    between atoms: N_17  and  C_18
REMARK    8  A    between atoms: N_21  and  C_22
REMARK                            x       y       z     vdW  Elec       q    Type
REMARK                         _______ _______ _______ _____ _____    ______ ____
ROOT
ATOM      1  N   UNL     1       5.835   5.117  16.821  0.00  0.00    +0.000 N 
ATOM      2  C   UNL     1       5.911   6.487  16.842  0.00  0.00    +0.000 A 
ATOM      3  N   UNL     1       4.884   7.021  17.471  0.00  0.00    +0.000 NA
ATOM      4  C   UNL     1       4.127   5.957  17.855  0.00  0.00    +0.000 A 
ATOM      5  C   UNL     1       4.691   4.774  17.484  0.00  0.00    +0.000 A 
ATOM      6  C   UNL     1       4.104   3.512  17.770  0.00  0.00    +0.000 A 
ATOM      7  O   UNL     1       4.619   2.453  17.415  0.00  0.00    +0.000 OA
ATOM      8  N   UNL     1       2.900   3.617  18.469  0.00  0.00    +0.000 N 
ATOM      9  C   UNL     1       2.202   2.395  18.820  0.00  0.00    +0.000 C 
ATOM     10  C   UNL     1       2.272   4.823  18.848  0.00  0.00    +0.000 A 
ATOM     11  O   UNL     1       1.187   4.814  19.435  0.00  0.00    +0.000 OA
ATOM     12  N   UNL     1       2.929   6.011  18.524  0.00  0.00    +0.000 N 
ATOM     13  C   UNL     1       2.341   7.294  18.863  0.00  0.00    +0.000 C 
ENDROOT
BRANCH   1  14
ATOM     14  C   UNL     1       6.805   4.226  16.218  0.00  0.00    +0.000 C 
BRANCH  14  16
ATOM     15  N   UNL     1       6.369   3.577  13.902  0.00  0.00    +0.000 N 
ATOM     16  C   UNL     1       6.965   4.494  14.737  0.00  0.00    +0.000 C 
ATOM     17  O   UNL     1       7.605   5.452  14.310  0.00  0.00    +0.000 OA
ATOM     18  H   UNL     1       5.688   2.913  14.267  0.00  0.00    +0.000 HD
BRANCH  15  19
ATOM     19  C   UNL     1       6.449   3.729  12.455  0.00  0.00    +0.000 C 
BRANCH  19  20
ATOM     20  C   UNL     1       5.395   2.894  11.748  0.00  0.00    +0.000 C 
ATOM     21  O   UNL     1       5.540   1.720  11.422  0.00  0.00    +0.000 OA
BRANCH  20  23
ATOM     22  C   UNL     1       3.363   3.068  10.590  0.00  0.00    +0.000 C 
ATOM     23  O   UNL     1       4.272   3.637  11.534  0.00  0.00    +0.000 OA
ENDBRANCH  20  23
ENDBRANCH  19  20
ENDBRANCH  15  19
ENDBRANCH  14  16
ENDBRANCH   1  14
TORSDOF 5
ENDMDL
MODEL 5
REMARK VINA RESULT:      -6.6      2.594      6.320
REMARK  Name = 
REMARK  8 active torsions:
REMARK  status: ('A' for Active; 'I' for Inactive)
REMARK    1  A    between atoms: C_1  and  O_2
REMARK    2  A    between atoms: O_2  and  C_3
REMARK    3  A    between atoms: C_3  and  C_5
REMARK    4  A    between atoms: C_5  and  N_6
REMARK    5  A    between atoms: C_7  and  C_9
REMARK    6  A    between atoms: C_9  and  N_10
REMARK    7  A    between atoms: N_17  and  C_18
REMARK    8  A    between atoms: N_21  and  C_22
REMARK                            x       y       z     vdW  Elec       q    Type
REMARK                         _______ _______ _______ _____ _____    ______ ____
ROOT
ATOM      1  N   UNL     1       3.682   3.782  18.617  0.00  0.00    +0.000 N 
ATOM      2  C   UNL     1       3.063   3.114  17.590  0.00  0.00    +0.000 A 
ATOM      3  N   UNL     1       3.692   3.290  16.446  0.00  0.00    +0.000 NA
ATOM      4  C   UNL     1       4.741   4.101  16.754  0.00  0.00    +0.000 A 
ATOM      5  C   UNL     1       4.771   4.410  18.080  0.00  0.00    +0.000 A 
ATOM      6  C   UNL     1       5.769   5.237  18.662  0.00  0.00    +0.000 A 
ATOM      7  O   UNL     1       5.774   5.518  19.859  0.00  0.00    +0.000 OA
ATOM      8  N   UNL     1       6.707   5.692  17.734  0.00  0.00    +0.000 N 
ATOM      9  C   UNL     1       7.779   6.548  18.205  0.00  0.00    +0.000 C 
ATOM     10  C   UNL     1       6.695   5.417  16.350  0.00  0.00    +0.000 A 
ATOM     11  O   UNL     1       7.552   5.894  15.602  0.00  0.00    +0.000 OA
ATOM     12  N   UNL     1       5.676   4.591  15.874  0.00  0.00    +0.000 N 
ATOM     13  C   UNL     1       5.583   4.273  14.461  0.00  0.00    +0.000 C 
ENDROOT
BRANCH   1  14
ATOM     14  C   UNL     1       3.252   3.791  20.000  0.00  0.00    +0.000 C 
BRANCH  14  16
ATOM     15  N   UNL     1       2.680   6.147  20.311  0.00  0.00    +0.000 N 
ATOM     16  C   UNL     1       2.207   4.856  20.254  0.00  0.00    +0.000 C 
ATOM     17  O   UNL     1       1.021   4.584  20.423  0.00  0.00    +0.000 OA
ATOM     18  H   UNL     1       3.618   6.369  19.977  0.00  0.00    +0.000 HD
BRANCH  15  19
ATOM     19  C   UNL     1       1.771   7.261  20.545  0.00  0.00    +0.000 C 
BRANCH  19  20
ATOM     20  C   UNL     1       1.811   8.263  19.403  0.00  0.00    +0.000 C 
ATOM     21  O   UNL     1       2.377   8.074  18.330  0.00  0.00    +0.000 OA
BRANCH  20  23
ATOM     22  C   UNL     1       0.895  10.288  18.656  0.00  0.00    +0.000 C 
ATOM     23  O   UNL     1       1.128   9.392  19.744  0.00  0.00    +0.000 OA
ENDBRANCH  20  23
ENDBRANCH  19  20
ENDBRANCH  15  19
ENDBRANCH  14  16
ENDBRANCH   1  14
TORSDOF 5
ENDMDL
MODEL 6
REMARK VINA RESULT:      -6.6      1.876      3.197
REMARK  Name = 
REMARK  8 active torsions:
REMARK  status: ('A' for Active; 'I' for Inactive)
REMARK    1  A    between atoms: C_1  and  O_2
REMARK    2  A    between atoms: O_2  and  C_3
REMARK    3  A    between atoms: C_3  and  C_5
REMARK    4  A    between atoms: C_5  and  N_6
REMARK    5  A    between atoms: C_7  and  C_9
REMARK    6  A    between atoms: C_9  and  N_10
REMARK    7  A    between atoms: N_17  and  C_18
REMARK    8  A    between atoms: N_21  and  C_22
REMARK                            x       y       z     vdW  Elec       q    Type
REMARK                         _______ _______ _______ _____ _____    ______ ____
ROOT
ATOM      1  N   UNL     1       4.774   4.971  16.671  0.00  0.00    +0.000 N 
ATOM      2  C   UNL     1       4.903   3.605  16.680  0.00  0.00    +0.000 A 
ATOM      3  N   UNL     1       4.199   3.056  17.649  0.00  0.00    +0.000 NA
ATOM      4  C   UNL     1       3.610   4.107  18.281  0.00  0.00    +0.000 A 
ATOM      5  C   UNL     1       3.931   5.295  17.696  0.00  0.00    +0.000 A 
ATOM      6  C   UNL     1       3.442   6.546  18.161  0.00  0.00    +0.000 A 
ATOM      7  O   UNL     1       3.752   7.611  17.631  0.00  0.00    +0.000 OA
ATOM      8  N   UNL     1       2.601   6.423  19.269  0.00  0.00    +0.000 N 
ATOM      9  C   UNL     1       2.036   7.632  19.838  0.00  0.00    +0.000 C 
ATOM     10  C   UNL     1       2.266   5.215  19.918  0.00  0.00    +0.000 A 
ATOM     11  O   UNL     1       1.539   5.212  20.914  0.00  0.00    +0.000 OA
ATOM     12  N   UNL     1       2.794   4.039  19.384  0.00  0.00    +0.000 N 
ATOM     13  C   UNL     1       2.511   2.757  20.003  0.00  0.00    +0.000 C 
ENDROOT
BRANCH   1  14
ATOM     14  C   UNL     1       5.408   5.874  15.733  0.00  0.00    +0.000 C 
BRANCH  14  16
ATOM     15  N   UNL     1       5.626   4.343  13.839  0.00  0.00    +0.000 N 
ATOM     16  C   UNL     1       6.290   5.131  14.751  0.00  0.00    +0.000 C 
ATOM     17  O   UNL     1       7.515   5.208  14.783  0.00  0.00    +0.000 OA
ATOM     18  H   UNL     1       4.621   4.445  13.703  0.00  0.00    +0.000 HD
BRANCH  15  19
ATOM     19  C   UNL     1       6.364   3.582  12.840  0.00  0.00    +0.000 C 
BRANCH  19  20
ATOM     20  C   UNL     1       5.428   2.841  11.901  0.00  0.00    +0.000 C 
ATOM     21  O   UNL     1       5.667   1.746  11.400  0.00  0.00    +0.000 OA
BRANCH  20  23
ATOM     22  C   UNL     1       3.471   3.089  10.633  0.00  0.00    +0.000 C 
ATOM     23  O   UNL     1       4.290   3.565  11.702  0.00  0.00    +0.000 OA
ENDBRANCH  20  23
ENDBRANCH  19  20
ENDBRANCH  15  19
ENDBRANCH  14  16
ENDBRANCH   1  14
TORSDOF 5
ENDMDL
MODEL 7
REMARK VINA RESULT:      -6.6      1.652      2.557
REMARK  Name = 
REMARK  8 active torsions:
REMARK  status: ('A' for Active; 'I' for Inactive)
REMARK    1  A    between atoms: C_1  and  O_2
REMARK    2  A    between atoms: O_2  and  C_3
REMARK    3  A    between atoms: C_3  and  C_5
REMARK    4  A    between atoms: C_5  and  N_6
REMARK    5  A    between atoms: C_7  and  C_9
REMARK    6  A    between atoms: C_9  and  N_10
REMARK    7  A    between atoms: N_17  and  C_18
REMARK    8  A    between atoms: N_21  and  C_22
REMARK                            x       y       z     vdW  Elec       q    Type
REMARK                         _______ _______ _______ _____ _____    ______ ____
ROOT
ATOM      1  N   UNL     1       5.253   5.143  17.194  0.00  0.00    +0.000 N 
ATOM      2  C   UNL     1       5.164   6.407  16.667  0.00  0.00    +0.000 A 
ATOM      3  N   UNL     1       4.251   7.128  17.286  0.00  0.00    +0.000 NA
ATOM      4  C   UNL     1       3.739   6.294  18.232  0.00  0.00    +0.000 A 
ATOM      5  C   UNL     1       4.343   5.073  18.211  0.00  0.00    +0.000 A 
ATOM      6  C   UNL     1       3.996   4.021  19.101  0.00  0.00    +0.000 A 
ATOM      7  O   UNL     1       4.541   2.919  19.060  0.00  0.00    +0.000 OA
ATOM      8  N   UNL     1       2.982   4.374  19.992  0.00  0.00    +0.000 N 
ATOM      9  C   UNL     1       2.537   3.384  20.954  0.00  0.00    +0.000 C 
ATOM     10  C   UNL     1       2.314   5.618  20.028  0.00  0.00    +0.000 A 
ATOM     11  O   UNL     1       1.403   5.825  20.833  0.00  0.00    +0.000 OA
ATOM     12  N   UNL     1       2.729   6.588  19.115  0.00  0.00    +0.000 N 
ATOM     13  C   UNL     1       2.082   7.887  19.075  0.00  0.00    +0.000 C 
ENDROOT
BRANCH   1  14
ATOM     14  C   UNL     1       6.160   4.105  16.751  0.00  0.00    +0.000 C 
BRANCH  14  16
ATOM     15  N   UNL     1       6.006   3.882  14.321  0.00  0.00    +0.000 N 
ATOM     16  C   UNL     1       6.720   4.402  15.376  0.00  0.00    +0.000 C 
ATOM     17  O   UNL     1       7.756   5.043  15.215  0.00  0.00    +0.000 OA
ATOM     18  H   UNL     1       5.060   3.529  14.462  0.00  0.00    +0.000 HD
BRANCH  15  19
ATOM     19  C   UNL     1       6.441   4.104  12.949  0.00  0.00    +0.000 C 
BRANCH  19  20
ATOM     20  C   UNL     1       5.842   3.079  12.001  0.00  0.00    +0.000 C 
ATOM     21  O   UNL     1       4.668   3.065  11.642  0.00  0.00    +0.000 OA
BRANCH  20  23
ATOM     22  C   UNL     1       6.275   0.984  11.041  0.00  0.00    +0.000 C 
ATOM     23  O   UNL     1       6.795   2.187  11.609  0.00  0.00    +0.000 OA
ENDBRANCH  20  23
ENDBRANCH  19  20
ENDBRANCH  15  19
ENDBRANCH  14  16
ENDBRANCH   1  14
TORSDOF 5
ENDMDL
MODEL 8
REMARK VINA RESULT:      -6.6      1.870      3.179
REMARK  Name = 
REMARK  8 active torsions:
REMARK  status: ('A' for Active; 'I' for Inactive)
REMARK    1  A    between atoms: C_1  and  O_2
REMARK    2  A    between atoms: O_2  and  C_3
REMARK    3  A    between atoms: C_3  and  C_5
REMARK    4  A    between atoms: C_5  and  N_6
REMARK    5  A    between atoms: C_7  and  C_9
REMARK    6  A    between atoms: C_9  and  N_10
REMARK    7  A    between atoms: N_17  and  C_18
REMARK    8  A    between atoms: N_21  and  C_22
REMARK                            x       y       z     vdW  Elec       q    Type
REMARK                         _______ _______ _______ _____ _____    ______ ____
ROOT
ATOM      1  N   UNL     1       4.730   4.998  16.694  0.00  0.00    +0.000 N 
ATOM      2  C   UNL     1       4.889   3.636  16.755  0.00  0.00    +0.000 A 
ATOM      3  N   UNL     1       4.214   3.112  17.758  0.00  0.00    +0.000 NA
ATOM      4  C   UNL     1       3.613   4.175  18.358  0.00  0.00    +0.000 A 
ATOM      5  C   UNL     1       3.898   5.345  17.721  0.00  0.00    +0.000 A 
ATOM      6  C   UNL     1       3.390   6.603  18.144  0.00  0.00    +0.000 A 
ATOM      7  O   UNL     1       3.668   7.652  17.566  0.00  0.00    +0.000 OA
ATOM      8  N   UNL     1       2.571   6.508  19.271  0.00  0.00    +0.000 N 
ATOM      9  C   UNL     1       1.990   7.726  19.801  0.00  0.00    +0.000 C 
ATOM     10  C   UNL     1       2.274   5.320  19.974  0.00  0.00    +0.000 A 
ATOM     11  O   UNL     1       1.566   5.342  20.983  0.00  0.00    +0.000 OA
ATOM     12  N   UNL     1       2.819   4.135  19.478  0.00  0.00    +0.000 N 
ATOM     13  C   UNL     1       2.575   2.873  20.152  0.00  0.00    +0.000 C 
ENDROOT
BRANCH   1  14
ATOM     14  C   UNL     1       5.328   5.876  15.709  0.00  0.00    +0.000 C 
BRANCH  14  16
ATOM     15  N   UNL     1       5.510   4.335  13.820  0.00  0.00    +0.000 N 
ATOM     16  C   UNL     1       6.192   5.110  14.729  0.00  0.00    +0.000 C 
ATOM     17  O   UNL     1       7.419   5.159  14.761  0.00  0.00    +0.000 OA
ATOM     18  H   UNL     1       4.508   4.460  13.683  0.00  0.00    +0.000 HD
BRANCH  15  19
ATOM     19  C   UNL     1       6.230   3.554  12.823  0.00  0.00    +0.000 C 
BRANCH  19  20
ATOM     20  C   UNL     1       5.280   2.902  11.833  0.00  0.00    +0.000 C 
ATOM     21  O   UNL     1       4.260   3.428  11.397  0.00  0.00    +0.000 OA
BRANCH  20  23
ATOM     22  C   UNL     1       7.074   1.627  11.024  0.00  0.00    +0.000 C 
ATOM     23  O   UNL     1       5.728   1.659  11.499  0.00  0.00    +0.000 OA
ENDBRANCH  20  23
ENDBRANCH  19  20
ENDBRANCH  15  19
ENDBRANCH  14  16
ENDBRANCH   1  14
TORSDOF 5
ENDMDL
MODEL 9
REMARK VINA RESULT:      -6.5      2.827      4.552
REMARK  Name = 
REMARK  8 active torsions:
REMARK  status: ('A' for Active; 'I' for Inactive)
REMARK    1  A    between atoms: C_1  and  O_2
REMARK    2  A    between atoms: O_2  and  C_3
REMARK    3  A    between atoms: C_3  and  C_5
REMARK    4  A    between atoms: C_5  and  N_6
REMARK    5  A    between atoms: C_7  and  C_9
REMARK    6  A    between atoms: C_9  and  N_10
REMARK    7  A    between atoms: N_17  and  C_18
REMARK    8  A    between atoms: N_21  and  C_22
REMARK                            x       y       z     vdW  Elec       q    Type
REMARK                         _______ _______ _______ _____ _____    ______ ____
ROOT
ATOM      1  N   UNL     1       4.570   5.055  16.718  0.00  0.00    +0.000 N 
ATOM      2  C   UNL     1       4.646   3.691  16.585  0.00  0.00    +0.000 A 
ATOM      3  N   UNL     1       3.900   3.073  17.479  0.00  0.00    +0.000 NA
ATOM      4  C   UNL     1       3.339   4.076  18.208  0.00  0.00    +0.000 A 
ATOM      5  C   UNL     1       3.719   5.304  17.757  0.00  0.00    +0.000 A 
ATOM      6  C   UNL     1       3.269   6.519  18.342  0.00  0.00    +0.000 A 
ATOM      7  O   UNL     1       3.632   7.620  17.932  0.00  0.00    +0.000 OA
ATOM      8  N   UNL     1       2.401   6.316  19.417  0.00  0.00    +0.000 N 
ATOM      9  C   UNL     1       1.872   7.481  20.100  0.00  0.00    +0.000 C 
ATOM     10  C   UNL     1       2.006   5.062  19.930  0.00  0.00    +0.000 A 
ATOM     11  O   UNL     1       1.259   4.985  20.908  0.00  0.00    +0.000 OA
ATOM     12  N   UNL     1       2.499   3.927  19.284  0.00  0.00    +0.000 N 
ATOM     13  C   UNL     1       2.154   2.600  19.760  0.00  0.00    +0.000 C 
ENDROOT
BRANCH   1  14
ATOM     14  C   UNL     1       5.258   6.024  15.890  0.00  0.00    +0.000 C 
BRANCH  14  16
ATOM     15  N   UNL     1       6.750   7.124  17.485  0.00  0.00    +0.000 N 
ATOM     16  C   UNL     1       6.661   6.292  16.392  0.00  0.00    +0.000 C 
ATOM     17  O   UNL     1       7.654   5.817  15.846  0.00  0.00    +0.000 OA
ATOM     18  H   UNL     1       5.921   7.344  18.035  0.00  0.00    +0.000 HD
BRANCH  15  19
ATOM     19  C   UNL     1       8.046   7.453  18.063  0.00  0.00    +0.000 C 
BRANCH  19  20
ATOM     20  C   UNL     1       8.246   8.956  18.164  0.00  0.00    +0.000 C 
ATOM     21  O   UNL     1       7.651   9.785  17.481  0.00  0.00    +0.000 OA
BRANCH  20  23
ATOM     22  C   UNL     1       9.370  10.641  19.345  0.00  0.00    +0.000 C 
ATOM     23  O   UNL     1       9.174   9.244  19.120  0.00  0.00    +0.000 OA
ENDBRANCH  20  23
ENDBRANCH  19  20
ENDBRANCH  15  19
ENDBRANCH  14  16
ENDBRANCH   1  14
TORSDOF 5
ENDMDL
