MODEL 1
REMARK VINA RESULT:      -8.6      0.000      0.000
REMARK  Name = 
REMARK  10 active torsions:
REMARK  status: ('A' for Active; 'I' for Inactive)
REMARK    1  A    between atoms: C_1  and  O_2
REMARK    2  A    between atoms: O_2  and  C_3
REMARK    3  A    between atoms: C_8  and  N_9
REMARK    4  A    between atoms: C_12  and  C_13
REMARK    5  A    between atoms: C_13  and  C_14
REMARK    6  A    between atoms: C_17  and  N_18
REMARK    7  A    between atoms: C_20  and  C_21
REMARK    8  A    between atoms: C_26  and  C_27
REMARK    9  A    between atoms: C_27  and  C_28
REMARK   10  A    between atoms: C_28  and  O_30
REMARK                            x       y       z     vdW  Elec       q    Type
REMARK                         _______ _______ _______ _____ _____    ______ ____
ROOT
ATOM      1  C   UNL     1       1.185   9.026  19.617  0.00  0.00    +0.000 A 
ATOM      2  C   UNL     1       1.316   8.130  20.678  0.00  0.00    +0.000 A 
ATOM      3  C   UNL     1       2.110   6.989  20.553  0.00  0.00    +0.000 A 
ATOM      4  C   UNL     1       2.808   6.692  19.373  0.00  0.00    +0.000 A 
ATOM      5  C   UNL     1       2.665   7.603  18.318  0.00  0.00    +0.000 A 
ATOM      6  C   UNL     1       1.871   8.751  18.432  0.00  0.00    +0.000 A 
ENDROOT
BRANCH   4   7
ATOM      7  N   UNL     1       3.613   5.581  19.268  0.00  0.00    +0.000 N 
ATOM      8  C   UNL     1       4.990   5.638  18.784  0.00  0.00    +0.000 C 
ATOM      9  C   UNL     1       5.164   4.316  18.058  0.00  0.00    +0.000 C 
ATOM     10  C   UNL     1       4.359   3.367  18.950  0.00  0.00    +0.000 C 
ATOM     11  C   UNL     1       3.153   4.187  19.463  0.00  0.00    +0.000 C 
BRANCH   9  12
ATOM     12  C   UNL     1       4.663   4.409  16.626  0.00  0.00    +0.000 C 
ATOM     13  F   UNL     1       3.520   3.727  16.400  0.00  0.00    +0.000 F 
ATOM     14  F   UNL     1       4.406   5.705  16.315  0.00  0.00    +0.000 F 
ATOM     15  F   UNL     1       5.577   3.970  15.733  0.00  0.00    +0.000 F 
ENDBRANCH   9  12
BRANCH  11  16
ATOM     16  C   UNL     1       1.840   3.912  18.716  0.00  0.00    +0.000 C 
BRANCH  16  17
ATOM     17  C   UNL     1       0.972   2.882  19.388  0.00  0.00    +0.000 C 
ATOM     18  O   UNL     1       0.883   2.707  20.595  0.00  0.00    +0.000 OA
BRANCH  17  19
ATOM     19  O   UNL     1       0.257   2.160  18.494  0.00  0.00    +0.000 OA
ATOM     20  H   UNL     1      -0.592   2.574  18.243  0.00  0.00    +0.000 HD
ENDBRANCH  17  19
ENDBRANCH  16  17
ENDBRANCH  11  16
ENDBRANCH   4   7
BRANCH   1  21
ATOM     21  C   UNL     1       0.279  10.225  19.749  0.00  0.00    +0.000 C 
BRANCH  21  25
ATOM     22  N   UNL     1      -3.024  11.462  18.625  0.00  0.00    +0.000 N 
ATOM     23  C   UNL     1      -2.067  12.336  19.306  0.00  0.00    +0.000 C 
ATOM     24  C   UNL     1      -0.740  12.264  18.551  0.00  0.00    +0.000 C 
ATOM     25  C   UNL     1      -0.214  10.824  18.415  0.00  0.00    +0.000 C 
ATOM     26  C   UNL     1      -1.313   9.934  17.797  0.00  0.00    +0.000 C 
ATOM     27  C   UNL     1      -2.651  10.049  18.533  0.00  0.00    +0.000 C 
BRANCH  22  33
ATOM     28  C   UNL     1      -6.505  12.602  19.287  0.00  0.00    +0.000 A 
ATOM     29  C   UNL     1      -7.055  12.599  18.006  0.00  0.00    +0.000 A 
ATOM     30  C   UNL     1      -6.262  12.248  16.921  0.00  0.00    +0.000 A 
ATOM     31  C   UNL     1      -4.922  11.902  17.110  0.00  0.00    +0.000 A 
ATOM     32  F   UNL     1      -4.205  11.614  16.013  0.00  0.00    +0.000 F 
ATOM     33  C   UNL     1      -4.329  11.876  18.386  0.00  0.00    +0.000 A 
ATOM     34  C   UNL     1      -5.163  12.243  19.458  0.00  0.00    +0.000 A 
BRANCH  28  36
ATOM     35  C   UNL     1      -7.385  11.854  21.360  0.00  0.00    +0.000 C 
ATOM     36  O   UNL     1      -7.166  12.916  20.443  0.00  0.00    +0.000 OA
ENDBRANCH  28  36
ENDBRANCH  22  33
ENDBRANCH  21  25
ENDBRANCH   1  21
TORSDOF 9
ENDMDL
MODEL 2
REMARK VINA RESULT:      -8.6      0.905      1.014
REMARK  Name = 
REMARK  10 active torsions:
REMARK  status: ('A' for Active; 'I' for Inactive)
REMARK    1  A    between atoms: C_1  and  O_2
REMARK    2  A    between atoms: O_2  and  C_3
REMARK    3  A    between atoms: C_8  and  N_9
REMARK    4  A    between atoms: C_12  and  C_13
REMARK    5  A    between atoms: C_13  and  C_14
REMARK    6  A    between atoms: C_17  and  N_18
REMARK    7  A    between atoms: C_20  and  C_21
REMARK    8  A    between atoms: C_26  and  C_27
REMARK    9  A    between atoms: C_27  and  C_28
REMARK   10  A    between atoms: C_28  and  O_30
REMARK                            x       y       z     vdW  Elec       q    Type
REMARK                         _______ _______ _______ _____ _____    ______ ____
ROOT
ATOM      1  C   UNL     1       1.307   8.874  19.194  0.00  0.00    +0.000 A 
ATOM      2  C   UNL     1       1.565   7.877  20.134  0.00  0.00    +0.000 A 
ATOM      3  C   UNL     1       2.505   6.878  19.873  0.00  0.00    +0.000 A 
ATOM      4  C   UNL     1       3.228   6.830  18.672  0.00  0.00    +0.000 A 
ATOM      5  C   UNL     1       2.956   7.841  17.739  0.00  0.00    +0.000 A 
ATOM      6  C   UNL     1       2.015   8.848  17.990  0.00  0.00    +0.000 A 
ENDROOT
BRANCH   4   7
ATOM      7  N   UNL     1       4.174   5.860  18.434  0.00  0.00    +0.000 N 
ATOM      8  C   UNL     1       5.541   6.165  18.020  0.00  0.00    +0.000 C 
ATOM      9  C   UNL     1       5.902   5.003  17.112  0.00  0.00    +0.000 C 
ATOM     10  C   UNL     1       5.212   3.833  17.819  0.00  0.00    +0.000 C 
ATOM     11  C   UNL     1       3.897   4.405  18.400  0.00  0.00    +0.000 C 
BRANCH   9  12
ATOM     12  C   UNL     1       5.423   5.250  15.691  0.00  0.00    +0.000 C 
ATOM     13  F   UNL     1       4.593   4.296  15.219  0.00  0.00    +0.000 F 
ATOM     14  F   UNL     1       4.736   6.419  15.637  0.00  0.00    +0.000 F 
ATOM     15  F   UNL     1       6.446   5.361  14.816  0.00  0.00    +0.000 F 
ENDBRANCH   9  12
BRANCH  11  16
ATOM     16  C   UNL     1       2.648   4.084  17.568  0.00  0.00    +0.000 C 
BRANCH  16  17
ATOM     17  C   UNL     1       1.881   2.891  18.074  0.00  0.00    +0.000 C 
ATOM     18  O   UNL     1       0.865   2.937  18.752  0.00  0.00    +0.000 OA
BRANCH  17  19
ATOM     19  O   UNL     1       2.434   1.724  17.670  0.00  0.00    +0.000 OA
ATOM     20  H   UNL     1       2.287   0.983  18.290  0.00  0.00    +0.000 HD
ENDBRANCH  17  19
ENDBRANCH  16  17
ENDBRANCH  11  16
ENDBRANCH   4   7
BRANCH   1  21
ATOM     21  C   UNL     1       0.249   9.914  19.468  0.00  0.00    +0.000 C 
BRANCH  21  25
ATOM     22  N   UNL     1      -3.011  11.416  18.564  0.00  0.00    +0.000 N 
ATOM     23  C   UNL     1      -2.014  12.155  19.340  0.00  0.00    +0.000 C 
ATOM     24  C   UNL     1      -0.697  12.132  18.563  0.00  0.00    +0.000 C 
ATOM     25  C   UNL     1      -0.231  10.702  18.231  0.00  0.00    +0.000 C 
ATOM     26  C   UNL     1      -1.371   9.945  17.518  0.00  0.00    +0.000 C 
ATOM     27  C   UNL     1      -2.696  10.014  18.282  0.00  0.00    +0.000 C 
BRANCH  22  33
ATOM     28  C   UNL     1      -6.337  12.854  19.415  0.00  0.00    +0.000 A 
ATOM     29  C   UNL     1      -6.994  12.803  18.187  0.00  0.00    +0.000 A 
ATOM     30  C   UNL     1      -6.321  12.320  17.070  0.00  0.00    +0.000 A 
ATOM     31  C   UNL     1      -4.998  11.890  17.177  0.00  0.00    +0.000 A 
ATOM     32  F   UNL     1      -4.398  11.474  16.050  0.00  0.00    +0.000 F 
ATOM     33  C   UNL     1      -4.300  11.908  18.400  0.00  0.00    +0.000 A 
ATOM     34  C   UNL     1      -5.013  12.409  19.504  0.00  0.00    +0.000 A 
BRANCH  28  36
ATOM     35  C   UNL     1      -6.703  12.455  21.725  0.00  0.00    +0.000 C 
ATOM     36  O   UNL     1      -6.874  13.296  20.594  0.00  0.00    +0.000 OA
ENDBRANCH  28  36
ENDBRANCH  22  33
ENDBRANCH  21  25
ENDBRANCH   1  21
TORSDOF 9
ENDMDL
MODEL 3
REMARK VINA RESULT:      -8.5      1.280      1.582
REMARK  Name = 
REMARK  10 active torsions:
REMARK  status: ('A' for Active; 'I' for Inactive)
REMARK    1  A    between atoms: C_1  and  O_2
REMARK    2  A    between atoms: O_2  and  C_3
REMARK    3  A    between atoms: C_8  and  N_9
REMARK    4  A    between atoms: C_12  and  C_13
REMARK    5  A    between atoms: C_13  and  C_14
REMARK    6  A    between atoms: C_17  and  N_18
REMARK    7  A    between atoms: C_20  and  C_21
REMARK    8  A    between atoms: C_26  and  C_27
REMARK    9  A    between atoms: C_27  and  C_28
REMARK   10  A    between atoms: C_28  and  O_30
REMARK                            x       y       z     vdW  Elec       q    Type
REMARK                         _______ _______ _______ _____ _____    ______ ____
ROOT
ATOM      1  C   UNL     1       1.146   9.678  19.391  0.00  0.00    +0.000 A 
ATOM      2  C   UNL     1       1.221   8.807  20.478  0.00  0.00    +0.000 A 
ATOM      3  C   UNL     1       1.888   7.586  20.368  0.00  0.00    +0.000 A 
ATOM      4  C   UNL     1       2.509   7.180  19.178  0.00  0.00    +0.000 A 
ATOM      5  C   UNL     1       2.425   8.068  18.096  0.00  0.00    +0.000 A 
ATOM      6  C   UNL     1       1.758   9.296  18.195  0.00  0.00    +0.000 A 
ENDROOT
BRANCH   4   7
ATOM      7  N   UNL     1       3.191   5.989  19.086  0.00  0.00    +0.000 N 
ATOM      8  C   UNL     1       3.827   5.527  17.856  0.00  0.00    +0.000 C 
ATOM      9  C   UNL     1       3.671   4.019  17.922  0.00  0.00    +0.000 C 
ATOM     10  C   UNL     1       3.867   3.754  19.417  0.00  0.00    +0.000 C 
ATOM     11  C   UNL     1       3.227   4.957  20.148  0.00  0.00    +0.000 C 
BRANCH   9  12
ATOM     12  C   UNL     1       2.319   3.585  17.379  0.00  0.00    +0.000 C 
ATOM     13  F   UNL     1       2.362   3.112  16.116  0.00  0.00    +0.000 F 
ATOM     14  F   UNL     1       1.816   2.587  18.147  0.00  0.00    +0.000 F 
ATOM     15  F   UNL     1       1.411   4.586  17.402  0.00  0.00    +0.000 F 
ENDBRANCH   9  12
BRANCH  11  16
ATOM     16  C   UNL     1       1.829   4.678  20.718  0.00  0.00    +0.000 C 
BRANCH  16  17
ATOM     17  C   UNL     1       1.714   3.340  21.397  0.00  0.00    +0.000 C 
ATOM     18  O   UNL     1       2.450   2.928  22.282  0.00  0.00    +0.000 OA
BRANCH  17  19
ATOM     19  O   UNL     1       0.664   2.623  20.931  0.00  0.00    +0.000 OA
ATOM     20  H   UNL     1      -0.154   2.738  21.452  0.00  0.00    +0.000 HD
ENDBRANCH  17  19
ENDBRANCH  16  17
ENDBRANCH  11  16
ENDBRANCH   4   7
BRANCH   1  21
ATOM     21  C   UNL     1       0.374  10.969  19.509  0.00  0.00    +0.000 C 
BRANCH  21  25
ATOM     22  N   UNL     1      -3.182  11.713  18.805  0.00  0.00    +0.000 N 
ATOM     23  C   UNL     1      -2.265  12.742  19.296  0.00  0.00    +0.000 C 
ATOM     24  C   UNL     1      -1.053  12.780  18.364  0.00  0.00    +0.000 C 
ATOM     25  C   UNL     1      -0.368  11.408  18.230  0.00  0.00    +0.000 C 
ATOM     26  C   UNL     1      -1.415  10.350  17.822  0.00  0.00    +0.000 C 
ATOM     27  C   UNL     1      -2.645  10.353  18.735  0.00  0.00    +0.000 C 
BRANCH  22  33
ATOM     28  C   UNL     1      -6.698  12.252  19.903  0.00  0.00    +0.000 A 
ATOM     29  C   UNL     1      -7.376  12.286  18.686  0.00  0.00    +0.000 A 
ATOM     30  C   UNL     1      -6.662  12.159  17.500  0.00  0.00    +0.000 A 
ATOM     31  C   UNL     1      -5.275  12.002  17.527  0.00  0.00    +0.000 A 
ATOM     32  F   UNL     1      -4.646  11.927  16.344  0.00  0.00    +0.000 F 
ATOM     33  C   UNL     1      -4.551  11.947  18.733  0.00  0.00    +0.000 A 
ATOM     34  C   UNL     1      -5.308  12.084  19.910  0.00  0.00    +0.000 A 
BRANCH  28  36
ATOM     35  C   UNL     1      -6.572  13.138  22.101  0.00  0.00    +0.000 C 
ATOM     36  O   UNL     1      -7.269  12.356  21.142  0.00  0.00    +0.000 OA
ENDBRANCH  28  36
ENDBRANCH  22  33
ENDBRANCH  21  25
ENDBRANCH   1  21
TORSDOF 9
ENDMDL
MODEL 4
REMARK VINA RESULT:      -8.5      2.427      3.263
REMARK  Name = 
REMARK  10 active torsions:
REMARK  status: ('A' for Active; 'I' for Inactive)
REMARK    1  A    between atoms: C_1  and  O_2
REMARK    2  A    between atoms: O_2  and  C_3
REMARK    3  A    between atoms: C_8  and  N_9
REMARK    4  A    between atoms: C_12  and  C_13
REMARK    5  A    between atoms: C_13  and  C_14
REMARK    6  A    between atoms: C_17  and  N_18
REMARK    7  A    between atoms: C_20  and  C_21
REMARK    8  A    between atoms: C_26  and  C_27
REMARK    9  A    between atoms: C_27  and  C_28
REMARK   10  A    between atoms: C_28  and  O_30
REMARK                            x       y       z     vdW  Elec       q    Type
REMARK                         _______ _______ _______ _____ _____    ______ ____
ROOT
ATOM      1  C   UNL     1       1.306   9.213  18.906  0.00  0.00    +0.000 A 
ATOM      2  C   UNL     1       1.264   8.454  20.075  0.00  0.00    +0.000 A 
ATOM      3  C   UNL     1       1.993   7.268  20.182  0.00  0.00    +0.000 A 
ATOM      4  C   UNL     1       2.795   6.789  19.135  0.00  0.00    +0.000 A 
ATOM      5  C   UNL     1       2.826   7.565  17.968  0.00  0.00    +0.000 A 
ATOM      6  C   UNL     1       2.098   8.756  17.850  0.00  0.00    +0.000 A 
ENDROOT
BRANCH   4   7
ATOM      7  N   UNL     1       3.535   5.636  19.259  0.00  0.00    +0.000 N 
ATOM      8  C   UNL     1       4.970   5.578  18.997  0.00  0.00    +0.000 C 
ATOM      9  C   UNL     1       5.169   4.185  18.428  0.00  0.00    +0.000 C 
ATOM     10  C   UNL     1       4.179   3.367  19.262  0.00  0.00    +0.000 C 
ATOM     11  C   UNL     1       2.962   4.292  19.501  0.00  0.00    +0.000 C 
BRANCH   9  12
ATOM     12  C   UNL     1       4.901   4.161  16.932  0.00  0.00    +0.000 C 
ATOM     13  F   UNL     1       4.564   5.362  16.417  0.00  0.00    +0.000 F 
ATOM     14  F   UNL     1       6.018   3.760  16.274  0.00  0.00    +0.000 F 
ATOM     15  F   UNL     1       3.922   3.292  16.599  0.00  0.00    +0.000 F 
ENDBRANCH   9  12
BRANCH  11  16
ATOM     16  C   UNL     1       1.765   4.009  18.583  0.00  0.00    +0.000 C 
BRANCH  16  17
ATOM     17  C   UNL     1       0.814   2.982  19.135  0.00  0.00    +0.000 C 
ATOM     18  O   UNL     1       0.305   2.070  18.498  0.00  0.00    +0.000 OA
BRANCH  17  19
ATOM     19  O   UNL     1       0.590   3.158  20.459  0.00  0.00    +0.000 OA
ATOM     20  H   UNL     1       1.174   2.623  21.032  0.00  0.00    +0.000 HD
ENDBRANCH  17  19
ENDBRANCH  16  17
ENDBRANCH  11  16
ENDBRANCH   4   7
BRANCH   1  21
ATOM     21  C   UNL     1       0.469  10.462  18.786  0.00  0.00    +0.000 C 
BRANCH  21  25
ATOM     22  N   UNL     1      -1.508  12.282  21.331  0.00  0.00    +0.000 N 
ATOM     23  C   UNL     1      -0.821  11.028  21.644  0.00  0.00    +0.000 C 
ATOM     24  C   UNL     1       0.649  11.183  21.251  0.00  0.00    +0.000 C 
ATOM     25  C   UNL     1       0.827  11.589  19.776  0.00  0.00    +0.000 C 
ATOM     26  C   UNL     1      -0.015  12.850  19.488  0.00  0.00    +0.000 C 
ATOM     27  C   UNL     1      -1.474  12.700  19.928  0.00  0.00    +0.000 C 
BRANCH  22  33
ATOM     28  C   UNL     1      -4.742  13.268  22.889  0.00  0.00    +0.000 A 
ATOM     29  C   UNL     1      -4.318  14.096  23.928  0.00  0.00    +0.000 A 
ATOM     30  C   UNL     1      -2.958  14.302  24.128  0.00  0.00    +0.000 A 
ATOM     31  C   UNL     1      -2.022  13.684  23.298  0.00  0.00    +0.000 A 
ATOM     32  F   UNL     1      -0.726  13.895  23.575  0.00  0.00    +0.000 F 
ATOM     33  C   UNL     1      -2.404  12.852  22.228  0.00  0.00    +0.000 A 
ATOM     34  C   UNL     1      -3.788  12.664  22.061  0.00  0.00    +0.000 A 
BRANCH  28  36
ATOM     35  C   UNL     1      -6.276  12.445  21.277  0.00  0.00    +0.000 C 
ATOM     36  O   UNL     1      -6.041  12.982  22.571  0.00  0.00    +0.000 OA
ENDBRANCH  28  36
ENDBRANCH  22  33
ENDBRANCH  21  25
ENDBRANCH   1  21
TORSDOF 9
ENDMDL
MODEL 5
REMARK VINA RESULT:      -8.4      3.719      4.603
REMARK  Name = 
REMARK  10 active torsions:
REMARK  status: ('A' for Active; 'I' for Inactive)
REMARK    1  A    between atoms: C_1  and  O_2
REMARK    2  A    between atoms: O_2  and  C_3
REMARK    3  A    between atoms: C_8  and  N_9
REMARK    4  A    between atoms: C_12  and  C_13
REMARK    5  A    between atoms: C_13  and  C_14
REMARK    6  A    between atoms: C_17  and  N_18
REMARK    7  A    between atoms: C_20  and  C_21
REMARK    8  A    between atoms: C_26  and  C_27
REMARK    9  A    between atoms: C_27  and  C_28
REMARK   10  A    between atoms: C_28  and  O_30
REMARK                            x       y       z     vdW  Elec       q    Type
REMARK                         _______ _______ _______ _____ _____    ______ ____
ROOT
ATOM      1  C   UNL     1       1.762   8.452  19.808  0.00  0.00    +0.000 A 
ATOM      2  C   UNL     1       1.852   7.185  20.382  0.00  0.00    +0.000 A 
ATOM      3  C   UNL     1       2.363   6.108  19.655  0.00  0.00    +0.000 A 
ATOM      4  C   UNL     1       2.808   6.246  18.332  0.00  0.00    +0.000 A 
ATOM      5  C   UNL     1       2.711   7.527  17.771  0.00  0.00    +0.000 A 
ATOM      6  C   UNL     1       2.199   8.615  18.491  0.00  0.00    +0.000 A 
ENDROOT
BRANCH   4   7
ATOM      7  N   UNL     1       3.339   5.187  17.632  0.00  0.00    +0.000 N 
ATOM      8  C   UNL     1       2.581   3.980  17.315  0.00  0.00    +0.000 C 
ATOM      9  C   UNL     1       3.628   2.882  17.365  0.00  0.00    +0.000 C 
ATOM     10  C   UNL     1       4.847   3.592  16.770  0.00  0.00    +0.000 C 
ATOM     11  C   UNL     1       4.768   5.056  17.263  0.00  0.00    +0.000 C 
BRANCH   9  12
ATOM     12  C   UNL     1       3.824   2.378  18.785  0.00  0.00    +0.000 C 
ATOM     13  F   UNL     1       2.899   2.828  19.659  0.00  0.00    +0.000 F 
ATOM     14  F   UNL     1       3.745   1.023  18.805  0.00  0.00    +0.000 F 
ATOM     15  F   UNL     1       5.038   2.703  19.282  0.00  0.00    +0.000 F 
ENDBRANCH   9  12
BRANCH  11  16
ATOM     16  C   UNL     1       5.693   5.374  18.446  0.00  0.00    +0.000 C 
BRANCH  16  17
ATOM     17  C   UNL     1       7.155   5.321  18.095  0.00  0.00    +0.000 C 
ATOM     18  O   UNL     1       8.021   4.752  18.745  0.00  0.00    +0.000 OA
BRANCH  17  19
ATOM     19  O   UNL     1       7.423   5.966  16.935  0.00  0.00    +0.000 OA
ATOM     20  H   UNL     1       7.488   5.373  16.161  0.00  0.00    +0.000 HD
ENDBRANCH  17  19
ENDBRANCH  16  17
ENDBRANCH  11  16
ENDBRANCH   4   7
BRANCH   1  21
ATOM     21  C   UNL     1       1.156   9.593  20.587  0.00  0.00    +0.000 C 
BRANCH  21  25
ATOM     22  N   UNL     1      -1.257  11.728  22.408  0.00  0.00    +0.000 N 
ATOM     23  C   UNL     1      -0.842  12.034  21.039  0.00  0.00    +0.000 C 
ATOM     24  C   UNL     1      -1.086  10.792  20.181  0.00  0.00    +0.000 C 
ATOM     25  C   UNL     1      -0.379   9.543  20.736  0.00  0.00    +0.000 C 
ATOM     26  C   UNL     1      -0.772   9.346  22.216  0.00  0.00    +0.000 C 
ATOM     27  C   UNL     1      -0.566  10.611  23.055  0.00  0.00    +0.000 C 
BRANCH  22  33
ATOM     28  C   UNL     1      -4.148  13.229  24.211  0.00  0.00    +0.000 A 
ATOM     29  C   UNL     1      -3.653  14.488  24.548  0.00  0.00    +0.000 A 
ATOM     30  C   UNL     1      -2.350  14.826  24.203  0.00  0.00    +0.000 A 
ATOM     31  C   UNL     1      -1.541  13.912  23.525  0.00  0.00    +0.000 A 
ATOM     32  F   UNL     1      -0.281  14.291  23.261  0.00  0.00    +0.000 F 
ATOM     33  C   UNL     1      -2.003  12.636  23.151  0.00  0.00    +0.000 A 
ATOM     34  C   UNL     1      -3.325  12.330  23.523  0.00  0.00    +0.000 A 
BRANCH  28  36
ATOM     35  C   UNL     1      -6.347  12.826  23.414  0.00  0.00    +0.000 C 
ATOM     36  O   UNL     1      -5.407  12.765  24.478  0.00  0.00    +0.000 OA
ENDBRANCH  28  36
ENDBRANCH  22  33
ENDBRANCH  21  25
ENDBRANCH   1  21
TORSDOF 9
ENDMDL
MODEL 6
REMARK VINA RESULT:      -8.4      3.710      4.730
REMARK  Name = 
REMARK  10 active torsions:
REMARK  status: ('A' for Active; 'I' for Inactive)
REMARK    1  A    between atoms: C_1  and  O_2
REMARK    2  A    between atoms: O_2  and  C_3
REMARK    3  A    between atoms: C_8  and  N_9
REMARK    4  A    between atoms: C_12  and  C_13
REMARK    5  A    between atoms: C_13  and  C_14
REMARK    6  A    between atoms: C_17  and  N_18
REMARK    7  A    between atoms: C_20  and  C_21
REMARK    8  A    between atoms: C_26  and  C_27
REMARK    9  A    between atoms: C_27  and  C_28
REMARK   10  A    between atoms: C_28  and  O_30
REMARK                            x       y       z     vdW  Elec       q    Type
REMARK                         _______ _______ _______ _____ _____    ______ ____
ROOT
ATOM      1  C   UNL     1       1.599   8.755  19.469  0.00  0.00    +0.000 A 
ATOM      2  C   UNL     1       1.957   8.780  18.121  0.00  0.00    +0.000 A 
ATOM      3  C   UNL     1       2.532   7.660  17.517  0.00  0.00    +0.000 A 
ATOM      4  C   UNL     1       2.771   6.472  18.222  0.00  0.00    +0.000 A 
ATOM      5  C   UNL     1       2.404   6.465  19.575  0.00  0.00    +0.000 A 
ATOM      6  C   UNL     1       1.827   7.583  20.192  0.00  0.00    +0.000 A 
ENDROOT
BRANCH   4   7
ATOM      7  N   UNL     1       3.309   5.363  17.612  0.00  0.00    +0.000 N 
ATOM      8  C   UNL     1       2.622   4.076  17.549  0.00  0.00    +0.000 C 
ATOM      9  C   UNL     1       3.754   3.067  17.621  0.00  0.00    +0.000 C 
ATOM     10  C   UNL     1       4.842   3.765  16.799  0.00  0.00    +0.000 C 
ATOM     11  C   UNL     1       4.696   5.275  17.099  0.00  0.00    +0.000 C 
BRANCH   9  12
ATOM     12  C   UNL     1       4.141   2.782  19.063  0.00  0.00    +0.000 C 
ATOM     13  F   UNL     1       5.308   3.345  19.439  0.00  0.00    +0.000 F 
ATOM     14  F   UNL     1       3.190   3.274  19.897  0.00  0.00    +0.000 F 
ATOM     15  F   UNL     1       4.232   1.458  19.319  0.00  0.00    +0.000 F 
ENDBRANCH   9  12
BRANCH  11  16
ATOM     16  C   UNL     1       5.713   5.817  18.114  0.00  0.00    +0.000 C 
BRANCH  16  17
ATOM     17  C   UNL     1       7.138   5.737  17.636  0.00  0.00    +0.000 C 
ATOM     18  O   UNL     1       7.606   6.357  16.692  0.00  0.00    +0.000 OA
BRANCH  17  19
ATOM     19  O   UNL     1       7.882   4.900  18.397  0.00  0.00    +0.000 OA
ATOM     20  H   UNL     1       8.079   4.046  17.965  0.00  0.00    +0.000 HD
ENDBRANCH  17  19
ENDBRANCH  16  17
ENDBRANCH  11  16
ENDBRANCH   4   7
BRANCH   1  21
ATOM     21  C   UNL     1       1.030   9.991  20.121  0.00  0.00    +0.000 C 
BRANCH  21  25
ATOM     22  N   UNL     1      -1.221  12.032  22.234  0.00  0.00    +0.000 N 
ATOM     23  C   UNL     1      -0.860  12.443  20.876  0.00  0.00    +0.000 C 
ATOM     24  C   UNL     1      -1.186  11.288  19.929  0.00  0.00    +0.000 C 
ATOM     25  C   UNL     1      -0.496   9.974  20.341  0.00  0.00    +0.000 C 
ATOM     26  C   UNL     1      -0.827   9.662  21.815  0.00  0.00    +0.000 C 
ATOM     27  C   UNL     1      -0.540  10.843  22.748  0.00  0.00    +0.000 C 
BRANCH  22  33
ATOM     28  C   UNL     1      -3.976  13.463  24.289  0.00  0.00    +0.000 A 
ATOM     29  C   UNL     1      -3.420  14.668  24.714  0.00  0.00    +0.000 A 
ATOM     30  C   UNL     1      -2.119  14.990  24.344  0.00  0.00    +0.000 A 
ATOM     31  C   UNL     1      -1.375  14.114  23.552  0.00  0.00    +0.000 A 
ATOM     32  F   UNL     1      -0.113  14.471  23.268  0.00  0.00    +0.000 F 
ATOM     33  C   UNL     1      -1.901  12.894  23.087  0.00  0.00    +0.000 A 
ATOM     34  C   UNL     1      -3.217  12.601  23.487  0.00  0.00    +0.000 A 
BRANCH  28  36
ATOM     35  C   UNL     1      -6.124  12.880  23.465  0.00  0.00    +0.000 C 
ATOM     36  O   UNL     1      -5.241  13.020  24.568  0.00  0.00    +0.000 OA
ENDBRANCH  28  36
ENDBRANCH  22  33
ENDBRANCH  21  25
ENDBRANCH   1  21
TORSDOF 9
ENDMDL
MODEL 7
REMARK VINA RESULT:      -8.4      2.758      3.523
REMARK  Name = 
REMARK  10 active torsions:
REMARK  status: ('A' for Active; 'I' for Inactive)
REMARK    1  A    between atoms: C_1  and  O_2
REMARK    2  A    between atoms: O_2  and  C_3
REMARK    3  A    between atoms: C_8  and  N_9
REMARK    4  A    between atoms: C_12  and  C_13
REMARK    5  A    between atoms: C_13  and  C_14
REMARK    6  A    between atoms: C_17  and  N_18
REMARK    7  A    between atoms: C_20  and  C_21
REMARK    8  A    between atoms: C_26  and  C_27
REMARK    9  A    between atoms: C_27  and  C_28
REMARK   10  A    between atoms: C_28  and  O_30
REMARK                            x       y       z     vdW  Elec       q    Type
REMARK                         _______ _______ _______ _____ _____    ______ ____
ROOT
ATOM      1  C   UNL     1       1.492   9.164  18.965  0.00  0.00    +0.000 A 
ATOM      2  C   UNL     1       1.482   8.401  20.132  0.00  0.00    +0.000 A 
ATOM      3  C   UNL     1       2.204   7.208  20.210  0.00  0.00    +0.000 A 
ATOM      4  C   UNL     1       2.965   6.726  19.135  0.00  0.00    +0.000 A 
ATOM      5  C   UNL     1       2.964   7.506  17.970  0.00  0.00    +0.000 A 
ATOM      6  C   UNL     1       2.243   8.704  17.881  0.00  0.00    +0.000 A 
ENDROOT
BRANCH   4   7
ATOM      7  N   UNL     1       3.698   5.566  19.230  0.00  0.00    +0.000 N 
ATOM      8  C   UNL     1       5.153   5.529  19.102  0.00  0.00    +0.000 C 
ATOM      9  C   UNL     1       5.415   4.190  18.438  0.00  0.00    +0.000 C 
ATOM     10  C   UNL     1       4.356   3.305  19.100  0.00  0.00    +0.000 C 
ATOM     11  C   UNL     1       3.115   4.206  19.301  0.00  0.00    +0.000 C 
BRANCH   9  12
ATOM     12  C   UNL     1       5.291   4.295  16.926  0.00  0.00    +0.000 C 
ATOM     13  F   UNL     1       4.880   5.505  16.493  0.00  0.00    +0.000 F 
ATOM     14  F   UNL     1       6.500   4.071  16.352  0.00  0.00    +0.000 F 
ATOM     15  F   UNL     1       4.443   3.376  16.415  0.00  0.00    +0.000 F 
ENDBRANCH   9  12
BRANCH  11  16
ATOM     16  C   UNL     1       2.013   4.005  18.251  0.00  0.00    +0.000 C 
BRANCH  16  17
ATOM     17  C   UNL     1       1.336   2.664  18.342  0.00  0.00    +0.000 C 
ATOM     18  O   UNL     1       0.349   2.411  19.018  0.00  0.00    +0.000 OA
BRANCH  17  19
ATOM     19  O   UNL     1       1.934   1.739  17.554  0.00  0.00    +0.000 OA
ATOM     20  H   UNL     1       2.804   1.443  17.885  0.00  0.00    +0.000 HD
ENDBRANCH  17  19
ENDBRANCH  16  17
ENDBRANCH  11  16
ENDBRANCH   4   7
BRANCH   1  21
ATOM     21  C   UNL     1       0.662  10.421  18.877  0.00  0.00    +0.000 C 
BRANCH  21  25
ATOM     22  N   UNL     1      -1.332  11.977  21.580  0.00  0.00    +0.000 N 
ATOM     23  C   UNL     1      -1.203  12.602  20.263  0.00  0.00    +0.000 C 
ATOM     24  C   UNL     1      -1.616  11.575  19.208  0.00  0.00    +0.000 C 
ATOM     25  C   UNL     1      -0.810  10.267  19.310  0.00  0.00    +0.000 C 
ATOM     26  C   UNL     1      -0.895   9.724  20.752  0.00  0.00    +0.000 C 
ATOM     27  C   UNL     1      -0.524  10.776  21.802  0.00  0.00    +0.000 C 
BRANCH  22  33
ATOM     28  C   UNL     1      -3.813  12.918  24.190  0.00  0.00    +0.000 A 
ATOM     29  C   UNL     1      -3.243  14.073  24.724  0.00  0.00    +0.000 A 
ATOM     30  C   UNL     1      -2.020  14.521  24.237  0.00  0.00    +0.000 A 
ATOM     31  C   UNL     1      -1.366  13.819  23.222  0.00  0.00    +0.000 A 
ATOM     32  F   UNL     1      -0.171  14.286  22.830  0.00  0.00    +0.000 F 
ATOM     33  C   UNL     1      -1.912  12.658  22.643  0.00  0.00    +0.000 A 
ATOM     34  C   UNL     1      -3.147  12.234  23.166  0.00  0.00    +0.000 A 
BRANCH  28  36
ATOM     35  C   UNL     1      -6.169  12.863  23.912  0.00  0.00    +0.000 C 
ATOM     36  O   UNL     1      -5.008  12.368  24.564  0.00  0.00    +0.000 OA
ENDBRANCH  28  36
ENDBRANCH  22  33
ENDBRANCH  21  25
ENDBRANCH   1  21
TORSDOF 9
ENDMDL
MODEL 8
REMARK VINA RESULT:      -8.4      3.987      4.944
REMARK  Name = 
REMARK  10 active torsions:
REMARK  status: ('A' for Active; 'I' for Inactive)
REMARK    1  A    between atoms: C_1  and  O_2
REMARK    2  A    between atoms: O_2  and  C_3
REMARK    3  A    between atoms: C_8  and  N_9
REMARK    4  A    between atoms: C_12  and  C_13
REMARK    5  A    between atoms: C_13  and  C_14
REMARK    6  A    between atoms: C_17  and  N_18
REMARK    7  A    between atoms: C_20  and  C_21
REMARK    8  A    between atoms: C_26  and  C_27
REMARK    9  A    between atoms: C_27  and  C_28
REMARK   10  A    between atoms: C_28  and  O_30
REMARK                            x       y       z     vdW  Elec       q    Type
REMARK                         _______ _______ _______ _____ _____    ______ ____
ROOT
ATOM      1  C   UNL     1       1.673   8.945  19.258  0.00  0.00    +0.000 A 
ATOM      2  C   UNL     1       1.794   7.788  20.027  0.00  0.00    +0.000 A 
ATOM      3  C   UNL     1       2.304   6.613  19.471  0.00  0.00    +0.000 A 
ATOM      4  C   UNL     1       2.718   6.540  18.133  0.00  0.00    +0.000 A 
ATOM      5  C   UNL     1       2.591   7.714  17.375  0.00  0.00    +0.000 A 
ATOM      6  C   UNL     1       2.079   8.897  17.923  0.00  0.00    +0.000 A 
ENDROOT
BRANCH   4   7
ATOM      7  N   UNL     1       3.249   5.389  17.600  0.00  0.00    +0.000 N 
ATOM      8  C   UNL     1       2.560   4.102  17.637  0.00  0.00    +0.000 C 
ATOM      9  C   UNL     1       3.692   3.099  17.773  0.00  0.00    +0.000 C 
ATOM     10  C   UNL     1       4.772   3.733  16.892  0.00  0.00    +0.000 C 
ATOM     11  C   UNL     1       4.631   5.261  17.082  0.00  0.00    +0.000 C 
BRANCH   9  12
ATOM     12  C   UNL     1       4.092   2.920  19.228  0.00  0.00    +0.000 C 
ATOM     13  F   UNL     1       3.345   3.636  20.094  0.00  0.00    +0.000 F 
ATOM     14  F   UNL     1       3.951   1.618  19.584  0.00  0.00    +0.000 F 
ATOM     15  F   UNL     1       5.385   3.244  19.449  0.00  0.00    +0.000 F 
ENDBRANCH   9  12
BRANCH  11  16
ATOM     16  C   UNL     1       5.658   5.874  18.045  0.00  0.00    +0.000 C 
BRANCH  16  17
ATOM     17  C   UNL     1       7.079   5.751  17.563  0.00  0.00    +0.000 C 
ATOM     18  O   UNL     1       7.573   6.384  16.641  0.00  0.00    +0.000 OA
BRANCH  17  19
ATOM     19  O   UNL     1       7.787   4.858  18.295  0.00  0.00    +0.000 OA
ATOM     20  H   UNL     1       8.079   4.077  17.786  0.00  0.00    +0.000 HD
ENDBRANCH  17  19
ENDBRANCH  16  17
ENDBRANCH  11  16
ENDBRANCH   4   7
BRANCH   1  21
ATOM     21  C   UNL     1       1.068  10.190  19.858  0.00  0.00    +0.000 C 
BRANCH  21  25
ATOM     22  N   UNL     1      -1.135  12.198  22.053  0.00  0.00    +0.000 N 
ATOM     23  C   UNL     1      -0.920  12.552  20.649  0.00  0.00    +0.000 C 
ATOM     24  C   UNL     1      -1.243  11.325  19.796  0.00  0.00    +0.000 C 
ATOM     25  C   UNL     1      -0.430  10.085  20.212  0.00  0.00    +0.000 C 
ATOM     26  C   UNL     1      -0.612   9.839  21.724  0.00  0.00    +0.000 C 
ATOM     27  C   UNL     1      -0.330  11.087  22.566  0.00  0.00    +0.000 C 
BRANCH  22  33
ATOM     28  C   UNL     1      -1.678  14.848  24.610  0.00  0.00    +0.000 A 
ATOM     29  C   UNL     1      -3.055  14.770  24.815  0.00  0.00    +0.000 A 
ATOM     30  C   UNL     1      -3.806  13.858  24.083  0.00  0.00    +0.000 A 
ATOM     31  C   UNL     1      -3.187  13.027  23.146  0.00  0.00    +0.000 A 
ATOM     32  F   UNL     1      -3.979  12.200  22.447  0.00  0.00    +0.000 F 
ATOM     33  C   UNL     1      -1.798  13.061  22.917  0.00  0.00    +0.000 A 
ATOM     34  C   UNL     1      -1.075  14.000  23.673  0.00  0.00    +0.000 A 
BRANCH  28  36
ATOM     35  C   UNL     1      -1.392  16.593  26.192  0.00  0.00    +0.000 C 
ATOM     36  O   UNL     1      -0.817  15.688  25.261  0.00  0.00    +0.000 OA
ENDBRANCH  28  36
ENDBRANCH  22  33
ENDBRANCH  21  25
ENDBRANCH   1  21
TORSDOF 9
ENDMDL
MODEL 9
REMARK VINA RESULT:      -8.3      3.160      4.348
REMARK  Name = 
REMARK  10 active torsions:
REMARK  status: ('A' for Active; 'I' for Inactive)
REMARK    1  A    between atoms: C_1  and  O_2
REMARK    2  A    between atoms: O_2  and  C_3
REMARK    3  A    between atoms: C_8  and  N_9
REMARK    4  A    between atoms: C_12  and  C_13
REMARK    5  A    between atoms: C_13  and  C_14
REMARK    6  A    between atoms: C_17  and  N_18
REMARK    7  A    between atoms: C_20  and  C_21
REMARK    8  A    between atoms: C_26  and  C_27
REMARK    9  A    between atoms: C_27  and  C_28
REMARK   10  A    between atoms: C_28  and  O_30
REMARK                            x       y       z     vdW  Elec       q    Type
REMARK                         _______ _______ _______ _____ _____    ______ ____
ROOT
ATOM      1  C   UNL     1       1.460   9.202  18.859  0.00  0.00    +0.000 A 
ATOM      2  C   UNL     1       1.430   8.509  20.069  0.00  0.00    +0.000 A 
ATOM      3  C   UNL     1       2.125   7.307  20.219  0.00  0.00    +0.000 A 
ATOM      4  C   UNL     1       2.879   6.747  19.177  0.00  0.00    +0.000 A 
ATOM      5  C   UNL     1       2.898   7.458  17.969  0.00  0.00    +0.000 A 
ATOM      6  C   UNL     1       2.204   8.664  17.807  0.00  0.00    +0.000 A 
ENDROOT
BRANCH   4   7
ATOM      7  N   UNL     1       3.586   5.579  19.342  0.00  0.00    +0.000 N 
ATOM      8  C   UNL     1       5.016   5.467  19.070  0.00  0.00    +0.000 C 
ATOM      9  C   UNL     1       5.169   4.046  18.558  0.00  0.00    +0.000 C 
ATOM     10  C   UNL     1       4.164   3.294  19.434  0.00  0.00    +0.000 C 
ATOM     11  C   UNL     1       2.977   4.263  19.646  0.00  0.00    +0.000 C 
BRANCH   9  12
ATOM     12  C   UNL     1       4.885   3.969  17.066  0.00  0.00    +0.000 C 
ATOM     13  F   UNL     1       5.959   3.634  16.321  0.00  0.00    +0.000 F 
ATOM     14  F   UNL     1       3.941   3.024  16.829  0.00  0.00    +0.000 F 
ATOM     15  F   UNL     1       4.402   5.131  16.575  0.00  0.00    +0.000 F 
ENDBRANCH   9  12
BRANCH  11  16
ATOM     16  C   UNL     1       1.763   3.978  18.750  0.00  0.00    +0.000 C 
BRANCH  16  17
ATOM     17  C   UNL     1       0.794   2.994  19.349  0.00  0.00    +0.000 C 
ATOM     18  O   UNL     1       0.201   2.119  18.735  0.00  0.00    +0.000 OA
BRANCH  17  19
ATOM     19  O   UNL     1       0.659   3.164  20.686  0.00  0.00    +0.000 OA
ATOM     20  H   UNL     1       1.211   3.884  21.049  0.00  0.00    +0.000 HD
ENDBRANCH  17  19
ENDBRANCH  16  17
ENDBRANCH  11  16
ENDBRANCH   4   7
BRANCH   1  21
ATOM     21  C   UNL     1       0.659  10.470  18.696  0.00  0.00    +0.000 C 
BRANCH  21  25
ATOM     22  N   UNL     1      -0.322  13.967  19.408  0.00  0.00    +0.000 N 
ATOM     23  C   UNL     1      -1.316  12.937  19.105  0.00  0.00    +0.000 C 
ATOM     24  C   UNL     1      -1.094  11.768  20.064  0.00  0.00    +0.000 C 
ATOM     25  C   UNL     1       0.344  11.221  20.006  0.00  0.00    +0.000 C 
ATOM     26  C   UNL     1       1.341  12.379  20.219  0.00  0.00    +0.000 C 
ATOM     27  C   UNL     1       1.080  13.563  19.284  0.00  0.00    +0.000 C 
BRANCH  22  33
ATOM     28  C   UNL     1      -0.603  17.561  18.477  0.00  0.00    +0.000 A 
ATOM     29  C   UNL     1      -1.237  18.097  19.596  0.00  0.00    +0.000 A 
ATOM     30  C   UNL     1      -1.597  17.261  20.646  0.00  0.00    +0.000 A 
ATOM     31  C   UNL     1      -1.329  15.892  20.580  0.00  0.00    +0.000 A 
ATOM     32  F   UNL     1      -1.741  15.139  21.611  0.00  0.00    +0.000 F 
ATOM     33  C   UNL     1      -0.677  15.309  19.477  0.00  0.00    +0.000 A 
ATOM     34  C   UNL     1      -0.334  16.187  18.433  0.00  0.00    +0.000 A 
BRANCH  28  36
ATOM     35  C   UNL     1       1.188  18.154  17.038  0.00  0.00    +0.000 C 
ATOM     36  O   UNL     1      -0.186  18.262  17.378  0.00  0.00    +0.000 OA
ENDBRANCH  28  36
ENDBRANCH  22  33
ENDBRANCH  21  25
ENDBRANCH   1  21
TORSDOF 9
ENDMDL
