MODEL 1
REMARK VINA RESULT:      -8.3      0.000      0.000
REMARK  Name = 
REMARK  7 active torsions:
REMARK  status: ('A' for Active; 'I' for Inactive)
REMARK    1  A    between atoms: C_2  and  O_3
REMARK    2  A    between atoms: C_2  and  C_4
REMARK    3  A    between atoms: C_4  and  C_5
REMARK    4  A    between atoms: C_8  and  C_9
REMARK    5  A    between atoms: C_9  and  N_10
REMARK    6  A    between atoms: C_13  and  C_14
REMARK    7  A    between atoms: C_22  and  C_23
REMARK                            x       y       z     vdW  Elec       q    Type
REMARK                         _______ _______ _______ _____ _____    ______ ____
ROOT
ATOM      1  N   UNL     1       1.995   8.860  19.294  0.00  0.00    +0.000 N 
ATOM      2  C   UNL     1       0.871   9.653  19.437  0.00  0.00    +0.000 A 
ATOM      3  N   UNL     1      -0.018   9.733  18.458  0.00  0.00    +0.000 NA
ATOM      4  C   UNL     1      -1.090  10.482  18.715  0.00  0.00    +0.000 A 
ATOM      5  N   UNL     1      -1.300  11.133  19.856  0.00  0.00    +0.000 NA
ATOM      6  C   UNL     1      -0.354  11.000  20.784  0.00  0.00    +0.000 A 
ATOM      7  N   UNL     1       0.751  10.273  20.602  0.00  0.00    +0.000 NA
ATOM      8  H   UNL     1       2.684   9.172  19.969  0.00  0.00    +0.000 HD
ENDROOT
BRANCH   4   9
ATOM      9  C   UNL     1      -2.126  10.588  17.667  0.00  0.00    +0.000 A 
ATOM     10  C   UNL     1      -2.021   9.877  16.454  0.00  0.00    +0.000 A 
ATOM     11  C   UNL     1      -3.005   9.968  15.464  0.00  0.00    +0.000 A 
ATOM     12  C   UNL     1      -4.120  10.777  15.665  0.00  0.00    +0.000 A 
ATOM     13  C   UNL     1      -4.245  11.490  16.852  0.00  0.00    +0.000 A 
ATOM     14 CL   UNL     1      -5.622  12.492  17.104  0.00  0.00    +0.000 Cl
ATOM     15  C   UNL     1      -3.264  11.400  17.841  0.00  0.00    +0.000 A 
ENDBRANCH   4   9
BRANCH   6  16
ATOM     16  C   UNL     1      -0.562  11.675  22.119  0.00  0.00    +0.000 C 
ATOM     17  C   UNL     1      -1.928  12.192  22.509  0.00  0.00    +0.000 C 
ATOM     18  C   UNL     1      -1.363  10.990  23.205  0.00  0.00    +0.000 C 
ENDBRANCH   6  16
BRANCH   1  19
ATOM     19  C   UNL     1       2.482   8.665  17.944  0.00  0.00    +0.000 C 
BRANCH  19  23
ATOM     20  C   UNL     1       3.658   4.507  17.577  0.00  0.00    +0.000 A 
ATOM     21  C   UNL     1       2.360   4.847  17.980  0.00  0.00    +0.000 A 
ATOM     22  C   UNL     1       1.979   6.188  18.073  0.00  0.00    +0.000 A 
ATOM     23  C   UNL     1       2.884   7.215  17.767  0.00  0.00    +0.000 A 
ATOM     24  C   UNL     1       4.165   6.870  17.317  0.00  0.00    +0.000 A 
ATOM     25  C   UNL     1       4.546   5.529  17.218  0.00  0.00    +0.000 A 
BRANCH  20  26
ATOM     26  C   UNL     1       4.095   3.060  17.545  0.00  0.00    +0.000 C 
BRANCH  26  28
ATOM     27  O   UNL     1       4.250   2.218  19.785  0.00  0.00    +0.000 OA
ATOM     28  C   UNL     1       3.679   2.179  18.701  0.00  0.00    +0.000 C 
BRANCH  28  29
ATOM     29  O   UNL     1       2.646   1.337  18.489  0.00  0.00    +0.000 OA
ATOM     30  H   UNL     1       1.836   1.548  18.989  0.00  0.00    +0.000 HD
ENDBRANCH  28  29
ENDBRANCH  26  28
ENDBRANCH  20  26
ENDBRANCH  19  23
ENDBRANCH   1  19
TORSDOF 7
ENDMDL
MODEL 2
REMARK VINA RESULT:      -8.3      7.169     10.104
REMARK  Name = 
REMARK  7 active torsions:
REMARK  status: ('A' for Active; 'I' for Inactive)
REMARK    1  A    between atoms: C_2  and  O_3
REMARK    2  A    between atoms: C_2  and  C_4
REMARK    3  A    between atoms: C_4  and  C_5
REMARK    4  A    between atoms: C_8  and  C_9
REMARK    5  A    between atoms: C_9  and  N_10
REMARK    6  A    between atoms: C_13  and  C_14
REMARK    7  A    between atoms: C_22  and  C_23
REMARK                            x       y       z     vdW  Elec       q    Type
REMARK                         _______ _______ _______ _____ _____    ______ ____
ROOT
ATOM      1  N   UNL     1       7.816   7.230  16.775  0.00  0.00    +0.000 N 
ATOM      2  C   UNL     1       6.965   6.194  16.438  0.00  0.00    +0.000 A 
ATOM      3  N   UNL     1       5.882   5.957  17.163  0.00  0.00    +0.000 NA
ATOM      4  C   UNL     1       5.102   4.970  16.725  0.00  0.00    +0.000 A 
ATOM      5  N   UNL     1       5.348   4.235  15.643  0.00  0.00    +0.000 NA
ATOM      6  C   UNL     1       6.460   4.539  14.975  0.00  0.00    +0.000 A 
ATOM      7  N   UNL     1       7.297   5.509  15.352  0.00  0.00    +0.000 NA
ATOM      8  H   UNL     1       8.711   7.055  16.333  0.00  0.00    +0.000 HD
ENDROOT
BRANCH   4   9
ATOM      9  C   UNL     1       3.868   4.676  17.483  0.00  0.00    +0.000 A 
ATOM     10  C   UNL     1       3.075   3.548  17.189  0.00  0.00    +0.000 A 
ATOM     11  C   UNL     1       1.912   3.262  17.911  0.00  0.00    +0.000 A 
ATOM     12  C   UNL     1       1.512   4.102  18.947  0.00  0.00    +0.000 A 
ATOM     13  C   UNL     1       2.276   5.223  19.254  0.00  0.00    +0.000 A 
ATOM     14 CL   UNL     1       1.786   6.264  20.533  0.00  0.00    +0.000 Cl
ATOM     15  C   UNL     1       3.438   5.509  18.535  0.00  0.00    +0.000 A 
ENDBRANCH   4   9
BRANCH   6  16
ATOM     16  C   UNL     1       6.766   3.774  13.710  0.00  0.00    +0.000 C 
ATOM     17  C   UNL     1       5.676   3.502  12.699  0.00  0.00    +0.000 C 
ATOM     18  C   UNL     1       6.766   4.479  12.371  0.00  0.00    +0.000 C 
ENDBRANCH   6  16
BRANCH   1  19
ATOM     19  C   UNL     1       7.869   7.594  18.175  0.00  0.00    +0.000 C 
BRANCH  19  23
ATOM     20  C   UNL     1       9.237  11.703  18.412  0.00  0.00    +0.000 A 
ATOM     21  C   UNL     1       8.260  11.330  17.480  0.00  0.00    +0.000 A 
ATOM     22  C   UNL     1       7.805  10.010  17.424  0.00  0.00    +0.000 A 
ATOM     23  C   UNL     1       8.315   9.037  18.296  0.00  0.00    +0.000 A 
ATOM     24  C   UNL     1       9.256   9.425  19.259  0.00  0.00    +0.000 A 
ATOM     25  C   UNL     1       9.708  10.746  19.320  0.00  0.00    +0.000 A 
BRANCH  20  26
ATOM     26  C   UNL     1       9.783  13.113  18.426  0.00  0.00    +0.000 C 
BRANCH  26  28
ATOM     27  O   UNL     1      11.922  14.194  18.361  0.00  0.00    +0.000 OA
ATOM     28  C   UNL     1      11.188  13.323  17.909  0.00  0.00    +0.000 C 
BRANCH  28  29
ATOM     29  O   UNL     1      11.605  12.508  16.918  0.00  0.00    +0.000 OA
ATOM     30  H   UNL     1      12.433  12.783  16.482  0.00  0.00    +0.000 HD
ENDBRANCH  28  29
ENDBRANCH  26  28
ENDBRANCH  20  26
ENDBRANCH  19  23
ENDBRANCH   1  19
TORSDOF 7
ENDMDL
MODEL 3
REMARK VINA RESULT:      -8.3      7.267     10.108
REMARK  Name = 
REMARK  7 active torsions:
REMARK  status: ('A' for Active; 'I' for Inactive)
REMARK    1  A    between atoms: C_2  and  O_3
REMARK    2  A    between atoms: C_2  and  C_4
REMARK    3  A    between atoms: C_4  and  C_5
REMARK    4  A    between atoms: C_8  and  C_9
REMARK    5  A    between atoms: C_9  and  N_10
REMARK    6  A    between atoms: C_13  and  C_14
REMARK    7  A    between atoms: C_22  and  C_23
REMARK                            x       y       z     vdW  Elec       q    Type
REMARK                         _______ _______ _______ _____ _____    ______ ____
ROOT
ATOM      1  N   UNL     1       7.735   7.117  16.742  0.00  0.00    +0.000 N 
ATOM      2  C   UNL     1       6.880   6.079  16.414  0.00  0.00    +0.000 A 
ATOM      3  N   UNL     1       5.808   5.840  17.154  0.00  0.00    +0.000 NA
ATOM      4  C   UNL     1       5.022   4.853  16.724  0.00  0.00    +0.000 A 
ATOM      5  N   UNL     1       5.255   4.121  15.637  0.00  0.00    +0.000 NA
ATOM      6  C   UNL     1       6.357   4.428  14.955  0.00  0.00    +0.000 A 
ATOM      7  N   UNL     1       7.198   5.398  15.322  0.00  0.00    +0.000 NA
ATOM      8  H   UNL     1       8.623   6.943  16.287  0.00  0.00    +0.000 HD
ENDROOT
BRANCH   4   9
ATOM      9  C   UNL     1       3.799   4.556  17.498  0.00  0.00    +0.000 A 
ATOM     10  C   UNL     1       3.000   3.432  17.208  0.00  0.00    +0.000 A 
ATOM     11  C   UNL     1       1.847   3.143  17.945  0.00  0.00    +0.000 A 
ATOM     12  C   UNL     1       1.465   3.975  18.993  0.00  0.00    +0.000 A 
ATOM     13  C   UNL     1       2.236   5.092  19.298  0.00  0.00    +0.000 A 
ATOM     14 CL   UNL     1       1.768   6.124  20.593  0.00  0.00    +0.000 Cl
ATOM     15  C   UNL     1       3.387   5.381  18.563  0.00  0.00    +0.000 A 
ENDBRANCH   4   9
BRANCH   6  16
ATOM     16  C   UNL     1       6.646   3.666  13.684  0.00  0.00    +0.000 C 
ATOM     17  C   UNL     1       5.623   3.616  12.573  0.00  0.00    +0.000 C 
ATOM     18  C   UNL     1       6.885   4.406  12.386  0.00  0.00    +0.000 C 
ENDBRANCH   6  16
BRANCH   1  19
ATOM     19  C   UNL     1       7.806   7.477  18.142  0.00  0.00    +0.000 C 
BRANCH  19  23
ATOM     20  C   UNL     1       9.159  11.574  18.587  0.00  0.00    +0.000 A 
ATOM     21  C   UNL     1       9.624  10.572  19.449  0.00  0.00    +0.000 A 
ATOM     22  C   UNL     1       9.204   9.250  19.286  0.00  0.00    +0.000 A 
ATOM     23  C   UNL     1       8.312   8.901  18.262  0.00  0.00    +0.000 A 
ATOM     24  C   UNL     1       7.888   9.896  17.372  0.00  0.00    +0.000 A 
ATOM     25  C   UNL     1       8.311  11.219  17.530  0.00  0.00    +0.000 A 
BRANCH  20  26
ATOM     26  C   UNL     1       9.554  13.016  18.806  0.00  0.00    +0.000 C 
BRANCH  26  28
ATOM     27  O   UNL     1      11.169  13.307  17.057  0.00  0.00    +0.000 OA
ATOM     28  C   UNL     1      10.190  13.750  17.647  0.00  0.00    +0.000 C 
BRANCH  28  29
ATOM     29  O   UNL     1       9.633  14.925  17.286  0.00  0.00    +0.000 OA
ATOM     30  H   UNL     1      10.271  15.631  17.073  0.00  0.00    +0.000 HD
ENDBRANCH  28  29
ENDBRANCH  26  28
ENDBRANCH  20  26
ENDBRANCH  19  23
ENDBRANCH   1  19
TORSDOF 7
ENDMDL
MODEL 4
REMARK VINA RESULT:      -8.1      4.318      6.453
REMARK  Name = 
REMARK  7 active torsions:
REMARK  status: ('A' for Active; 'I' for Inactive)
REMARK    1  A    between atoms: C_2  and  O_3
REMARK    2  A    between atoms: C_2  and  C_4
REMARK    3  A    between atoms: C_4  and  C_5
REMARK    4  A    between atoms: C_8  and  C_9
REMARK    5  A    between atoms: C_9  and  N_10
REMARK    6  A    between atoms: C_13  and  C_14
REMARK    7  A    between atoms: C_22  and  C_23
REMARK                            x       y       z     vdW  Elec       q    Type
REMARK                         _______ _______ _______ _____ _____    ______ ____
ROOT
ATOM      1  N   UNL     1       5.190   4.132  18.270  0.00  0.00    +0.000 N 
ATOM      2  C   UNL     1       4.185   4.708  19.026  0.00  0.00    +0.000 A 
ATOM      3  N   UNL     1       3.746   5.924  18.739  0.00  0.00    +0.000 NA
ATOM      4  C   UNL     1       2.742   6.366  19.494  0.00  0.00    +0.000 A 
ATOM      5  N   UNL     1       2.184   5.679  20.488  0.00  0.00    +0.000 NA
ATOM      6  C   UNL     1       2.690   4.466  20.711  0.00  0.00    +0.000 A 
ATOM      7  N   UNL     1       3.699   3.954  20.002  0.00  0.00    +0.000 NA
ATOM      8  H   UNL     1       5.601   3.384  18.815  0.00  0.00    +0.000 HD
ENDROOT
BRANCH   4   9
ATOM      9  C   UNL     1       2.197   7.708  19.203  0.00  0.00    +0.000 A 
ATOM     10  C   UNL     1       2.428   8.343  17.965  0.00  0.00    +0.000 A 
ATOM     11  C   UNL     1       1.905   9.609  17.683  0.00  0.00    +0.000 A 
ATOM     12  C   UNL     1       1.137  10.273  18.636  0.00  0.00    +0.000 A 
ATOM     13  C   UNL     1       0.897   9.668  19.865  0.00  0.00    +0.000 A 
ATOM     14 CL   UNL     1      -0.051  10.485  21.047  0.00  0.00    +0.000 Cl
ATOM     15  C   UNL     1       1.418   8.404  20.148  0.00  0.00    +0.000 A 
ENDBRANCH   4   9
BRANCH   6  16
ATOM     16  C   UNL     1       2.064   3.619  21.792  0.00  0.00    +0.000 C 
ATOM     17  C   UNL     1       1.011   2.592  21.445  0.00  0.00    +0.000 C 
ATOM     18  C   UNL     1       2.374   2.141  21.881  0.00  0.00    +0.000 C 
ENDBRANCH   6  16
BRANCH   1  19
ATOM     19  C   UNL     1       6.128   5.040  17.643  0.00  0.00    +0.000 C 
BRANCH  19  23
ATOM     20  C   UNL     1       6.372   4.034  13.432  0.00  0.00    +0.000 A 
ATOM     21  C   UNL     1       5.248   3.675  14.186  0.00  0.00    +0.000 A 
ATOM     22  C   UNL     1       5.164   4.022  15.536  0.00  0.00    +0.000 A 
ATOM     23  C   UNL     1       6.198   4.735  16.161  0.00  0.00    +0.000 A 
ATOM     24  C   UNL     1       7.297   5.136  15.392  0.00  0.00    +0.000 A 
ATOM     25  C   UNL     1       7.381   4.794  14.038  0.00  0.00    +0.000 A 
BRANCH  20  26
ATOM     26  C   UNL     1       6.499   3.597  11.990  0.00  0.00    +0.000 C 
BRANCH  26  28
ATOM     27  O   UNL     1       4.419   2.746  11.153  0.00  0.00    +0.000 OA
ATOM     28  C   UNL     1       5.569   2.508  11.506  0.00  0.00    +0.000 C 
BRANCH  28  29
ATOM     29  O   UNL     1       6.058   1.251  11.480  0.00  0.00    +0.000 OA
ATOM     30  H   UNL     1       5.628   0.658  10.837  0.00  0.00    +0.000 HD
ENDBRANCH  28  29
ENDBRANCH  26  28
ENDBRANCH  20  26
ENDBRANCH  19  23
ENDBRANCH   1  19
TORSDOF 7
ENDMDL
MODEL 5
REMARK VINA RESULT:      -8.1      2.063      2.391
REMARK  Name = 
REMARK  7 active torsions:
REMARK  status: ('A' for Active; 'I' for Inactive)
REMARK    1  A    between atoms: C_2  and  O_3
REMARK    2  A    between atoms: C_2  and  C_4
REMARK    3  A    between atoms: C_4  and  C_5
REMARK    4  A    between atoms: C_8  and  C_9
REMARK    5  A    between atoms: C_9  and  N_10
REMARK    6  A    between atoms: C_13  and  C_14
REMARK    7  A    between atoms: C_22  and  C_23
REMARK                            x       y       z     vdW  Elec       q    Type
REMARK                         _______ _______ _______ _____ _____    ______ ____
ROOT
ATOM      1  N   UNL     1       1.621   8.906  19.417  0.00  0.00    +0.000 N 
ATOM      2  C   UNL     1       0.558   9.777  19.581  0.00  0.00    +0.000 A 
ATOM      3  N   UNL     1      -0.353   9.903  18.628  0.00  0.00    +0.000 NA
ATOM      4  C   UNL     1      -1.363  10.727  18.905  0.00  0.00    +0.000 A 
ATOM      5  N   UNL     1      -1.494  11.408  20.041  0.00  0.00    +0.000 NA
ATOM      6  C   UNL     1      -0.530  11.223  20.942  0.00  0.00    +0.000 A 
ATOM      7  N   UNL     1       0.517  10.420  20.740  0.00  0.00    +0.000 NA
ATOM      8  H   UNL     1       2.349   9.180  20.066  0.00  0.00    +0.000 HD
ENDROOT
BRANCH   4   9
ATOM      9  C   UNL     1      -2.422  10.890  17.887  0.00  0.00    +0.000 A 
ATOM     10  C   UNL     1      -3.643  11.525  18.190  0.00  0.00    +0.000 A 
ATOM     11  C   UNL     1      -4.643  11.688  17.226  0.00  0.00    +0.000 A 
ATOM     12  C   UNL     1      -4.444  11.218  15.931  0.00  0.00    +0.000 A 
ATOM     13  C   UNL     1      -3.248  10.586  15.608  0.00  0.00    +0.000 A 
ATOM     14 CL   UNL     1      -2.997  10.002  14.008  0.00  0.00    +0.000 Cl
ATOM     15  C   UNL     1      -2.249  10.422  16.569  0.00  0.00    +0.000 A 
ENDBRANCH   4   9
BRANCH   6  16
ATOM     16  C   UNL     1      -0.651  11.929  22.271  0.00  0.00    +0.000 C 
ATOM     17  C   UNL     1      -1.852  12.796  22.570  0.00  0.00    +0.000 C 
ATOM     18  C   UNL     1      -1.687  11.486  23.281  0.00  0.00    +0.000 C 
ENDBRANCH   6  16
BRANCH   1  19
ATOM     19  C   UNL     1       2.051   8.660  18.057  0.00  0.00    +0.000 C 
BRANCH  19  23
ATOM     20  C   UNL     1       4.933   5.420  18.136  0.00  0.00    +0.000 A 
ATOM     21  C   UNL     1       3.905   5.482  19.085  0.00  0.00    +0.000 A 
ATOM     22  C   UNL     1       2.965   6.514  19.040  0.00  0.00    +0.000 A 
ATOM     23  C   UNL     1       3.032   7.505  18.050  0.00  0.00    +0.000 A 
ATOM     24  C   UNL     1       4.031   7.412  17.073  0.00  0.00    +0.000 A 
ATOM     25  C   UNL     1       4.970   6.377  17.112  0.00  0.00    +0.000 A 
BRANCH  20  26
ATOM     26  C   UNL     1       5.994   4.347  18.224  0.00  0.00    +0.000 C 
BRANCH  26  28
ATOM     27  O   UNL     1       8.119   4.214  17.121  0.00  0.00    +0.000 OA
ATOM     28  C   UNL     1       7.427   4.758  17.974  0.00  0.00    +0.000 C 
BRANCH  28  29
ATOM     29  O   UNL     1       7.921   5.755  18.738  0.00  0.00    +0.000 OA
ATOM     30  H   UNL     1       8.448   5.461  19.504  0.00  0.00    +0.000 HD
ENDBRANCH  28  29
ENDBRANCH  26  28
ENDBRANCH  20  26
ENDBRANCH  19  23
ENDBRANCH   1  19
TORSDOF 7
ENDMDL
MODEL 6
REMARK VINA RESULT:      -8.1      1.240      1.594
REMARK  Name = 
REMARK  7 active torsions:
REMARK  status: ('A' for Active; 'I' for Inactive)
REMARK    1  A    between atoms: C_2  and  O_3
REMARK    2  A    between atoms: C_2  and  C_4
REMARK    3  A    between atoms: C_4  and  C_5
REMARK    4  A    between atoms: C_8  and  C_9
REMARK    5  A    between atoms: C_9  and  N_10
REMARK    6  A    between atoms: C_13  and  C_14
REMARK    7  A    between atoms: C_22  and  C_23
REMARK                            x       y       z     vdW  Elec       q    Type
REMARK                         _______ _______ _______ _____ _____    ______ ____
ROOT
ATOM      1  N   UNL     1       1.416   8.869  20.547  0.00  0.00    +0.000 N 
ATOM      2  C   UNL     1       0.426   9.822  20.382  0.00  0.00    +0.000 A 
ATOM      3  N   UNL     1      -0.342   9.805  19.303  0.00  0.00    +0.000 NA
ATOM      4  C   UNL     1      -1.298  10.733  19.265  0.00  0.00    +0.000 A 
ATOM      5  N   UNL     1      -1.507  11.643  20.213  0.00  0.00    +0.000 NA
ATOM      6  C   UNL     1      -0.685  11.589  21.260  0.00  0.00    +0.000 A 
ATOM      7  N   UNL     1       0.300  10.695  21.372  0.00  0.00    +0.000 NA
ATOM      8  H   UNL     1       2.079   9.224  21.226  0.00  0.00    +0.000 HD
ENDROOT
BRANCH   4   9
ATOM      9  C   UNL     1      -2.200  10.747  18.094  0.00  0.00    +0.000 A 
ATOM     10  C   UNL     1      -1.917   9.992  16.938  0.00  0.00    +0.000 A 
ATOM     11  C   UNL     1      -2.774   9.996  15.832  0.00  0.00    +0.000 A 
ATOM     12  C   UNL     1      -3.938  10.759  15.858  0.00  0.00    +0.000 A 
ATOM     13  C   UNL     1      -4.238  11.514  16.987  0.00  0.00    +0.000 A 
ATOM     14 CL   UNL     1      -5.676  12.459  17.022  0.00  0.00    +0.000 Cl
ATOM     15  C   UNL     1      -3.384  11.511  18.091  0.00  0.00    +0.000 A 
ENDBRANCH   4   9
BRANCH   6  16
ATOM     16  C   UNL     1      -0.906  12.564  22.392  0.00  0.00    +0.000 C 
ATOM     17  C   UNL     1      -1.998  13.605  22.302  0.00  0.00    +0.000 C 
ATOM     18  C   UNL     1      -2.141  12.460  23.260  0.00  0.00    +0.000 C 
ENDBRANCH   6  16
BRANCH   1  19
ATOM     19  C   UNL     1       1.989   8.316  19.338  0.00  0.00    +0.000 C 
BRANCH  19  23
ATOM     20  C   UNL     1       2.587   4.061  19.927  0.00  0.00    +0.000 A 
ATOM     21  C   UNL     1       1.806   4.801  20.823  0.00  0.00    +0.000 A 
ATOM     22  C   UNL     1       1.596   6.167  20.616  0.00  0.00    +0.000 A 
ATOM     23  C   UNL     1       2.161   6.821  19.511  0.00  0.00    +0.000 A 
ATOM     24  C   UNL     1       2.901   6.067  18.591  0.00  0.00    +0.000 A 
ATOM     25  C   UNL     1       3.108   4.699  18.794  0.00  0.00    +0.000 A 
BRANCH  20  26
ATOM     26  C   UNL     1       2.876   2.600  20.189  0.00  0.00    +0.000 C 
BRANCH  26  28
ATOM     27  O   UNL     1       3.628   1.355  18.282  0.00  0.00    +0.000 OA
ATOM     28  C   UNL     1       3.920   1.929  19.325  0.00  0.00    +0.000 C 
BRANCH  28  29
ATOM     29  O   UNL     1       5.198   1.983  19.755  0.00  0.00    +0.000 OA
ATOM     30  H   UNL     1       5.302   2.144  20.711  0.00  0.00    +0.000 HD
ENDBRANCH  28  29
ENDBRANCH  26  28
ENDBRANCH  20  26
ENDBRANCH  19  23
ENDBRANCH   1  19
TORSDOF 7
ENDMDL
MODEL 7
REMARK VINA RESULT:      -8.0      7.203     10.247
REMARK  Name = 
REMARK  7 active torsions:
REMARK  status: ('A' for Active; 'I' for Inactive)
REMARK    1  A    between atoms: C_2  and  O_3
REMARK    2  A    between atoms: C_2  and  C_4
REMARK    3  A    between atoms: C_4  and  C_5
REMARK    4  A    between atoms: C_8  and  C_9
REMARK    5  A    between atoms: C_9  and  N_10
REMARK    6  A    between atoms: C_13  and  C_14
REMARK    7  A    between atoms: C_22  and  C_23
REMARK                            x       y       z     vdW  Elec       q    Type
REMARK                         _______ _______ _______ _____ _____    ______ ____
ROOT
ATOM      1  N   UNL     1       7.939   7.762  17.172  0.00  0.00    +0.000 N 
ATOM      2  C   UNL     1       7.090   6.698  16.923  0.00  0.00    +0.000 A 
ATOM      3  N   UNL     1       6.035   6.492  17.696  0.00  0.00    +0.000 NA
ATOM      4  C   UNL     1       5.254   5.472  17.341  0.00  0.00    +0.000 A 
ATOM      5  N   UNL     1       5.475   4.679  16.295  0.00  0.00    +0.000 NA
ATOM      6  C   UNL     1       6.561   4.956  15.576  0.00  0.00    +0.000 A 
ATOM      7  N   UNL     1       7.397   5.956  15.868  0.00  0.00    +0.000 NA
ATOM      8  H   UNL     1       8.821   7.571  16.712  0.00  0.00    +0.000 HD
ENDROOT
BRANCH   4   9
ATOM      9  C   UNL     1       4.048   5.209  18.154  0.00  0.00    +0.000 A 
ATOM     10  C   UNL     1       3.600   6.130  19.124  0.00  0.00    +0.000 A 
ATOM     11  C   UNL     1       2.454   5.888  19.888  0.00  0.00    +0.000 A 
ATOM     12  C   UNL     1       1.728   4.715  19.701  0.00  0.00    +0.000 A 
ATOM     13  C   UNL     1       2.151   3.791  18.752  0.00  0.00    +0.000 A 
ATOM     14 CL   UNL     1       1.257   2.339  18.518  0.00  0.00    +0.000 Cl
ATOM     15  C   UNL     1       3.294   4.031  17.988  0.00  0.00    +0.000 A 
ENDBRANCH   4   9
BRANCH   6  16
ATOM     16  C   UNL     1       6.836   4.122  14.348  0.00  0.00    +0.000 C 
ATOM     17  C   UNL     1       5.732   3.832  13.357  0.00  0.00    +0.000 C 
ATOM     18  C   UNL     1       6.846   4.761  12.976  0.00  0.00    +0.000 C 
ENDBRANCH   6  16
BRANCH   1  19
ATOM     19  C   UNL     1       8.031   8.208  18.546  0.00  0.00    +0.000 C 
BRANCH  19  23
ATOM     20  C   UNL     1       9.630  12.235  18.732  0.00  0.00    +0.000 A 
ATOM     21  C   UNL     1      10.012  11.272  19.675  0.00  0.00    +0.000 A 
ATOM     22  C   UNL     1       9.513   9.970  19.597  0.00  0.00    +0.000 A 
ATOM     23  C   UNL     1       8.623   9.602  18.577  0.00  0.00    +0.000 A 
ATOM     24  C   UNL     1       8.283  10.553  17.606  0.00  0.00    +0.000 A 
ATOM     25  C   UNL     1       8.786  11.855  17.680  0.00  0.00    +0.000 A 
BRANCH  20  26
ATOM     26  C   UNL     1      10.112  13.662  18.856  0.00  0.00    +0.000 C 
BRANCH  26  28
ATOM     27  O   UNL     1       8.508  15.234  18.014  0.00  0.00    +0.000 OA
ATOM     28  C   UNL     1       9.584  14.667  17.858  0.00  0.00    +0.000 C 
BRANCH  28  29
ATOM     29  O   UNL     1      10.350  14.915  16.775  0.00  0.00    +0.000 OA
ATOM     30  H   UNL     1      11.294  14.701  16.883  0.00  0.00    +0.000 HD
ENDBRANCH  28  29
ENDBRANCH  26  28
ENDBRANCH  20  26
ENDBRANCH  19  23
ENDBRANCH   1  19
TORSDOF 7
ENDMDL
MODEL 8
REMARK VINA RESULT:      -8.0      1.946      2.485
REMARK  Name = 
REMARK  7 active torsions:
REMARK  status: ('A' for Active; 'I' for Inactive)
REMARK    1  A    between atoms: C_2  and  O_3
REMARK    2  A    between atoms: C_2  and  C_4
REMARK    3  A    between atoms: C_4  and  C_5
REMARK    4  A    between atoms: C_8  and  C_9
REMARK    5  A    between atoms: C_9  and  N_10
REMARK    6  A    between atoms: C_13  and  C_14
REMARK    7  A    between atoms: C_22  and  C_23
REMARK                            x       y       z     vdW  Elec       q    Type
REMARK                         _______ _______ _______ _____ _____    ______ ____
ROOT
ATOM      1  N   UNL     1       1.808   8.837  19.286  0.00  0.00    +0.000 N 
ATOM      2  C   UNL     1       0.713   9.635  19.567  0.00  0.00    +0.000 A 
ATOM      3  N   UNL     1      -0.216   9.841  18.646  0.00  0.00    +0.000 NA
ATOM      4  C   UNL     1      -1.254  10.581  19.033  0.00  0.00    +0.000 A 
ATOM      5  N   UNL     1      -1.397  11.108  20.246  0.00  0.00    +0.000 NA
ATOM      6  C   UNL     1      -0.414  10.853  21.109  0.00  0.00    +0.000 A 
ATOM      7  N   UNL     1       0.662  10.126  20.798  0.00  0.00    +0.000 NA
ATOM      8  H   UNL     1       2.534   9.057  19.958  0.00  0.00    +0.000 HD
ENDROOT
BRANCH   4   9
ATOM      9  C   UNL     1      -2.332  10.825  18.052  0.00  0.00    +0.000 A 
ATOM     10  C   UNL     1      -3.502  11.529  18.404  0.00  0.00    +0.000 A 
ATOM     11  C   UNL     1      -4.520  11.770  17.475  0.00  0.00    +0.000 A 
ATOM     12  C   UNL     1      -4.391  11.310  16.168  0.00  0.00    +0.000 A 
ATOM     13  C   UNL     1      -3.248  10.611  15.797  0.00  0.00    +0.000 A 
ATOM     14 CL   UNL     1      -3.084  10.039  14.182  0.00  0.00    +0.000 Cl
ATOM     15  C   UNL     1      -2.231  10.370  16.722  0.00  0.00    +0.000 A 
ENDBRANCH   4   9
BRANCH   6  16
ATOM     16  C   UNL     1      -0.545  11.381  22.517  0.00  0.00    +0.000 C 
ATOM     17  C   UNL     1      -1.082  12.772  22.765  0.00  0.00    +0.000 C 
ATOM     18  C   UNL     1      -1.912  11.579  23.135  0.00  0.00    +0.000 C 
ENDBRANCH   6  16
BRANCH   1  19
ATOM     19  C   UNL     1       2.229   8.781  17.902  0.00  0.00    +0.000 C 
BRANCH  19  23
ATOM     20  C   UNL     1       4.594   5.223  17.159  0.00  0.00    +0.000 A 
ATOM     21  C   UNL     1       5.097   6.491  16.843  0.00  0.00    +0.000 A 
ATOM     22  C   UNL     1       4.341   7.636  17.107  0.00  0.00    +0.000 A 
ATOM     23  C   UNL     1       3.069   7.538  17.690  0.00  0.00    +0.000 A 
ATOM     24  C   UNL     1       2.591   6.272  18.051  0.00  0.00    +0.000 A 
ATOM     25  C   UNL     1       3.348   5.126  17.792  0.00  0.00    +0.000 A 
BRANCH  20  26
ATOM     26  C   UNL     1       5.379   3.979  16.808  0.00  0.00    +0.000 C 
BRANCH  26  28
ATOM     27  O   UNL     1       6.577   4.066  14.733  0.00  0.00    +0.000 OA
ATOM     28  C   UNL     1       6.615   4.150  15.955  0.00  0.00    +0.000 C 
BRANCH  28  29
ATOM     29  O   UNL     1       7.775   4.397  16.600  0.00  0.00    +0.000 OA
ATOM     30  H   UNL     1       7.804   4.087  17.523  0.00  0.00    +0.000 HD
ENDBRANCH  28  29
ENDBRANCH  26  28
ENDBRANCH  20  26
ENDBRANCH  19  23
ENDBRANCH   1  19
TORSDOF 7
ENDMDL
MODEL 9
REMARK VINA RESULT:      -7.9      1.664      2.104
REMARK  Name = 
REMARK  7 active torsions:
REMARK  status: ('A' for Active; 'I' for Inactive)
REMARK    1  A    between atoms: C_2  and  O_3
REMARK    2  A    between atoms: C_2  and  C_4
REMARK    3  A    between atoms: C_4  and  C_5
REMARK    4  A    between atoms: C_8  and  C_9
REMARK    5  A    between atoms: C_9  and  N_10
REMARK    6  A    between atoms: C_13  and  C_14
REMARK    7  A    between atoms: C_22  and  C_23
REMARK                            x       y       z     vdW  Elec       q    Type
REMARK                         _______ _______ _______ _____ _____    ______ ____
ROOT
ATOM      1  N   UNL     1       1.666   8.876  19.215  0.00  0.00    +0.000 N 
ATOM      2  C   UNL     1       0.602   9.725  19.461  0.00  0.00    +0.000 A 
ATOM      3  N   UNL     1      -0.337   9.901  18.544  0.00  0.00    +0.000 NA
ATOM      4  C   UNL     1      -1.344  10.698  18.899  0.00  0.00    +0.000 A 
ATOM      5  N   UNL     1      -1.447  11.308  20.078  0.00  0.00    +0.000 NA
ATOM      6  C   UNL     1      -0.456  11.078  20.938  0.00  0.00    +0.000 A 
ATOM      7  N   UNL     1       0.590  10.297  20.657  0.00  0.00    +0.000 NA
ATOM      8  H   UNL     1       2.411   9.116  19.858  0.00  0.00    +0.000 HD
ENDROOT
BRANCH   4   9
ATOM      9  C   UNL     1      -2.433  10.913  17.923  0.00  0.00    +0.000 A 
ATOM     10  C   UNL     1      -2.308  10.502  16.580  0.00  0.00    +0.000 A 
ATOM     11  C   UNL     1      -3.341  10.694  15.656  0.00  0.00    +0.000 A 
ATOM     12  C   UNL     1      -4.526  11.306  16.055  0.00  0.00    +0.000 A 
ATOM     13  C   UNL     1      -4.672  11.722  17.374  0.00  0.00    +0.000 A 
ATOM     14 CL   UNL     1      -6.135  12.479  17.872  0.00  0.00    +0.000 Cl
ATOM     15  C   UNL     1      -3.643  11.530  18.297  0.00  0.00    +0.000 A 
ENDBRANCH   4   9
BRANCH   6  16
ATOM     16  C   UNL     1      -0.543  11.701  22.310  0.00  0.00    +0.000 C 
ATOM     17  C   UNL     1      -1.611  12.725  22.618  0.00  0.00    +0.000 C 
ATOM     18  C   UNL     1      -1.693  11.360  23.233  0.00  0.00    +0.000 C 
ENDBRANCH   6  16
BRANCH   1  19
ATOM     19  C   UNL     1       2.058   8.715  17.830  0.00  0.00    +0.000 C 
BRANCH  19  23
ATOM     20  C   UNL     1       4.713   5.318  17.364  0.00  0.00    +0.000 A 
ATOM     21  C   UNL     1       5.134   6.605  17.007  0.00  0.00    +0.000 A 
ATOM     22  C   UNL     1       4.283   7.699  17.182  0.00  0.00    +0.000 A 
ATOM     23  C   UNL     1       2.997   7.532  17.716  0.00  0.00    +0.000 A 
ATOM     24  C   UNL     1       2.598   6.251  18.117  0.00  0.00    +0.000 A 
ATOM     25  C   UNL     1       3.450   5.155  17.948  0.00  0.00    +0.000 A 
BRANCH  20  26
ATOM     26  C   UNL     1       5.602   4.123  17.108  0.00  0.00    +0.000 C 
BRANCH  26  28
ATOM     27  O   UNL     1       7.584   4.660  15.869  0.00  0.00    +0.000 OA
ATOM     28  C   UNL     1       7.085   4.376  16.952  0.00  0.00    +0.000 C 
BRANCH  28  29
ATOM     29  O   UNL     1       7.845   4.272  18.062  0.00  0.00    +0.000 OA
ATOM     30  H   UNL     1       8.043   3.358  18.338  0.00  0.00    +0.000 HD
ENDBRANCH  28  29
ENDBRANCH  26  28
ENDBRANCH  20  26
ENDBRANCH  19  23
ENDBRANCH   1  19
TORSDOF 7
ENDMDL
