MODEL 1
REMARK VINA RESULT:      -7.8      0.000      0.000
REMARK  Name = 
REMARK  9 active torsions:
REMARK  status: ('A' for Active; 'I' for Inactive)
REMARK    1  A    between atoms: C_1  and  C_2
REMARK    2  A    between atoms: C_3  and  C_4
REMARK    3  A    between atoms: N_5  and  N_6
REMARK    4  A    between atoms: N_6  and  S_7
REMARK    5  A    between atoms: S_7  and  C_10
REMARK    6  A    between atoms: C_13  and  C_14
REMARK    7  A    between atoms: C_14  and  C_15
REMARK    8  A    between atoms: C_14  and  C_16
REMARK    9  A    between atoms: C_14  and  C_17
REMARK                            x       y       z     vdW  Elec       q    Type
REMARK                         _______ _______ _______ _____ _____    ______ ____
ROOT
ATOM      1  S   UNL     1       7.020   5.480  18.905  0.00  0.00    +0.000 S 
ATOM      2  O   UNL     1       7.731   5.448  20.165  0.00  0.00    +0.000 OA
ATOM      3  O   UNL     1       6.926   6.701  18.129  0.00  0.00    +0.000 OA
ENDROOT
BRANCH   1   4
ATOM      4  C   UNL     1       5.375   4.893  19.192  0.00  0.00    +0.000 A 
ATOM      5  C   UNL     1       5.186   3.561  19.538  0.00  0.00    +0.000 A 
ATOM      6  C   UNL     1       3.899   3.101  19.816  0.00  0.00    +0.000 A 
ATOM      7  C   UNL     1       2.779   3.955  19.764  0.00  0.00    +0.000 A 
ATOM      8  C   UNL     1       3.008   5.301  19.413  0.00  0.00    +0.000 A 
ATOM      9  C   UNL     1       4.296   5.775  19.143  0.00  0.00    +0.000 A 
BRANCH   7  10
ATOM     10  C   UNL     1       1.366   3.461  20.126  0.00  0.00    +0.000 C 
ATOM     11  C   UNL     1       0.383   4.624  20.396  0.00  0.00    +0.000 C 
ATOM     12  C   UNL     1       0.789   2.621  18.966  0.00  0.00    +0.000 C 
ATOM     13  C   UNL     1       1.390   2.584  21.396  0.00  0.00    +0.000 C 
ENDBRANCH   7  10
ENDBRANCH   1   4
BRANCH   1  14
ATOM     14  N   UNL     1       7.651   4.253  17.895  0.00  0.00    +0.000 N 
ATOM     15  H   UNL     1       8.078   3.438  18.339  0.00  0.00    +0.000 HD
BRANCH  14  17
ATOM     16  C   UNL     1       6.964   4.300  15.654  0.00  0.00    +0.000 C 
ATOM     17  N   UNL     1       7.847   4.620  16.533  0.00  0.00    +0.000 NA
BRANCH  16  20
ATOM     18  C   UNL     1       5.593   3.248  12.780  0.00  0.00    +0.000 C 
ATOM     19  C   UNL     1       6.649   4.232  13.082  0.00  0.00    +0.000 A 
ATOM     20  C   UNL     1       7.243   4.693  14.284  0.00  0.00    +0.000 A 
ATOM     21  N   UNL     1       8.177   5.621  14.033  0.00  0.00    +0.000 NA
ATOM     22  O   UNL     1       8.207   5.778  12.646  0.00  0.00    +0.000 OA
ATOM     23  N   UNL     1       7.235   4.889  12.082  0.00  0.00    +0.000 N 
ATOM     24  O   UNL     1       7.116   4.895  10.837  0.00  0.00    +0.000 OA
ENDBRANCH  16  20
ENDBRANCH  14  17
ENDBRANCH   1  14
TORSDOF 5
ENDMDL
MODEL 2
REMARK VINA RESULT:      -7.7      3.458      4.272
REMARK  Name = 
REMARK  9 active torsions:
REMARK  status: ('A' for Active; 'I' for Inactive)
REMARK    1  A    between atoms: C_1  and  C_2
REMARK    2  A    between atoms: C_3  and  C_4
REMARK    3  A    between atoms: N_5  and  N_6
REMARK    4  A    between atoms: N_6  and  S_7
REMARK    5  A    between atoms: S_7  and  C_10
REMARK    6  A    between atoms: C_13  and  C_14
REMARK    7  A    between atoms: C_14  and  C_15
REMARK    8  A    between atoms: C_14  and  C_16
REMARK    9  A    between atoms: C_14  and  C_17
REMARK                            x       y       z     vdW  Elec       q    Type
REMARK                         _______ _______ _______ _____ _____    ______ ____
ROOT
ATOM      1  S   UNL     1       3.818   5.024  19.179  0.00  0.00    +0.000 S 
ATOM      2  O   UNL     1       3.199   4.141  20.143  0.00  0.00    +0.000 OA
ATOM      3  O   UNL     1       5.223   5.370  19.274  0.00  0.00    +0.000 OA
ENDROOT
BRANCH   1   4
ATOM      4  C   UNL     1       2.891   6.531  19.145  0.00  0.00    +0.000 A 
ATOM      5  C   UNL     1       2.157   6.897  20.266  0.00  0.00    +0.000 A 
ATOM      6  C   UNL     1       1.464   8.107  20.268  0.00  0.00    +0.000 A 
ATOM      7  C   UNL     1       1.494   8.979  19.162  0.00  0.00    +0.000 A 
ATOM      8  C   UNL     1       2.252   8.579  18.042  0.00  0.00    +0.000 A 
ATOM      9  C   UNL     1       2.958   7.372  18.034  0.00  0.00    +0.000 A 
BRANCH   7  10
ATOM     10  C   UNL     1       0.776  10.342  19.185  0.00  0.00    +0.000 C 
ATOM     11  C   UNL     1       1.621  11.468  18.544  0.00  0.00    +0.000 C 
ATOM     12  C   UNL     1      -0.552  10.250  18.401  0.00  0.00    +0.000 C 
ATOM     13  C   UNL     1       0.458  10.781  20.630  0.00  0.00    +0.000 C 
ENDBRANCH   7  10
ENDBRANCH   1   4
BRANCH   1  14
ATOM     14  N   UNL     1       3.526   4.406  17.611  0.00  0.00    +0.000 N 
ATOM     15  H   UNL     1       2.891   3.611  17.519  0.00  0.00    +0.000 HD
BRANCH  14  17
ATOM     16  C   UNL     1       5.417   4.034  16.276  0.00  0.00    +0.000 C 
ATOM     17  N   UNL     1       4.450   4.816  16.608  0.00  0.00    +0.000 NA
BRANCH  16  20
ATOM     18  C   UNL     1       5.487   3.463  12.973  0.00  0.00    +0.000 C 
ATOM     19  C   UNL     1       6.337   4.271  13.864  0.00  0.00    +0.000 A 
ATOM     20  C   UNL     1       6.327   4.529  15.259  0.00  0.00    +0.000 A 
ATOM     21  N   UNL     1       7.325   5.355  15.601  0.00  0.00    +0.000 NA
ATOM     22  O   UNL     1       8.010   5.649  14.421  0.00  0.00    +0.000 OA
ATOM     23  N   UNL     1       7.362   4.951  13.351  0.00  0.00    +0.000 N 
ATOM     24  O   UNL     1       7.839   5.100  12.205  0.00  0.00    +0.000 OA
ENDBRANCH  16  20
ENDBRANCH  14  17
ENDBRANCH   1  14
TORSDOF 5
ENDMDL
MODEL 3
REMARK VINA RESULT:      -7.3      2.751      3.455
REMARK  Name = 
REMARK  9 active torsions:
REMARK  status: ('A' for Active; 'I' for Inactive)
REMARK    1  A    between atoms: C_1  and  C_2
REMARK    2  A    between atoms: C_3  and  C_4
REMARK    3  A    between atoms: N_5  and  N_6
REMARK    4  A    between atoms: N_6  and  S_7
REMARK    5  A    between atoms: S_7  and  C_10
REMARK    6  A    between atoms: C_13  and  C_14
REMARK    7  A    between atoms: C_14  and  C_15
REMARK    8  A    between atoms: C_14  and  C_16
REMARK    9  A    between atoms: C_14  and  C_17
REMARK                            x       y       z     vdW  Elec       q    Type
REMARK                         _______ _______ _______ _____ _____    ______ ____
ROOT
ATOM      1  S   UNL     1       4.326   4.032  18.887  0.00  0.00    +0.000 S 
ATOM      2  O   UNL     1       3.994   2.838  19.633  0.00  0.00    +0.000 OA
ATOM      3  O   UNL     1       5.681   4.551  18.869  0.00  0.00    +0.000 OA
ENDROOT
BRANCH   1   4
ATOM      4  C   UNL     1       3.256   5.331  19.432  0.00  0.00    +0.000 A 
ATOM      5  C   UNL     1       2.491   5.141  20.576  0.00  0.00    +0.000 A 
ATOM      6  C   UNL     1       1.684   6.178  21.042  0.00  0.00    +0.000 A 
ATOM      7  C   UNL     1       1.626   7.424  20.387  0.00  0.00    +0.000 A 
ATOM      8  C   UNL     1       2.418   7.585  19.232  0.00  0.00    +0.000 A 
ATOM      9  C   UNL     1       3.239   6.555  18.762  0.00  0.00    +0.000 A 
BRANCH   7  10
ATOM     10  C   UNL     1       0.778   8.588  20.934  0.00  0.00    +0.000 C 
ATOM     11  C   UNL     1      -0.603   8.124  21.451  0.00  0.00    +0.000 C 
ATOM     12  C   UNL     1       1.514   9.266  22.111  0.00  0.00    +0.000 C 
ATOM     13  C   UNL     1       0.521   9.650  19.844  0.00  0.00    +0.000 C 
ENDBRANCH   7  10
ENDBRANCH   1   4
BRANCH   1  14
ATOM     14  N   UNL     1       3.814   3.822  17.269  0.00  0.00    +0.000 N 
ATOM     15  H   UNL     1       3.091   3.126  17.081  0.00  0.00    +0.000 HD
BRANCH  14  17
ATOM     16  C   UNL     1       5.652   3.674  15.820  0.00  0.00    +0.000 C 
ATOM     17  N   UNL     1       4.674   4.374  16.277  0.00  0.00    +0.000 NA
BRANCH  16  20
ATOM     18  C   UNL     1       5.771   3.250  12.497  0.00  0.00    +0.000 C 
ATOM     19  C   UNL     1       6.526   4.115  13.420  0.00  0.00    +0.000 A 
ATOM     20  C   UNL     1       6.494   4.313  14.825  0.00  0.00    +0.000 A 
ATOM     21  N   UNL     1       7.391   5.235  15.199  0.00  0.00    +0.000 NA
ATOM     22  O   UNL     1       8.031   5.654  14.032  0.00  0.00    +0.000 OA
ATOM     23  N   UNL     1       7.462   4.929  12.934  0.00  0.00    +0.000 N 
ATOM     24  O   UNL     1       7.913   5.179  11.795  0.00  0.00    +0.000 OA
ENDBRANCH  16  20
ENDBRANCH  14  17
ENDBRANCH   1  14
TORSDOF 5
ENDMDL
MODEL 4
REMARK VINA RESULT:      -7.2      4.183      5.637
REMARK  Name = 
REMARK  9 active torsions:
REMARK  status: ('A' for Active; 'I' for Inactive)
REMARK    1  A    between atoms: C_1  and  C_2
REMARK    2  A    between atoms: C_3  and  C_4
REMARK    3  A    between atoms: N_5  and  N_6
REMARK    4  A    between atoms: N_6  and  S_7
REMARK    5  A    between atoms: S_7  and  C_10
REMARK    6  A    between atoms: C_13  and  C_14
REMARK    7  A    between atoms: C_14  and  C_15
REMARK    8  A    between atoms: C_14  and  C_16
REMARK    9  A    between atoms: C_14  and  C_17
REMARK                            x       y       z     vdW  Elec       q    Type
REMARK                         _______ _______ _______ _____ _____    ______ ____
ROOT
ATOM      1  S   UNL     1       7.443   5.261  17.557  0.00  0.00    +0.000 S 
ATOM      2  O   UNL     1       7.795   4.518  16.367  0.00  0.00    +0.000 OA
ATOM      3  O   UNL     1       8.304   5.259  18.724  0.00  0.00    +0.000 OA
ENDROOT
BRANCH   1   4
ATOM      4  C   UNL     1       5.833   4.739  18.071  0.00  0.00    +0.000 A 
ATOM      5  C   UNL     1       5.340   5.175  19.295  0.00  0.00    +0.000 A 
ATOM      6  C   UNL     1       4.052   4.810  19.685  0.00  0.00    +0.000 A 
ATOM      7  C   UNL     1       3.227   4.014  18.867  0.00  0.00    +0.000 A 
ATOM      8  C   UNL     1       3.756   3.592  17.629  0.00  0.00    +0.000 A 
ATOM      9  C   UNL     1       5.043   3.961  17.224  0.00  0.00    +0.000 A 
BRANCH   7  10
ATOM     10  C   UNL     1       1.784   3.659  19.272  0.00  0.00    +0.000 C 
ATOM     11  C   UNL     1       1.684   2.275  19.954  0.00  0.00    +0.000 C 
ATOM     12  C   UNL     1       1.244   4.710  20.266  0.00  0.00    +0.000 C 
ATOM     13  C   UNL     1       0.851   3.627  18.043  0.00  0.00    +0.000 C 
ENDBRANCH   7  10
ENDBRANCH   1   4
BRANCH   1  14
ATOM     14  N   UNL     1       7.151   6.887  17.114  0.00  0.00    +0.000 N 
ATOM     15  H   UNL     1       6.660   7.064  16.235  0.00  0.00    +0.000 HD
BRANCH  14  17
ATOM     16  C   UNL     1       7.760   9.110  17.544  0.00  0.00    +0.000 C 
ATOM     17  N   UNL     1       7.913   7.862  17.819  0.00  0.00    +0.000 NA
BRANCH  16  20
ATOM     18  C   UNL     1       8.086  12.433  17.243  0.00  0.00    +0.000 C 
ATOM     19  C   UNL     1       8.706  11.447  18.145  0.00  0.00    +0.000 A 
ATOM     20  C   UNL     1       8.585  10.041  18.293  0.00  0.00    +0.000 A 
ATOM     21  N   UNL     1       9.369   9.594  19.283  0.00  0.00    +0.000 NA
ATOM     22  O   UNL     1      10.023  10.713  19.799  0.00  0.00    +0.000 OA
ATOM     23  N   UNL     1       9.583  11.859  19.060  0.00  0.00    +0.000 N 
ATOM     24  O   UNL     1      10.064  12.965  19.389  0.00  0.00    +0.000 OA
ENDBRANCH  16  20
ENDBRANCH  14  17
ENDBRANCH   1  14
TORSDOF 5
ENDMDL
MODEL 5
REMARK VINA RESULT:      -7.2      4.308      5.514
REMARK  Name = 
REMARK  9 active torsions:
REMARK  status: ('A' for Active; 'I' for Inactive)
REMARK    1  A    between atoms: C_1  and  C_2
REMARK    2  A    between atoms: C_3  and  C_4
REMARK    3  A    between atoms: N_5  and  N_6
REMARK    4  A    between atoms: N_6  and  S_7
REMARK    5  A    between atoms: S_7  and  C_10
REMARK    6  A    between atoms: C_13  and  C_14
REMARK    7  A    between atoms: C_14  and  C_15
REMARK    8  A    between atoms: C_14  and  C_16
REMARK    9  A    between atoms: C_14  and  C_17
REMARK                            x       y       z     vdW  Elec       q    Type
REMARK                         _______ _______ _______ _____ _____    ______ ____
ROOT
ATOM      1  S   UNL     1       2.321   5.380  19.866  0.00  0.00    +0.000 S 
ATOM      2  O   UNL     1       1.891   4.742  18.641  0.00  0.00    +0.000 OA
ATOM      3  O   UNL     1       1.869   4.902  21.158  0.00  0.00    +0.000 OA
ENDROOT
BRANCH   1   4
ATOM      4  C   UNL     1       1.923   7.100  19.755  0.00  0.00    +0.000 A 
ATOM      5  C   UNL     1       2.102   7.758  18.544  0.00  0.00    +0.000 A 
ATOM      6  C   UNL     1       1.743   9.100  18.434  0.00  0.00    +0.000 A 
ATOM      7  C   UNL     1       1.192   9.812  19.517  0.00  0.00    +0.000 A 
ATOM      8  C   UNL     1       1.019   9.114  20.730  0.00  0.00    +0.000 A 
ATOM      9  C   UNL     1       1.367   7.764  20.848  0.00  0.00    +0.000 A 
BRANCH   7  10
ATOM     10  C   UNL     1       0.741  11.279  19.378  0.00  0.00    +0.000 C 
ATOM     11  C   UNL     1       0.545  11.971  20.747  0.00  0.00    +0.000 C 
ATOM     12  C   UNL     1       1.803  12.083  18.596  0.00  0.00    +0.000 C 
ATOM     13  C   UNL     1      -0.601  11.381  18.622  0.00  0.00    +0.000 C 
ENDBRANCH   7  10
ENDBRANCH   1   4
BRANCH   1  14
ATOM     14  N   UNL     1       4.031   5.425  19.882  0.00  0.00    +0.000 N 
ATOM     15  H   UNL     1       4.496   5.694  20.752  0.00  0.00    +0.000 HD
BRANCH  14  17
ATOM     16  C   UNL     1       5.322   4.393  18.219  0.00  0.00    +0.000 C 
ATOM     17  N   UNL     1       4.658   5.426  18.604  0.00  0.00    +0.000 NA
BRANCH  16  20
ATOM     18  C   UNL     1       7.442   6.676  16.979  0.00  0.00    +0.000 C 
ATOM     19  C   UNL     1       6.842   5.457  16.409  0.00  0.00    +0.000 A 
ATOM     20  C   UNL     1       5.947   4.478  16.911  0.00  0.00    +0.000 A 
ATOM     21  N   UNL     1       5.701   3.535  15.991  0.00  0.00    +0.000 NA
ATOM     22  O   UNL     1       6.437   3.892  14.861  0.00  0.00    +0.000 OA
ATOM     23  N   UNL     1       7.141   5.104  15.159  0.00  0.00    +0.000 N 
ATOM     24  O   UNL     1       7.866   5.576  14.256  0.00  0.00    +0.000 OA
ENDBRANCH  16  20
ENDBRANCH  14  17
ENDBRANCH   1  14
TORSDOF 5
ENDMDL
MODEL 6
REMARK VINA RESULT:      -7.2      5.442      7.353
REMARK  Name = 
REMARK  9 active torsions:
REMARK  status: ('A' for Active; 'I' for Inactive)
REMARK    1  A    between atoms: C_1  and  C_2
REMARK    2  A    between atoms: C_3  and  C_4
REMARK    3  A    between atoms: N_5  and  N_6
REMARK    4  A    between atoms: N_6  and  S_7
REMARK    5  A    between atoms: S_7  and  C_10
REMARK    6  A    between atoms: C_13  and  C_14
REMARK    7  A    between atoms: C_14  and  C_15
REMARK    8  A    between atoms: C_14  and  C_16
REMARK    9  A    between atoms: C_14  and  C_17
REMARK                            x       y       z     vdW  Elec       q    Type
REMARK                         _______ _______ _______ _____ _____    ______ ____
ROOT
ATOM      1  S   UNL     1       1.628   2.695  19.284  0.00  0.00    +0.000 S 
ATOM      2  O   UNL     1       2.022   1.424  19.851  0.00  0.00    +0.000 OA
ATOM      3  O   UNL     1       0.580   2.776  18.284  0.00  0.00    +0.000 OA
ENDROOT
BRANCH   1   4
ATOM      4  C   UNL     1       3.073   3.467  18.616  0.00  0.00    +0.000 A 
ATOM      5  C   UNL     1       4.145   3.734  19.458  0.00  0.00    +0.000 A 
ATOM      6  C   UNL     1       5.308   4.295  18.931  0.00  0.00    +0.000 A 
ATOM      7  C   UNL     1       5.432   4.594  17.560  0.00  0.00    +0.000 A 
ATOM      8  C   UNL     1       4.326   4.306  16.733  0.00  0.00    +0.000 A 
ATOM      9  C   UNL     1       3.160   3.734  17.250  0.00  0.00    +0.000 A 
BRANCH   7  10
ATOM     10  C   UNL     1       6.737   5.160  16.969  0.00  0.00    +0.000 C 
ATOM     11  C   UNL     1       6.859   6.690  17.161  0.00  0.00    +0.000 C 
ATOM     12  C   UNL     1       7.954   4.503  17.656  0.00  0.00    +0.000 C 
ATOM     13  C   UNL     1       6.827   4.885  15.453  0.00  0.00    +0.000 C 
ENDBRANCH   7  10
ENDBRANCH   1   4
BRANCH   1  14
ATOM     14  N   UNL     1       1.229   3.760  20.562  0.00  0.00    +0.000 N 
ATOM     15  H   UNL     1       0.871   3.355  21.429  0.00  0.00    +0.000 HD
BRANCH  14  17
ATOM     16  C   UNL     1       1.783   6.023  20.822  0.00  0.00    +0.000 C 
ATOM     17  N   UNL     1       1.096   5.130  20.199  0.00  0.00    +0.000 NA
BRANCH  16  20
ATOM     18  C   UNL     1       2.707   7.593  18.008  0.00  0.00    +0.000 C 
ATOM     19  C   UNL     1       1.982   8.042  19.209  0.00  0.00    +0.000 A 
ATOM     20  C   UNL     1       1.579   7.399  20.408  0.00  0.00    +0.000 A 
ATOM     21  N   UNL     1       0.923   8.249  21.210  0.00  0.00    +0.000 NA
ATOM     22  O   UNL     1       0.891   9.472  20.540  0.00  0.00    +0.000 OA
ATOM     23  N   UNL     1       1.566   9.306  19.287  0.00  0.00    +0.000 N 
ATOM     24  O   UNL     1       1.632  10.306  18.540  0.00  0.00    +0.000 OA
ENDBRANCH  16  20
ENDBRANCH  14  17
ENDBRANCH   1  14
TORSDOF 5
ENDMDL
MODEL 7
REMARK VINA RESULT:      -7.2      3.576      4.517
REMARK  Name = 
REMARK  9 active torsions:
REMARK  status: ('A' for Active; 'I' for Inactive)
REMARK    1  A    between atoms: C_1  and  C_2
REMARK    2  A    between atoms: C_3  and  C_4
REMARK    3  A    between atoms: N_5  and  N_6
REMARK    4  A    between atoms: N_6  and  S_7
REMARK    5  A    between atoms: S_7  and  C_10
REMARK    6  A    between atoms: C_13  and  C_14
REMARK    7  A    between atoms: C_14  and  C_15
REMARK    8  A    between atoms: C_14  and  C_16
REMARK    9  A    between atoms: C_14  and  C_17
REMARK                            x       y       z     vdW  Elec       q    Type
REMARK                         _______ _______ _______ _____ _____    ______ ____
ROOT
ATOM      1  S   UNL     1       3.106   4.456  19.235  0.00  0.00    +0.000 S 
ATOM      2  O   UNL     1       2.129   3.655  19.940  0.00  0.00    +0.000 OA
ATOM      3  O   UNL     1       4.499   4.464  19.639  0.00  0.00    +0.000 OA
ENDROOT
BRANCH   1   4
ATOM      4  C   UNL     1       2.535   6.131  19.226  0.00  0.00    +0.000 A 
ATOM      5  C   UNL     1       2.664   6.881  18.064  0.00  0.00    +0.000 A 
ATOM      6  C   UNL     1       2.170   8.185  18.032  0.00  0.00    +0.000 A 
ATOM      7  C   UNL     1       1.534   8.764  19.147  0.00  0.00    +0.000 A 
ATOM      8  C   UNL     1       1.417   7.974  20.308  0.00  0.00    +0.000 A 
ATOM      9  C   UNL     1       1.899   6.662  20.348  0.00  0.00    +0.000 A 
BRANCH   7  10
ATOM     10  C   UNL     1       0.938  10.184  19.092  0.00  0.00    +0.000 C 
ATOM     11  C   UNL     1      -0.445  10.220  18.402  0.00  0.00    +0.000 C 
ATOM     12  C   UNL     1       0.760  10.734  20.524  0.00  0.00    +0.000 C 
ATOM     13  C   UNL     1       1.859  11.146  18.312  0.00  0.00    +0.000 C 
ENDBRANCH   7  10
ENDBRANCH   1   4
BRANCH   1  14
ATOM     14  N   UNL     1       3.035   4.060  17.573  0.00  0.00    +0.000 N 
ATOM     15  H   UNL     1       2.428   3.289  17.289  0.00  0.00    +0.000 HD
BRANCH  14  17
ATOM     16  C   UNL     1       5.066   3.848  16.421  0.00  0.00    +0.000 C 
ATOM     17  N   UNL     1       4.080   4.598  16.769  0.00  0.00    +0.000 NA
BRANCH  16  20
ATOM     18  C   UNL     1       5.603   3.725  13.114  0.00  0.00    +0.000 C 
ATOM     19  C   UNL     1       6.308   4.404  14.215  0.00  0.00    +0.000 A 
ATOM     20  C   UNL     1       6.101   4.473  15.617  0.00  0.00    +0.000 A 
ATOM     21  N   UNL     1       7.028   5.243  16.202  0.00  0.00    +0.000 NA
ATOM     22  O   UNL     1       7.865   5.691  15.179  0.00  0.00    +0.000 OA
ATOM     23  N   UNL     1       7.383   5.144  13.945  0.00  0.00    +0.000 N 
ATOM     24  O   UNL     1       8.012   5.444  12.907  0.00  0.00    +0.000 OA
ENDBRANCH  16  20
ENDBRANCH  14  17
ENDBRANCH   1  14
TORSDOF 5
ENDMDL
MODEL 8
REMARK VINA RESULT:      -7.1      4.131      5.168
REMARK  Name = 
REMARK  9 active torsions:
REMARK  status: ('A' for Active; 'I' for Inactive)
REMARK    1  A    between atoms: C_1  and  C_2
REMARK    2  A    between atoms: C_3  and  C_4
REMARK    3  A    between atoms: N_5  and  N_6
REMARK    4  A    between atoms: N_6  and  S_7
REMARK    5  A    between atoms: S_7  and  C_10
REMARK    6  A    between atoms: C_13  and  C_14
REMARK    7  A    between atoms: C_14  and  C_15
REMARK    8  A    between atoms: C_14  and  C_16
REMARK    9  A    between atoms: C_14  and  C_17
REMARK                            x       y       z     vdW  Elec       q    Type
REMARK                         _______ _______ _______ _____ _____    ______ ____
ROOT
ATOM      1  S   UNL     1       2.738   5.407  19.764  0.00  0.00    +0.000 S 
ATOM      2  O   UNL     1       2.358   4.743  18.537  0.00  0.00    +0.000 OA
ATOM      3  O   UNL     1       2.378   4.857  21.057  0.00  0.00    +0.000 OA
ENDROOT
BRANCH   1   4
ATOM      4  C   UNL     1       2.134   7.069  19.696  0.00  0.00    +0.000 A 
ATOM      5  C   UNL     1       2.193   7.759  18.491  0.00  0.00    +0.000 A 
ATOM      6  C   UNL     1       1.672   9.050  18.415  0.00  0.00    +0.000 A 
ATOM      7  C   UNL     1       1.078   9.677  19.527  0.00  0.00    +0.000 A 
ATOM      8  C   UNL     1       1.031   8.947  20.733  0.00  0.00    +0.000 A 
ATOM      9  C   UNL     1       1.541   7.647  20.818  0.00  0.00    +0.000 A 
BRANCH   7  10
ATOM     10  C   UNL     1       0.451  11.081  19.428  0.00  0.00    +0.000 C 
ATOM     11  C   UNL     1      -0.717  11.138  18.416  0.00  0.00    +0.000 C 
ATOM     12  C   UNL     1      -0.101  11.508  20.805  0.00  0.00    +0.000 C 
ATOM     13  C   UNL     1       1.494  12.126  18.976  0.00  0.00    +0.000 C 
ENDBRANCH   7  10
ENDBRANCH   1   4
BRANCH   1  14
ATOM     14  N   UNL     1       4.431   5.657  19.744  0.00  0.00    +0.000 N 
ATOM     15  H   UNL     1       4.836   6.253  20.468  0.00  0.00    +0.000 HD
BRANCH  14  17
ATOM     16  C   UNL     1       5.657   6.221  17.828  0.00  0.00    +0.000 C 
ATOM     17  N   UNL     1       5.088   5.306  18.531  0.00  0.00    +0.000 NA
BRANCH  16  20
ATOM     18  C   UNL     1       4.722   3.870  15.627  0.00  0.00    +0.000 C 
ATOM     19  C   UNL     1       5.875   4.787  15.679  0.00  0.00    +0.000 A 
ATOM     20  C   UNL     1       6.291   5.787  16.595  0.00  0.00    +0.000 A 
ATOM     21  N   UNL     1       7.429   6.365  16.190  0.00  0.00    +0.000 NA
ATOM     22  O   UNL     1       7.779   5.741  14.992  0.00  0.00    +0.000 OA
ATOM     23  N   UNL     1       6.780   4.754  14.702  0.00  0.00    +0.000 N 
ATOM     24  O   UNL     1       6.926   4.091  13.653  0.00  0.00    +0.000 OA
ENDBRANCH  16  20
ENDBRANCH  14  17
ENDBRANCH   1  14
TORSDOF 5
ENDMDL
MODEL 9
REMARK VINA RESULT:      -7.1      5.516      7.385
REMARK  Name = 
REMARK  9 active torsions:
REMARK  status: ('A' for Active; 'I' for Inactive)
REMARK    1  A    between atoms: C_1  and  C_2
REMARK    2  A    between atoms: C_3  and  C_4
REMARK    3  A    between atoms: N_5  and  N_6
REMARK    4  A    between atoms: N_6  and  S_7
REMARK    5  A    between atoms: S_7  and  C_10
REMARK    6  A    between atoms: C_13  and  C_14
REMARK    7  A    between atoms: C_14  and  C_15
REMARK    8  A    between atoms: C_14  and  C_16
REMARK    9  A    between atoms: C_14  and  C_17
REMARK                            x       y       z     vdW  Elec       q    Type
REMARK                         _______ _______ _______ _____ _____    ______ ____
ROOT
ATOM      1  S   UNL     1       1.532   2.709  19.306  0.00  0.00    +0.000 S 
ATOM      2  O   UNL     1       1.831   1.384  19.805  0.00  0.00    +0.000 OA
ATOM      3  O   UNL     1       0.500   2.918  18.308  0.00  0.00    +0.000 OA
ENDROOT
BRANCH   1   4
ATOM      4  C   UNL     1       3.034   3.411  18.687  0.00  0.00    +0.000 A 
ATOM      5  C   UNL     1       3.040   3.984  17.421  0.00  0.00    +0.000 A 
ATOM      6  C   UNL     1       4.204   4.585  16.946  0.00  0.00    +0.000 A 
ATOM      7  C   UNL     1       5.380   4.637  17.720  0.00  0.00    +0.000 A 
ATOM      8  C   UNL     1       5.339   4.051  19.001  0.00  0.00    +0.000 A 
ATOM      9  C   UNL     1       4.172   3.454  19.491  0.00  0.00    +0.000 A 
BRANCH   7  10
ATOM     10  C   UNL     1       6.650   5.352  17.218  0.00  0.00    +0.000 C 
ATOM     11  C   UNL     1       7.129   4.817  15.849  0.00  0.00    +0.000 C 
ATOM     12  C   UNL     1       6.373   6.863  17.057  0.00  0.00    +0.000 C 
ATOM     13  C   UNL     1       7.819   5.175  18.210  0.00  0.00    +0.000 C 
ENDBRANCH   7  10
ENDBRANCH   1   4
BRANCH   1  14
ATOM     14  N   UNL     1       1.200   3.728  20.638  0.00  0.00    +0.000 N 
ATOM     15  H   UNL     1       0.911   3.292  21.516  0.00  0.00    +0.000 HD
BRANCH  14  17
ATOM     16  C   UNL     1       1.878   5.971  20.720  0.00  0.00    +0.000 C 
ATOM     17  N   UNL     1       1.012   5.105  20.326  0.00  0.00    +0.000 NA
BRANCH  16  20
ATOM     18  C   UNL     1       2.656   7.707  17.960  0.00  0.00    +0.000 C 
ATOM     19  C   UNL     1       1.949   8.070  19.201  0.00  0.00    +0.000 A 
ATOM     20  C   UNL     1       1.607   7.356  20.378  0.00  0.00    +0.000 A 
ATOM     21  N   UNL     1       0.942   8.139  21.238  0.00  0.00    +0.000 NA
ATOM     22  O   UNL     1       0.842   9.391  20.629  0.00  0.00    +0.000 OA
ATOM     23  N   UNL     1       1.486   9.310  19.351  0.00  0.00    +0.000 N 
ATOM     24  O   UNL     1       1.490  10.347  18.652  0.00  0.00    +0.000 OA
ENDBRANCH  16  20
ENDBRANCH  14  17
ENDBRANCH   1  14
TORSDOF 5
ENDMDL
