MODEL 1
REMARK VINA RESULT:      -8.8      0.000      0.000
REMARK  Name = 
REMARK  7 active torsions:
REMARK  status: ('A' for Active; 'I' for Inactive)
REMARK    1  A    between atoms: C_1  and  C_2
REMARK    2  A    between atoms: N_7  and  C_8
REMARK    3  A    between atoms: C_11  and  N_12
REMARK    4  A    between atoms: C_20  and  C_21
REMARK    5  A    between atoms: C_21  and  C_22
REMARK    6  A    between atoms: C_21  and  C_23
REMARK    7  A    between atoms: C_23  and  C_24
REMARK                            x       y       z     vdW  Elec       q    Type
REMARK                         _______ _______ _______ _____ _____    ______ ____
ROOT
ATOM      1  N   UNL     1       0.432  10.176  19.450  0.00  0.00    +0.000 N 
ATOM      2  C   UNL     1      -0.791  10.511  18.904  0.00  0.00    +0.000 A 
ATOM      3  N   UNL     1      -1.116  10.011  17.751  0.00  0.00    +0.000 NA
ATOM      4  C   UNL     1      -2.281  10.357  17.147  0.00  0.00    +0.000 A 
ATOM      5  N   UNL     1      -3.188  11.151  17.621  0.00  0.00    +0.000 NA
ATOM      6  N   UNL     1      -2.883  11.644  18.827  0.00  0.00    +0.000 N 
ATOM      7  C   UNL     1      -3.703  12.453  19.548  0.00  0.00    +0.000 A 
ATOM      8  C   UNL     1      -3.098  12.723  20.747  0.00  0.00    +0.000 A 
ATOM      9  C   UNL     1      -1.834  12.047  20.769  0.00  0.00    +0.000 A 
ATOM     10  C   UNL     1      -1.735  11.389  19.542  0.00  0.00    +0.000 A 
ATOM     11  H   UNL     1       1.056  10.975  19.491  0.00  0.00    +0.000 HD
ENDROOT
BRANCH   1  15
ATOM     12  C   UNL     1       3.419   7.017  18.948  0.00  0.00    +0.000 C 
ATOM     13  C   UNL     1       2.972   7.905  17.763  0.00  0.00    +0.000 C 
ATOM     14  C   UNL     1       2.312   9.207  18.204  0.00  0.00    +0.000 C 
ATOM     15  C   UNL     1       1.143   8.930  19.149  0.00  0.00    +0.000 C 
ATOM     16  C   UNL     1       1.624   8.160  20.383  0.00  0.00    +0.000 C 
ATOM     17  C   UNL     1       2.291   6.842  19.996  0.00  0.00    +0.000 C 
BRANCH  12  24
ATOM     18  C   UNL     1       6.085   4.038  14.444  0.00  0.00    +0.000 C 
ATOM     19  C   UNL     1       6.601   4.188  15.854  0.00  0.00    +0.000 C 
ATOM     20  O   UNL     1       7.785   4.464  16.048  0.00  0.00    +0.000 OA
ATOM     21  N   UNL     1       5.695   4.020  16.888  0.00  0.00    +0.000 N 
ATOM     22  C   UNL     1       6.101   4.323  18.259  0.00  0.00    +0.000 C 
ATOM     23  C   UNL     1       5.460   5.647  18.729  0.00  0.00    +0.000 C 
ATOM     24  N   UNL     1       3.984   5.700  18.549  0.00  0.00    +0.000 NA
ATOM     25  C   UNL     1       3.593   5.271  17.186  0.00  0.00    +0.000 C 
ATOM     26  C   UNL     1       4.246   3.952  16.735  0.00  0.00    +0.000 C 
ENDBRANCH  12  24
ENDBRANCH   1  15
BRANCH   9  27
ATOM     27  C   UNL     1      -0.877  12.106  21.947  0.00  0.00    +0.000 C 
ATOM     28  C   UNL     1      -0.912  13.524  22.559  0.00  0.00    +0.000 C 
BRANCH  27  29
ATOM     29  C   UNL     1      -1.212  11.113  23.079  0.00  0.00    +0.000 C 
BRANCH  29  30
ATOM     30  C   UNL     1      -0.401   9.837  23.153  0.00  0.00    +0.000 C 
ATOM     31  N   UNL     1      -0.892   8.748  22.507  0.00  0.00    +0.000 N 
ATOM     32  O   UNL     1       0.609   9.738  23.844  0.00  0.00    +0.000 OA
ATOM     33  H   UNL     1      -1.636   8.797  21.825  0.00  0.00    +0.000 HD
ATOM     34  H   UNL     1      -0.366   7.888  22.582  0.00  0.00    +0.000 HD
ENDBRANCH  29  30
ENDBRANCH  27  29
ENDBRANCH   9  27
TORSDOF 5
ENDMDL
MODEL 2
REMARK VINA RESULT:      -8.3      2.264      9.865
REMARK  Name = 
REMARK  7 active torsions:
REMARK  status: ('A' for Active; 'I' for Inactive)
REMARK    1  A    between atoms: C_1  and  C_2
REMARK    2  A    between atoms: N_7  and  C_8
REMARK    3  A    between atoms: C_11  and  N_12
REMARK    4  A    between atoms: C_20  and  C_21
REMARK    5  A    between atoms: C_21  and  C_22
REMARK    6  A    between atoms: C_21  and  C_23
REMARK    7  A    between atoms: C_23  and  C_24
REMARK                            x       y       z     vdW  Elec       q    Type
REMARK                         _______ _______ _______ _____ _____    ______ ____
ROOT
ATOM      1  N   UNL     1       3.040   6.388  19.724  0.00  0.00    +0.000 N 
ATOM      2  C   UNL     1       2.425   5.152  19.709  0.00  0.00    +0.000 A 
ATOM      3  N   UNL     1       1.359   4.979  20.428  0.00  0.00    +0.000 NA
ATOM      4  C   UNL     1       0.752   3.766  20.492  0.00  0.00    +0.000 A 
ATOM      5  N   UNL     1       1.107   2.694  19.858  0.00  0.00    +0.000 NA
ATOM      6  N   UNL     1       2.183   2.868  19.083  0.00  0.00    +0.000 N 
ATOM      7  C   UNL     1       2.706   1.904  18.280  0.00  0.00    +0.000 A 
ATOM      8  C   UNL     1       3.766   2.441  17.595  0.00  0.00    +0.000 A 
ATOM      9  C   UNL     1       3.905   3.810  17.997  0.00  0.00    +0.000 A 
ATOM     10  C   UNL     1       2.899   4.035  18.937  0.00  0.00    +0.000 A 
ATOM     11  H   UNL     1       3.953   6.347  20.164  0.00  0.00    +0.000 HD
ENDROOT
BRANCH   1  15
ATOM     12  C   UNL     1       0.102   9.609  20.102  0.00  0.00    +0.000 C 
ATOM     13  C   UNL     1       1.168   9.612  18.981  0.00  0.00    +0.000 C 
ATOM     14  C   UNL     1       1.772   8.236  18.724  0.00  0.00    +0.000 C 
ATOM     15  C   UNL     1       2.339   7.642  20.012  0.00  0.00    +0.000 C 
ATOM     16  C   UNL     1       1.242   7.525  21.076  0.00  0.00    +0.000 C 
ATOM     17  C   UNL     1       0.605   8.880  21.374  0.00  0.00    +0.000 C 
BRANCH  12  24
ATOM     18  C   UNL     1      -4.979  12.741  20.901  0.00  0.00    +0.000 C 
ATOM     19  C   UNL     1      -3.842  12.605  21.882  0.00  0.00    +0.000 C 
ATOM     20  O   UNL     1      -4.080  12.384  23.070  0.00  0.00    +0.000 OA
ATOM     21  N   UNL     1      -2.553  12.723  21.389  0.00  0.00    +0.000 N 
ATOM     22  C   UNL     1      -1.418  12.430  22.261  0.00  0.00    +0.000 C 
ATOM     23  C   UNL     1      -0.784  11.075  21.879  0.00  0.00    +0.000 C 
ATOM     24  N   UNL     1      -0.439  10.954  20.438  0.00  0.00    +0.000 NA
ATOM     25  C   UNL     1      -1.569  11.374  19.578  0.00  0.00    +0.000 C 
ATOM     26  C   UNL     1      -2.189  12.725  19.977  0.00  0.00    +0.000 C 
ENDBRANCH  12  24
ENDBRANCH   1  15
BRANCH   9  27
ATOM     27  C   UNL     1       4.974   4.736  17.441  0.00  0.00    +0.000 C 
ATOM     28  C   UNL     1       6.205   4.707  18.373  0.00  0.00    +0.000 C 
BRANCH  27  29
ATOM     29  C   UNL     1       5.462   4.356  16.028  0.00  0.00    +0.000 C 
BRANCH  29  30
ATOM     30  C   UNL     1       6.113   5.442  15.197  0.00  0.00    +0.000 C 
ATOM     31  N   UNL     1       7.366   5.203  14.732  0.00  0.00    +0.000 N 
ATOM     32  O   UNL     1       5.590   6.539  15.022  0.00  0.00    +0.000 OA
ATOM     33  H   UNL     1       7.792   4.287  14.730  0.00  0.00    +0.000 HD
ATOM     34  H   UNL     1       7.813   5.940  14.203  0.00  0.00    +0.000 HD
ENDBRANCH  29  30
ENDBRANCH  27  29
ENDBRANCH   9  27
TORSDOF 5
ENDMDL
MODEL 3
REMARK VINA RESULT:      -8.2      2.482      9.963
REMARK  Name = 
REMARK  7 active torsions:
REMARK  status: ('A' for Active; 'I' for Inactive)
REMARK    1  A    between atoms: C_1  and  C_2
REMARK    2  A    between atoms: N_7  and  C_8
REMARK    3  A    between atoms: C_11  and  N_12
REMARK    4  A    between atoms: C_20  and  C_21
REMARK    5  A    between atoms: C_21  and  C_22
REMARK    6  A    between atoms: C_21  and  C_23
REMARK    7  A    between atoms: C_23  and  C_24
REMARK                            x       y       z     vdW  Elec       q    Type
REMARK                         _______ _______ _______ _____ _____    ______ ____
ROOT
ATOM      1  N   UNL     1       2.638   6.337  19.578  0.00  0.00    +0.000 N 
ATOM      2  C   UNL     1       2.264   5.013  19.700  0.00  0.00    +0.000 A 
ATOM      3  N   UNL     1       1.245   4.721  20.449  0.00  0.00    +0.000 NA
ATOM      4  C   UNL     1       0.876   3.430  20.647  0.00  0.00    +0.000 A 
ATOM      5  N   UNL     1       1.428   2.383  20.122  0.00  0.00    +0.000 NA
ATOM      6  N   UNL     1       2.457   2.672  19.317  0.00  0.00    +0.000 N 
ATOM      7  C   UNL     1       3.155   1.744  18.611  0.00  0.00    +0.000 A 
ATOM      8  C   UNL     1       4.099   2.395  17.859  0.00  0.00    +0.000 A 
ATOM      9  C   UNL     1       3.978   3.800  18.115  0.00  0.00    +0.000 A 
ATOM     10  C   UNL     1       2.942   3.930  19.041  0.00  0.00    +0.000 A 
ATOM     11  H   UNL     1       3.540   6.513  20.007  0.00  0.00    +0.000 HD
ENDROOT
BRANCH   1  15
ATOM     12  C   UNL     1       0.793  10.219  20.404  0.00  0.00    +0.000 C 
ATOM     13  C   UNL     1       0.710   9.051  21.415  0.00  0.00    +0.000 C 
ATOM     14  C   UNL     1       1.770   7.980  21.183  0.00  0.00    +0.000 C 
ATOM     15  C   UNL     1       1.713   7.462  19.746  0.00  0.00    +0.000 C 
ATOM     16  C   UNL     1       1.925   8.611  18.755  0.00  0.00    +0.000 C 
ATOM     17  C   UNL     1       0.884   9.712  18.943  0.00  0.00    +0.000 C 
BRANCH  12  24
ATOM     18  C   UNL     1      -1.391  14.499  24.034  0.00  0.00    +0.000 C 
ATOM     19  C   UNL     1      -1.001  14.660  22.586  0.00  0.00    +0.000 C 
ATOM     20  O   UNL     1      -0.341  15.637  22.234  0.00  0.00    +0.000 OA
ATOM     21  N   UNL     1      -1.399  13.670  21.702  0.00  0.00    +0.000 N 
ATOM     22  C   UNL     1      -0.903  13.690  20.328  0.00  0.00    +0.000 C 
ATOM     23  C   UNL     1       0.161  12.588  20.126  0.00  0.00    +0.000 C 
ATOM     24  N   UNL     1      -0.285  11.234  20.550  0.00  0.00    +0.000 NA
ATOM     25  C   UNL     1      -0.895  11.267  21.899  0.00  0.00    +0.000 C 
ATOM     26  C   UNL     1      -1.949  12.374  22.081  0.00  0.00    +0.000 C 
ENDBRANCH  12  24
ENDBRANCH   1  15
BRANCH   9  27
ATOM     27  C   UNL     1       4.858   4.846  17.451  0.00  0.00    +0.000 C 
ATOM     28  C   UNL     1       6.040   5.183  18.386  0.00  0.00    +0.000 C 
BRANCH  27  29
ATOM     29  C   UNL     1       5.457   4.399  16.101  0.00  0.00    +0.000 C 
BRANCH  29  30
ATOM     30  C   UNL     1       6.080   5.464  15.225  0.00  0.00    +0.000 C 
ATOM     31  N   UNL     1       7.345   5.246  14.783  0.00  0.00    +0.000 N 
ATOM     32  O   UNL     1       5.522   6.533  14.991  0.00  0.00    +0.000 OA
ATOM     33  H   UNL     1       7.802   4.346  14.830  0.00  0.00    +0.000 HD
ATOM     34  H   UNL     1       7.772   5.971  14.223  0.00  0.00    +0.000 HD
ENDBRANCH  29  30
ENDBRANCH  27  29
ENDBRANCH   9  27
TORSDOF 5
ENDMDL
MODEL 4
REMARK VINA RESULT:      -8.2      2.266      9.927
REMARK  Name = 
REMARK  7 active torsions:
REMARK  status: ('A' for Active; 'I' for Inactive)
REMARK    1  A    between atoms: C_1  and  C_2
REMARK    2  A    between atoms: N_7  and  C_8
REMARK    3  A    between atoms: C_11  and  N_12
REMARK    4  A    between atoms: C_20  and  C_21
REMARK    5  A    between atoms: C_21  and  C_22
REMARK    6  A    between atoms: C_21  and  C_23
REMARK    7  A    between atoms: C_23  and  C_24
REMARK                            x       y       z     vdW  Elec       q    Type
REMARK                         _______ _______ _______ _____ _____    ______ ____
ROOT
ATOM      1  N   UNL     1       2.849   6.339  18.953  0.00  0.00    +0.000 N 
ATOM      2  C   UNL     1       2.395   5.067  19.242  0.00  0.00    +0.000 A 
ATOM      3  N   UNL     1       1.330   4.938  19.971  0.00  0.00    +0.000 NA
ATOM      4  C   UNL     1       0.879   3.708  20.331  0.00  0.00    +0.000 A 
ATOM      5  N   UNL     1       1.393   2.570  19.989  0.00  0.00    +0.000 NA
ATOM      6  N   UNL     1       2.471   2.689  19.206  0.00  0.00    +0.000 N 
ATOM      7  C   UNL     1       3.145   1.635  18.675  0.00  0.00    +0.000 A 
ATOM      8  C   UNL     1       4.157   2.122  17.888  0.00  0.00    +0.000 A 
ATOM      9  C   UNL     1       4.105   3.553  17.936  0.00  0.00    +0.000 A 
ATOM     10  C   UNL     1       3.039   3.868  18.780  0.00  0.00    +0.000 A 
ATOM     11  H   UNL     1       3.740   6.529  19.398  0.00  0.00    +0.000 HD
ENDROOT
BRANCH   1  15
ATOM     12  C   UNL     1       1.146  10.357  19.279  0.00  0.00    +0.000 C 
ATOM     13  C   UNL     1       0.823   9.255  20.314  0.00  0.00    +0.000 C 
ATOM     14  C   UNL     1       1.836   8.115  20.312  0.00  0.00    +0.000 C 
ATOM     15  C   UNL     1       1.983   7.521  18.912  0.00  0.00    +0.000 C 
ATOM     16  C   UNL     1       2.428   8.599  17.918  0.00  0.00    +0.000 C 
ATOM     17  C   UNL     1       1.443   9.765  17.878  0.00  0.00    +0.000 C 
BRANCH  12  24
ATOM     18  C   UNL     1      -3.673  12.712  22.018  0.00  0.00    +0.000 C 
ATOM     19  C   UNL     1      -2.409  13.442  21.634  0.00  0.00    +0.000 C 
ATOM     20  O   UNL     1      -1.881  14.214  22.434  0.00  0.00    +0.000 OA
ATOM     21  N   UNL     1      -1.881  13.191  20.379  0.00  0.00    +0.000 N 
ATOM     22  C   UNL     1      -0.573  13.737  20.025  0.00  0.00    +0.000 C 
ATOM     23  C   UNL     1       0.492  12.618  20.023  0.00  0.00    +0.000 C 
ATOM     24  N   UNL     1       0.126  11.437  19.195  0.00  0.00    +0.000 NA
ATOM     25  C   UNL     1      -1.251  10.981  19.490  0.00  0.00    +0.000 C 
ATOM     26  C   UNL     1      -2.297  12.112  19.491  0.00  0.00    +0.000 C 
ENDBRANCH  12  24
ENDBRANCH   1  15
BRANCH   9  27
ATOM     27  C   UNL     1       5.071   4.447  17.176  0.00  0.00    +0.000 C 
ATOM     28  C   UNL     1       6.047   5.105  18.177  0.00  0.00    +0.000 C 
BRANCH  27  29
ATOM     29  C   UNL     1       5.925   3.703  16.128  0.00  0.00    +0.000 C 
BRANCH  29  30
ATOM     30  C   UNL     1       6.205   4.414  14.822  0.00  0.00    +0.000 C 
ATOM     31  N   UNL     1       7.266   5.261  14.788  0.00  0.00    +0.000 N 
ATOM     32  O   UNL     1       5.461   4.321  13.849  0.00  0.00    +0.000 OA
ATOM     33  H   UNL     1       7.982   5.281  15.501  0.00  0.00    +0.000 HD
ATOM     34  H   UNL     1       7.435   5.759  13.925  0.00  0.00    +0.000 HD
ENDBRANCH  29  30
ENDBRANCH  27  29
ENDBRANCH   9  27
TORSDOF 5
ENDMDL
MODEL 5
REMARK VINA RESULT:      -8.2      0.700      1.150
REMARK  Name = 
REMARK  7 active torsions:
REMARK  status: ('A' for Active; 'I' for Inactive)
REMARK    1  A    between atoms: C_1  and  C_2
REMARK    2  A    between atoms: N_7  and  C_8
REMARK    3  A    between atoms: C_11  and  N_12
REMARK    4  A    between atoms: C_20  and  C_21
REMARK    5  A    between atoms: C_21  and  C_22
REMARK    6  A    between atoms: C_21  and  C_23
REMARK    7  A    between atoms: C_23  and  C_24
REMARK                            x       y       z     vdW  Elec       q    Type
REMARK                         _______ _______ _______ _____ _____    ______ ____
ROOT
ATOM      1  N   UNL     1       0.565  10.612  19.328  0.00  0.00    +0.000 N 
ATOM      2  C   UNL     1      -0.675  10.652  18.721  0.00  0.00    +0.000 A 
ATOM      3  N   UNL     1      -0.857   9.969  17.633  0.00  0.00    +0.000 NA
ATOM      4  C   UNL     1      -2.040  10.024  16.969  0.00  0.00    +0.000 A 
ATOM      5  N   UNL     1      -3.092  10.691  17.324  0.00  0.00    +0.000 NA
ATOM      6  N   UNL     1      -2.930  11.370  18.465  0.00  0.00    +0.000 N 
ATOM      7  C   UNL     1      -3.910  12.095  19.065  0.00  0.00    +0.000 A 
ATOM      8  C   UNL     1      -3.412  12.611  20.233  0.00  0.00    +0.000 A 
ATOM      9  C   UNL     1      -2.051  12.182  20.362  0.00  0.00    +0.000 A 
ATOM     10  C   UNL     1      -1.785  11.413  19.228  0.00  0.00    +0.000 A 
ATOM     11  H   UNL     1       1.034  11.510  19.282  0.00  0.00    +0.000 HD
ENDROOT
BRANCH   1  15
ATOM     12  C   UNL     1       2.436   6.717  18.637  0.00  0.00    +0.000 C 
ATOM     13  C   UNL     1       2.075   7.200  20.061  0.00  0.00    +0.000 C 
ATOM     14  C   UNL     1       1.041   8.320  20.070  0.00  0.00    +0.000 C 
ATOM     15  C   UNL     1       1.498   9.489  19.197  0.00  0.00    +0.000 C 
ATOM     16  C   UNL     1       1.730   9.022  17.756  0.00  0.00    +0.000 C 
ATOM     17  C   UNL     1       2.763   7.900  17.691  0.00  0.00    +0.000 C 
BRANCH  12  24
ATOM     18  C   UNL     1       6.183   3.757  14.967  0.00  0.00    +0.000 C 
ATOM     19  C   UNL     1       6.564   4.557  16.188  0.00  0.00    +0.000 C 
ATOM     20  O   UNL     1       7.520   5.333  16.138  0.00  0.00    +0.000 OA
ATOM     21  N   UNL     1       5.795   4.391  17.327  0.00  0.00    +0.000 N 
ATOM     22  C   UNL     1       6.014   5.266  18.478  0.00  0.00    +0.000 C 
ATOM     23  C   UNL     1       4.868   6.294  18.596  0.00  0.00    +0.000 C 
ATOM     24  N   UNL     1       3.510   5.687  18.593  0.00  0.00    +0.000 NA
ATOM     25  C   UNL     1       3.358   4.714  17.487  0.00  0.00    +0.000 C 
ATOM     26  C   UNL     1       4.513   3.700  17.385  0.00  0.00    +0.000 C 
ENDBRANCH  12  24
ENDBRANCH   1  15
BRANCH   9  27
ATOM     27  C   UNL     1      -1.169  12.552  21.543  0.00  0.00    +0.000 C 
ATOM     28  C   UNL     1      -1.554  13.963  22.041  0.00  0.00    +0.000 C 
BRANCH  27  29
ATOM     29  C   UNL     1      -1.293  11.594  22.745  0.00  0.00    +0.000 C 
BRANCH  29  30
ATOM     30  C   UNL     1      -0.353  10.409  22.796  0.00  0.00    +0.000 C 
ATOM     31  N   UNL     1      -0.826   9.261  23.346  0.00  0.00    +0.000 N 
ATOM     32  O   UNL     1       0.823  10.486  22.451  0.00  0.00    +0.000 OA
ATOM     33  H   UNL     1      -1.807   9.095  23.525  0.00  0.00    +0.000 HD
ATOM     34  H   UNL     1      -0.189   8.479  23.407  0.00  0.00    +0.000 HD
ENDBRANCH  29  30
ENDBRANCH  27  29
ENDBRANCH   9  27
TORSDOF 5
ENDMDL
MODEL 6
REMARK VINA RESULT:      -8.2      2.469      3.825
REMARK  Name = 
REMARK  7 active torsions:
REMARK  status: ('A' for Active; 'I' for Inactive)
REMARK    1  A    between atoms: C_1  and  C_2
REMARK    2  A    between atoms: N_7  and  C_8
REMARK    3  A    between atoms: C_11  and  N_12
REMARK    4  A    between atoms: C_20  and  C_21
REMARK    5  A    between atoms: C_21  and  C_22
REMARK    6  A    between atoms: C_21  and  C_23
REMARK    7  A    between atoms: C_23  and  C_24
REMARK                            x       y       z     vdW  Elec       q    Type
REMARK                         _______ _______ _______ _____ _____    ______ ____
ROOT
ATOM      1  N   UNL     1       0.182  10.943  20.716  0.00  0.00    +0.000 N 
ATOM      2  C   UNL     1       0.498  12.284  20.807  0.00  0.00    +0.000 A 
ATOM      3  N   UNL     1       1.748  12.623  20.898  0.00  0.00    +0.000 NA
ATOM      4  C   UNL     1       2.105  13.924  21.049  0.00  0.00    +0.000 A 
ATOM      5  N   UNL     1       1.307  14.942  21.084  0.00  0.00    +0.000 NA
ATOM      6  N   UNL     1       0.017  14.610  20.953  0.00  0.00    +0.000 N 
ATOM      7  C   UNL     1      -0.999  15.511  20.903  0.00  0.00    +0.000 A 
ATOM      8  C   UNL     1      -2.173  14.827  20.715  0.00  0.00    +0.000 A 
ATOM      9  C   UNL     1      -1.865  13.429  20.646  0.00  0.00    +0.000 A 
ATOM     10  C   UNL     1      -0.482  13.335  20.808  0.00  0.00    +0.000 A 
ATOM     11  H   UNL     1      -0.309  10.617  21.541  0.00  0.00    +0.000 HD
ENDROOT
BRANCH   1  15
ATOM     12  C   UNL     1       1.942   7.394  18.856  0.00  0.00    +0.000 C 
ATOM     13  C   UNL     1       1.862   7.547  20.393  0.00  0.00    +0.000 C 
ATOM     14  C   UNL     1       0.832   8.579  20.840  0.00  0.00    +0.000 C 
ATOM     15  C   UNL     1       1.088   9.928  20.171  0.00  0.00    +0.000 C 
ATOM     16  C   UNL     1       1.038   9.787  18.646  0.00  0.00    +0.000 C 
ATOM     17  C   UNL     1       2.056   8.765  18.144  0.00  0.00    +0.000 C 
BRANCH  12  24
ATOM     18  C   UNL     1       7.892   6.726  18.215  0.00  0.00    +0.000 C 
ATOM     19  C   UNL     1       6.956   5.797  18.947  0.00  0.00    +0.000 C 
ATOM     20  O   UNL     1       7.272   5.356  20.053  0.00  0.00    +0.000 OA
ATOM     21  N   UNL     1       5.751   5.491  18.337  0.00  0.00    +0.000 N 
ATOM     22  C   UNL     1       4.740   4.739  19.077  0.00  0.00    +0.000 C 
ATOM     23  C   UNL     1       3.585   5.670  19.504  0.00  0.00    +0.000 C 
ATOM     24  N   UNL     1       3.001   6.461  18.387  0.00  0.00    +0.000 NA
ATOM     25  C   UNL     1       4.058   7.114  17.582  0.00  0.00    +0.000 C 
ATOM     26  C   UNL     1       5.202   6.169  17.169  0.00  0.00    +0.000 C 
ENDBRANCH  12  24
ENDBRANCH   1  15
BRANCH   9  27
ATOM     27  C   UNL     1      -2.918  12.354  20.434  0.00  0.00    +0.000 C 
ATOM     28  C   UNL     1      -4.198  12.739  21.207  0.00  0.00    +0.000 C 
BRANCH  27  29
ATOM     29  C   UNL     1      -3.319  12.149  18.959  0.00  0.00    +0.000 C 
BRANCH  29  30
ATOM     30  C   UNL     1      -2.326  11.453  18.053  0.00  0.00    +0.000 C 
ATOM     31  N   UNL     1      -1.569  12.234  17.241  0.00  0.00    +0.000 N 
ATOM     32  O   UNL     1      -2.259  10.230  17.967  0.00  0.00    +0.000 OA
ATOM     33  H   UNL     1      -1.484  13.235  17.355  0.00  0.00    +0.000 HD
ATOM     34  H   UNL     1      -0.927  11.767  16.614  0.00  0.00    +0.000 HD
ENDBRANCH  29  30
ENDBRANCH  27  29
ENDBRANCH   9  27
TORSDOF 5
ENDMDL
MODEL 7
REMARK VINA RESULT:      -8.2      2.219      9.657
REMARK  Name = 
REMARK  7 active torsions:
REMARK  status: ('A' for Active; 'I' for Inactive)
REMARK    1  A    between atoms: C_1  and  C_2
REMARK    2  A    between atoms: N_7  and  C_8
REMARK    3  A    between atoms: C_11  and  N_12
REMARK    4  A    between atoms: C_20  and  C_21
REMARK    5  A    between atoms: C_21  and  C_22
REMARK    6  A    between atoms: C_21  and  C_23
REMARK    7  A    between atoms: C_23  and  C_24
REMARK                            x       y       z     vdW  Elec       q    Type
REMARK                         _______ _______ _______ _____ _____    ______ ____
ROOT
ATOM      1  N   UNL     1       3.088   6.576  19.694  0.00  0.00    +0.000 N 
ATOM      2  C   UNL     1       2.494   5.332  19.607  0.00  0.00    +0.000 A 
ATOM      3  N   UNL     1       1.392   5.122  20.258  0.00  0.00    +0.000 NA
ATOM      4  C   UNL     1       0.803   3.898  20.251  0.00  0.00    +0.000 A 
ATOM      5  N   UNL     1       1.211   2.852  19.607  0.00  0.00    +0.000 NA
ATOM      6  N   UNL     1       2.326   3.066  18.900  0.00  0.00    +0.000 N 
ATOM      7  C   UNL     1       2.910   2.135  18.100  0.00  0.00    +0.000 A 
ATOM      8  C   UNL     1       3.997   2.708  17.493  0.00  0.00    +0.000 A 
ATOM      9  C   UNL     1       4.091   4.066  17.943  0.00  0.00    +0.000 A 
ATOM     10  C   UNL     1       3.029   4.247  18.830  0.00  0.00    +0.000 A 
ATOM     11  H   UNL     1       3.975   6.534  20.184  0.00  0.00    +0.000 HD
ENDROOT
BRANCH   1  15
ATOM     12  C   UNL     1       0.059   9.712  20.066  0.00  0.00    +0.000 C 
ATOM     13  C   UNL     1       1.123   9.744  18.944  0.00  0.00    +0.000 C 
ATOM     14  C   UNL     1       1.766   8.385  18.690  0.00  0.00    +0.000 C 
ATOM     15  C   UNL     1       2.351   7.810  19.980  0.00  0.00    +0.000 C 
ATOM     16  C   UNL     1       1.257   7.664  21.044  0.00  0.00    +0.000 C 
ATOM     17  C   UNL     1       0.582   9.001  21.339  0.00  0.00    +0.000 C 
BRANCH  12  24
ATOM     18  C   UNL     1      -5.109  12.680  20.933  0.00  0.00    +0.000 C 
ATOM     19  C   UNL     1      -3.948  12.594  21.893  0.00  0.00    +0.000 C 
ATOM     20  O   UNL     1      -4.156  12.378  23.087  0.00  0.00    +0.000 OA
ATOM     21  N   UNL     1      -2.675  12.750  21.373  0.00  0.00    +0.000 N 
ATOM     22  C   UNL     1      -1.513  12.505  22.225  0.00  0.00    +0.000 C 
ATOM     23  C   UNL     1      -0.842  11.167  21.845  0.00  0.00    +0.000 C 
ATOM     24  N   UNL     1      -0.521  11.042  20.398  0.00  0.00    +0.000 NA
ATOM     25  C   UNL     1      -1.681  11.414  19.556  0.00  0.00    +0.000 C 
ATOM     26  C   UNL     1      -2.339  12.749  19.954  0.00  0.00    +0.000 C 
ENDBRANCH  12  24
ENDBRANCH   1  15
BRANCH   9  27
ATOM     27  C   UNL     1       5.174   5.024  17.477  0.00  0.00    +0.000 C 
ATOM     28  C   UNL     1       4.516   6.223  16.759  0.00  0.00    +0.000 C 
BRANCH  27  29
ATOM     29  C   UNL     1       6.042   5.595  18.618  0.00  0.00    +0.000 C 
BRANCH  29  30
ATOM     30  C   UNL     1       7.460   5.083  18.742  0.00  0.00    +0.000 C 
ATOM     31  N   UNL     1       8.161   5.449  19.846  0.00  0.00    +0.000 N 
ATOM     32  O   UNL     1       8.010   4.445  17.849  0.00  0.00    +0.000 OA
ATOM     33  H   UNL     1       7.732   5.856  20.666  0.00  0.00    +0.000 HD
ATOM     34  H   UNL     1       9.118   5.132  19.915  0.00  0.00    +0.000 HD
ENDBRANCH  29  30
ENDBRANCH  27  29
ENDBRANCH   9  27
TORSDOF 5
ENDMDL
MODEL 8
REMARK VINA RESULT:      -8.2      3.324      9.272
REMARK  Name = 
REMARK  7 active torsions:
REMARK  status: ('A' for Active; 'I' for Inactive)
REMARK    1  A    between atoms: C_1  and  C_2
REMARK    2  A    between atoms: N_7  and  C_8
REMARK    3  A    between atoms: C_11  and  N_12
REMARK    4  A    between atoms: C_20  and  C_21
REMARK    5  A    between atoms: C_21  and  C_22
REMARK    6  A    between atoms: C_21  and  C_23
REMARK    7  A    between atoms: C_23  and  C_24
REMARK                            x       y       z     vdW  Elec       q    Type
REMARK                         _______ _______ _______ _____ _____    ______ ____
ROOT
ATOM      1  N   UNL     1       1.839   7.085  18.674  0.00  0.00    +0.000 N 
ATOM      2  C   UNL     1       2.954   6.564  18.048  0.00  0.00    +0.000 A 
ATOM      3  N   UNL     1       3.868   7.381  17.625  0.00  0.00    +0.000 NA
ATOM      4  C   UNL     1       4.954   6.921  16.951  0.00  0.00    +0.000 A 
ATOM      5  N   UNL     1       5.227   5.683  16.687  0.00  0.00    +0.000 NA
ATOM      6  N   UNL     1       4.310   4.827  17.151  0.00  0.00    +0.000 N 
ATOM      7  C   UNL     1       4.409   3.475  17.045  0.00  0.00    +0.000 A 
ATOM      8  C   UNL     1       3.327   2.913  17.670  0.00  0.00    +0.000 A 
ATOM      9  C   UNL     1       2.514   3.973  18.189  0.00  0.00    +0.000 A 
ATOM     10  C   UNL     1       3.162   5.158  17.834  0.00  0.00    +0.000 A 
ATOM     11  H   UNL     1       0.999   6.946  18.123  0.00  0.00    +0.000 HD
ENDROOT
BRANCH   1  15
ATOM     12  C   UNL     1       0.722  10.810  20.682  0.00  0.00    +0.000 C 
ATOM     13  C   UNL     1       1.207  10.796  19.213  0.00  0.00    +0.000 C 
ATOM     14  C   UNL     1       1.098   9.423  18.559  0.00  0.00    +0.000 C 
ATOM     15  C   UNL     1       1.831   8.367  19.385  0.00  0.00    +0.000 C 
ATOM     16  C   UNL     1       1.254   8.302  20.804  0.00  0.00    +0.000 C 
ATOM     17  C   UNL     1       1.343   9.655  21.506  0.00  0.00    +0.000 C 
BRANCH  12  24
ATOM     18  C   UNL     1       0.895  16.771  19.844  0.00  0.00    +0.000 C 
ATOM     19  C   UNL     1       0.007  16.023  20.807  0.00  0.00    +0.000 C 
ATOM     20  O   UNL     1      -1.185  16.316  20.895  0.00  0.00    +0.000 OA
ATOM     21  N   UNL     1       0.584  15.009  21.553  0.00  0.00    +0.000 N 
ATOM     22  C   UNL     1      -0.264  14.143  22.369  0.00  0.00    +0.000 C 
ATOM     23  C   UNL     1      -0.399  12.752  21.714  0.00  0.00    +0.000 C 
ATOM     24  N   UNL     1       0.901  12.115  21.374  0.00  0.00    +0.000 NA
ATOM     25  C   UNL     1       1.787  13.057  20.652  0.00  0.00    +0.000 C 
ATOM     26  C   UNL     1       1.906  14.439  21.319  0.00  0.00    +0.000 C 
ENDBRANCH  12  24
ENDBRANCH   1  15
BRANCH   9  27
ATOM     27  C   UNL     1       1.225   3.736  18.957  0.00  0.00    +0.000 C 
ATOM     28  C   UNL     1       0.833   2.246  18.843  0.00  0.00    +0.000 C 
BRANCH  27  29
ATOM     29  C   UNL     1       1.318   4.069  20.461  0.00  0.00    +0.000 C 
BRANCH  29  30
ATOM     30  C   UNL     1       1.903   3.015  21.376  0.00  0.00    +0.000 C 
ATOM     31  N   UNL     1       3.201   2.669  21.178  0.00  0.00    +0.000 N 
ATOM     32  O   UNL     1       1.225   2.413  22.204  0.00  0.00    +0.000 OA
ATOM     33  H   UNL     1       3.839   3.209  20.611  0.00  0.00    +0.000 HD
ATOM     34  H   UNL     1       3.582   1.943  21.769  0.00  0.00    +0.000 HD
ENDBRANCH  29  30
ENDBRANCH  27  29
ENDBRANCH   9  27
TORSDOF 5
ENDMDL
MODEL 9
REMARK VINA RESULT:      -8.2      2.335      9.656
REMARK  Name = 
REMARK  7 active torsions:
REMARK  status: ('A' for Active; 'I' for Inactive)
REMARK    1  A    between atoms: C_1  and  C_2
REMARK    2  A    between atoms: N_7  and  C_8
REMARK    3  A    between atoms: C_11  and  N_12
REMARK    4  A    between atoms: C_20  and  C_21
REMARK    5  A    between atoms: C_21  and  C_22
REMARK    6  A    between atoms: C_21  and  C_23
REMARK    7  A    between atoms: C_23  and  C_24
REMARK                            x       y       z     vdW  Elec       q    Type
REMARK                         _______ _______ _______ _____ _____    ______ ____
ROOT
ATOM      1  N   UNL     1       2.860   6.272  19.148  0.00  0.00    +0.000 N 
ATOM      2  C   UNL     1       2.390   4.990  19.354  0.00  0.00    +0.000 A 
ATOM      3  N   UNL     1       1.255   4.834  19.962  0.00  0.00    +0.000 NA
ATOM      4  C   UNL     1       0.780   3.592  20.240  0.00  0.00    +0.000 A 
ATOM      5  N   UNL     1       1.337   2.467  19.923  0.00  0.00    +0.000 NA
ATOM      6  N   UNL     1       2.490   2.614  19.261  0.00  0.00    +0.000 N 
ATOM      7  C   UNL     1       3.226   1.579  18.777  0.00  0.00    +0.000 A 
ATOM      8  C   UNL     1       4.310   2.094  18.114  0.00  0.00    +0.000 A 
ATOM      9  C   UNL     1       4.241   3.523  18.194  0.00  0.00    +0.000 A 
ATOM     10  C   UNL     1       3.089   3.808  18.929  0.00  0.00    +0.000 A 
ATOM     11  H   UNL     1       3.697   6.455  19.690  0.00  0.00    +0.000 HD
ENDROOT
BRANCH   1  15
ATOM     12  C   UNL     1       1.150  10.298  19.281  0.00  0.00    +0.000 C 
ATOM     13  C   UNL     1       0.821   9.243  20.363  0.00  0.00    +0.000 C 
ATOM     14  C   UNL     1       1.836   8.106  20.419  0.00  0.00    +0.000 C 
ATOM     15  C   UNL     1       1.993   7.449  19.048  0.00  0.00    +0.000 C 
ATOM     16  C   UNL     1       2.443   8.482  18.009  0.00  0.00    +0.000 C 
ATOM     17  C   UNL     1       1.456   9.643  17.910  0.00  0.00    +0.000 C 
BRANCH  12  24
ATOM     18  C   UNL     1      -3.749  12.704  21.826  0.00  0.00    +0.000 C 
ATOM     19  C   UNL     1      -2.478  13.428  21.458  0.00  0.00    +0.000 C 
ATOM     20  O   UNL     1      -1.974  14.223  22.252  0.00  0.00    +0.000 OA
ATOM     21  N   UNL     1      -1.916  13.147  20.224  0.00  0.00    +0.000 N 
ATOM     22  C   UNL     1      -0.600  13.689  19.892  0.00  0.00    +0.000 C 
ATOM     23  C   UNL     1       0.468  12.574  19.948  0.00  0.00    +0.000 C 
ATOM     24  N   UNL     1       0.129  11.372  19.142  0.00  0.00    +0.000 NA
ATOM     25  C   UNL     1      -1.255  10.918  19.410  0.00  0.00    +0.000 C 
ATOM     26  C   UNL     1      -2.304  12.044  19.354  0.00  0.00    +0.000 C 
ENDBRANCH  12  24
ENDBRANCH   1  15
BRANCH   9  27
ATOM     27  C   UNL     1       5.274   4.444  17.565  0.00  0.00    +0.000 C 
ATOM     28  C   UNL     1       4.570   5.384  16.562  0.00  0.00    +0.000 C 
BRANCH  27  29
ATOM     29  C   UNL     1       6.022   5.334  18.578  0.00  0.00    +0.000 C 
BRANCH  29  30
ATOM     30  C   UNL     1       7.533   5.253  18.600  0.00  0.00    +0.000 C 
ATOM     31  N   UNL     1       8.199   6.217  19.286  0.00  0.00    +0.000 N 
ATOM     32  O   UNL     1       8.156   4.418  17.949  0.00  0.00    +0.000 OA
ATOM     33  H   UNL     1       7.750   6.844  19.939  0.00  0.00    +0.000 HD
ATOM     34  H   UNL     1       9.210   6.180  19.274  0.00  0.00    +0.000 HD
ENDBRANCH  29  30
ENDBRANCH  27  29
ENDBRANCH   9  27
TORSDOF 5
ENDMDL
