MODEL 1
REMARK VINA RESULT:      -5.7      0.000      0.000
REMARK  Name = 
REMARK  20 active torsions:
REMARK  status: ('A' for Active; 'I' for Inactive)
REMARK    1  A    between atoms: C_1  and  C_2
REMARK    2  A    between atoms: C_2  and  C_3
REMARK    3  A    between atoms: C_5  and  C_6
REMARK    4  A    between atoms: C_6  and  C_7
REMARK    5  A    between atoms: C_7  and  C_8
REMARK    6  A    between atoms: C_8  and  C_9
REMARK    7  A    between atoms: C_9  and  C_10
REMARK    8  A    between atoms: C_10  and  C_11
REMARK    9  A    between atoms: C_11  and  C_12
REMARK   10  A    between atoms: C_12  and  C_13
REMARK   11  A    between atoms: C_13  and  C_14
REMARK   12  A    between atoms: C_14  and  C_15
REMARK   13  A    between atoms: C_15  and  C_16
REMARK   14  A    between atoms: C_16  and  C_17
REMARK   15  A    between atoms: C_17  and  C_18
REMARK   16  A    between atoms: C_18  and  C_19
REMARK   17  A    between atoms: C_19  and  C_20
REMARK   18  A    between atoms: C_20  and  C_21
REMARK   19  A    between atoms: C_21  and  C_22
REMARK   20  A    between atoms: C_22  and  O_24
REMARK                            x       y       z     vdW  Elec       q    Type
REMARK                         _______ _______ _______ _____ _____    ______ ____
ROOT
ATOM      1  C   UNL     1       7.296   7.727  17.883  0.00  0.00    +0.000 C 
ENDROOT
BRANCH   1   2
ATOM      2  C   UNL     1       7.759   6.298  18.113  0.00  0.00    +0.000 C 
BRANCH   2   3
ATOM      3  C   UNL     1       6.945   5.657  19.227  0.00  0.00    +0.000 C 
BRANCH   3   4
ATOM      4  C   UNL     1       5.947   4.661  18.657  0.00  0.00    +0.000 C 
BRANCH   4   5
ATOM      5  C   UNL     1       4.579   5.317  18.490  0.00  0.00    +0.000 C 
BRANCH   5   6
ATOM      6  C   UNL     1       3.978   4.962  17.136  0.00  0.00    +0.000 C 
BRANCH   6   7
ATOM      7  C   UNL     1       3.075   3.723  17.198  0.00  0.00    +0.000 C 
BRANCH   7   8
ATOM      8  C   UNL     1       1.744   4.093  17.872  0.00  0.00    +0.000 C 
BRANCH   8  11
ATOM      9  C   UNL     1       1.708   2.398  19.994  0.00  0.00    +0.000 C 
ATOM     10  O   UNL     1       0.655   3.383  19.990  0.00  0.00    +0.000 OA
ATOM     11  C   UNL     1       1.147   3.011  18.706  0.00  0.00    +0.000 C 
BRANCH   9  13
ATOM     12  C   UNL     1       4.139   2.152  20.469  0.00  0.00    +0.000 C 
ATOM     13  C   UNL     1       2.831   2.804  20.901  0.00  0.00    +0.000 C 
ENDBRANCH   9  13
ENDBRANCH   8  11
ENDBRANCH   7   8
ENDBRANCH   6   7
ENDBRANCH   5   6
ENDBRANCH   4   5
ENDBRANCH   3   4
ENDBRANCH   2   3
ENDBRANCH   1   2
BRANCH   1  14
ATOM     14  C   UNL     1       8.399   8.703  18.256  0.00  0.00    +0.000 C 
BRANCH  14  15
ATOM     15  C   UNL     1       8.142  10.056  17.613  0.00  0.00    +0.000 C 
BRANCH  15  16
ATOM     16  C   UNL     1       8.995  11.128  18.274  0.00  0.00    +0.000 C 
BRANCH  16  17
ATOM     17  C   UNL     1       9.727  10.548  19.477  0.00  0.00    +0.000 C 
BRANCH  17  18
ATOM     18  C   UNL     1      10.591  11.611  20.139  0.00  0.00    +0.000 C 
BRANCH  18  19
ATOM     19  C   UNL     1      11.992  11.621  19.534  0.00  0.00    +0.000 C 
BRANCH  19  20
ATOM     20  C   UNL     1      12.286  12.987  18.923  0.00  0.00    +0.000 C 
BRANCH  20  21
ATOM     21  C   UNL     1      11.869  13.061  17.460  0.00  0.00    +0.000 C 
BRANCH  21  22
ATOM     22  C   UNL     1      10.896  14.210  17.254  0.00  0.00    +0.000 C 
ATOM     23  O   UNL     1       9.989  14.505  17.995  0.00  0.00    +0.000 OA
BRANCH  22  24
ATOM     24  O   UNL     1      11.149  14.897  16.114  0.00  0.00    +0.000 OA
ATOM     25  H   UNL     1      10.850  14.436  15.303  0.00  0.00    +0.000 HD
ENDBRANCH  22  24
ENDBRANCH  21  22
ENDBRANCH  20  21
ENDBRANCH  19  20
ENDBRANCH  18  19
ENDBRANCH  17  18
ENDBRANCH  16  17
ENDBRANCH  15  16
ENDBRANCH  14  15
ENDBRANCH   1  14
TORSDOF 19
ENDMDL
MODEL 2
REMARK VINA RESULT:      -5.7      5.495      8.394
REMARK  Name = 
REMARK  20 active torsions:
REMARK  status: ('A' for Active; 'I' for Inactive)
REMARK    1  A    between atoms: C_1  and  C_2
REMARK    2  A    between atoms: C_2  and  C_3
REMARK    3  A    between atoms: C_5  and  C_6
REMARK    4  A    between atoms: C_6  and  C_7
REMARK    5  A    between atoms: C_7  and  C_8
REMARK    6  A    between atoms: C_8  and  C_9
REMARK    7  A    between atoms: C_9  and  C_10
REMARK    8  A    between atoms: C_10  and  C_11
REMARK    9  A    between atoms: C_11  and  C_12
REMARK   10  A    between atoms: C_12  and  C_13
REMARK   11  A    between atoms: C_13  and  C_14
REMARK   12  A    between atoms: C_14  and  C_15
REMARK   13  A    between atoms: C_15  and  C_16
REMARK   14  A    between atoms: C_16  and  C_17
REMARK   15  A    between atoms: C_17  and  C_18
REMARK   16  A    between atoms: C_18  and  C_19
REMARK   17  A    between atoms: C_19  and  C_20
REMARK   18  A    between atoms: C_20  and  C_21
REMARK   19  A    between atoms: C_21  and  C_22
REMARK   20  A    between atoms: C_22  and  O_24
REMARK                            x       y       z     vdW  Elec       q    Type
REMARK                         _______ _______ _______ _____ _____    ______ ____
ROOT
ATOM      1  C   UNL     1       1.616   2.671  20.328  0.00  0.00    +0.000 C 
ENDROOT
BRANCH   1   2
ATOM      2  C   UNL     1       3.002   2.835  20.930  0.00  0.00    +0.000 C 
BRANCH   2   3
ATOM      3  C   UNL     1       4.054   2.285  19.979  0.00  0.00    +0.000 C 
BRANCH   3   4
ATOM      4  C   UNL     1       3.493   2.166  18.570  0.00  0.00    +0.000 C 
BRANCH   4   5
ATOM      5  C   UNL     1       4.123   3.214  17.658  0.00  0.00    +0.000 C 
BRANCH   5   6
ATOM      6  C   UNL     1       3.085   4.243  17.230  0.00  0.00    +0.000 C 
BRANCH   6   7
ATOM      7  C   UNL     1       3.514   5.682  17.548  0.00  0.00    +0.000 C 
BRANCH   7   8
ATOM      8  C   UNL     1       4.875   5.664  18.263  0.00  0.00    +0.000 C 
BRANCH   8  11
ATOM      9  C   UNL     1       6.941   5.795  16.505  0.00  0.00    +0.000 C 
ATOM     10  O   UNL     1       5.786   6.578  16.141  0.00  0.00    +0.000 OA
ATOM     11  C   UNL     1       5.967   6.373  17.538  0.00  0.00    +0.000 C 
BRANCH   9  13
ATOM     12  C   UNL     1       6.045   4.535  14.555  0.00  0.00    +0.000 C 
ATOM     13  C   UNL     1       6.971   4.492  15.763  0.00  0.00    +0.000 C 
ENDBRANCH   9  13
ENDBRANCH   8  11
ENDBRANCH   7   8
ENDBRANCH   6   7
ENDBRANCH   5   6
ENDBRANCH   4   5
ENDBRANCH   3   4
ENDBRANCH   2   3
ENDBRANCH   1   2
BRANCH   1  14
ATOM     14  C   UNL     1       0.907   4.014  20.269  0.00  0.00    +0.000 C 
BRANCH  14  15
ATOM     15  C   UNL     1       1.837   5.120  20.739  0.00  0.00    +0.000 C 
BRANCH  15  16
ATOM     16  C   UNL     1       1.172   6.477  20.574  0.00  0.00    +0.000 C 
BRANCH  16  17
ATOM     17  C   UNL     1       2.197   7.513  20.131  0.00  0.00    +0.000 C 
BRANCH  17  18
ATOM     18  C   UNL     1       1.535   8.591  19.285  0.00  0.00    +0.000 C 
BRANCH  18  19
ATOM     19  C   UNL     1       0.766   9.572  20.164  0.00  0.00    +0.000 C 
BRANCH  19  20
ATOM     20  C   UNL     1       0.526  10.873  19.407  0.00  0.00    +0.000 C 
BRANCH  20  21
ATOM     21  C   UNL     1      -0.951  11.238  19.349  0.00  0.00    +0.000 C 
BRANCH  21  22
ATOM     22  C   UNL     1      -1.182  12.307  18.294  0.00  0.00    +0.000 C 
ATOM     23  O   UNL     1      -0.471  13.262  18.094  0.00  0.00    +0.000 OA
BRANCH  22  24
ATOM     24  O   UNL     1      -2.307  12.081  17.574  0.00  0.00    +0.000 OA
ATOM     25  H   UNL     1      -2.309  12.521  16.699  0.00  0.00    +0.000 HD
ENDBRANCH  22  24
ENDBRANCH  21  22
ENDBRANCH  20  21
ENDBRANCH  19  20
ENDBRANCH  18  19
ENDBRANCH  17  18
ENDBRANCH  16  17
ENDBRANCH  15  16
ENDBRANCH  14  15
ENDBRANCH   1  14
TORSDOF 19
ENDMDL
MODEL 3
REMARK VINA RESULT:      -5.6      6.918     10.369
REMARK  Name = 
REMARK  20 active torsions:
REMARK  status: ('A' for Active; 'I' for Inactive)
REMARK    1  A    between atoms: C_1  and  C_2
REMARK    2  A    between atoms: C_2  and  C_3
REMARK    3  A    between atoms: C_5  and  C_6
REMARK    4  A    between atoms: C_6  and  C_7
REMARK    5  A    between atoms: C_7  and  C_8
REMARK    6  A    between atoms: C_8  and  C_9
REMARK    7  A    between atoms: C_9  and  C_10
REMARK    8  A    between atoms: C_10  and  C_11
REMARK    9  A    between atoms: C_11  and  C_12
REMARK   10  A    between atoms: C_12  and  C_13
REMARK   11  A    between atoms: C_13  and  C_14
REMARK   12  A    between atoms: C_14  and  C_15
REMARK   13  A    between atoms: C_15  and  C_16
REMARK   14  A    between atoms: C_16  and  C_17
REMARK   15  A    between atoms: C_17  and  C_18
REMARK   16  A    between atoms: C_18  and  C_19
REMARK   17  A    between atoms: C_19  and  C_20
REMARK   18  A    between atoms: C_20  and  C_21
REMARK   19  A    between atoms: C_21  and  C_22
REMARK   20  A    between atoms: C_22  and  O_24
REMARK                            x       y       z     vdW  Elec       q    Type
REMARK                         _______ _______ _______ _____ _____    ______ ____
ROOT
ATOM      1  C   UNL     1       2.170   8.666  17.558  0.00  0.00    +0.000 C 
ENDROOT
BRANCH   1   2
ATOM      2  C   UNL     1       1.562  10.005  17.945  0.00  0.00    +0.000 C 
BRANCH   2   3
ATOM      3  C   UNL     1       0.052   9.875  18.076  0.00  0.00    +0.000 C 
BRANCH   3   4
ATOM      4  C   UNL     1      -0.460  10.718  19.234  0.00  0.00    +0.000 C 
BRANCH   4   5
ATOM      5  C   UNL     1      -1.652  11.560  18.789  0.00  0.00    +0.000 C 
BRANCH   5   6
ATOM      6  C   UNL     1      -1.692  12.875  19.557  0.00  0.00    +0.000 C 
BRANCH   6   7
ATOM      7  C   UNL     1      -1.089  12.757  20.962  0.00  0.00    +0.000 C 
BRANCH   7   8
ATOM      8  C   UNL     1      -2.047  11.963  21.866  0.00  0.00    +0.000 C 
BRANCH   8  11
ATOM      9  C   UNL     1      -0.794   9.980  23.236  0.00  0.00    +0.000 C 
ATOM     10  O   UNL     1      -0.003  11.168  23.034  0.00  0.00    +0.000 OA
ATOM     11  C   UNL     1      -1.411  11.374  23.079  0.00  0.00    +0.000 C 
BRANCH   9  13
ATOM     12  C   UNL     1       1.064   8.876  22.001  0.00  0.00    +0.000 C 
ATOM     13  C   UNL     1      -0.440   8.914  22.242  0.00  0.00    +0.000 C 
ENDBRANCH   9  13
ENDBRANCH   8  11
ENDBRANCH   7   8
ENDBRANCH   6   7
ENDBRANCH   5   6
ENDBRANCH   4   5
ENDBRANCH   3   4
ENDBRANCH   2   3
ENDBRANCH   1   2
BRANCH   1  14
ATOM     14  C   UNL     1       2.389   7.811  18.796  0.00  0.00    +0.000 C 
BRANCH  14  15
ATOM     15  C   UNL     1       2.727   6.385  18.395  0.00  0.00    +0.000 C 
BRANCH  15  16
ATOM     16  C   UNL     1       3.295   5.621  19.581  0.00  0.00    +0.000 C 
BRANCH  16  17
ATOM     17  C   UNL     1       2.200   5.350  20.604  0.00  0.00    +0.000 C 
BRANCH  17  18
ATOM     18  C   UNL     1       2.315   3.933  21.146  0.00  0.00    +0.000 C 
BRANCH  18  19
ATOM     19  C   UNL     1       1.026   3.154  20.899  0.00  0.00    +0.000 C 
BRANCH  19  20
ATOM     20  C   UNL     1       0.857   2.886  19.408  0.00  0.00    +0.000 C 
BRANCH  20  21
ATOM     21  C   UNL     1       1.868   1.872  18.890  0.00  0.00    +0.000 C 
BRANCH  21  22
ATOM     22  C   UNL     1       2.670   2.473  17.748  0.00  0.00    +0.000 C 
ATOM     23  O   UNL     1       2.240   3.224  16.906  0.00  0.00    +0.000 OA
BRANCH  22  24
ATOM     24  O   UNL     1       3.963   2.069  17.763  0.00  0.00    +0.000 OA
ATOM     25  H   UNL     1       4.378   2.109  18.649  0.00  0.00    +0.000 HD
ENDBRANCH  22  24
ENDBRANCH  21  22
ENDBRANCH  20  21
ENDBRANCH  19  20
ENDBRANCH  18  19
ENDBRANCH  17  18
ENDBRANCH  16  17
ENDBRANCH  15  16
ENDBRANCH  14  15
ENDBRANCH   1  14
TORSDOF 19
ENDMDL
MODEL 4
REMARK VINA RESULT:      -5.6      1.905     10.450
REMARK  Name = 
REMARK  20 active torsions:
REMARK  status: ('A' for Active; 'I' for Inactive)
REMARK    1  A    between atoms: C_1  and  C_2
REMARK    2  A    between atoms: C_2  and  C_3
REMARK    3  A    between atoms: C_5  and  C_6
REMARK    4  A    between atoms: C_6  and  C_7
REMARK    5  A    between atoms: C_7  and  C_8
REMARK    6  A    between atoms: C_8  and  C_9
REMARK    7  A    between atoms: C_9  and  C_10
REMARK    8  A    between atoms: C_10  and  C_11
REMARK    9  A    between atoms: C_11  and  C_12
REMARK   10  A    between atoms: C_12  and  C_13
REMARK   11  A    between atoms: C_13  and  C_14
REMARK   12  A    between atoms: C_14  and  C_15
REMARK   13  A    between atoms: C_15  and  C_16
REMARK   14  A    between atoms: C_16  and  C_17
REMARK   15  A    between atoms: C_17  and  C_18
REMARK   16  A    between atoms: C_18  and  C_19
REMARK   17  A    between atoms: C_19  and  C_20
REMARK   18  A    between atoms: C_20  and  C_21
REMARK   19  A    between atoms: C_21  and  C_22
REMARK   20  A    between atoms: C_22  and  O_24
REMARK                            x       y       z     vdW  Elec       q    Type
REMARK                         _______ _______ _______ _____ _____    ______ ____
ROOT
ATOM      1  C   UNL     1       5.581   4.826  18.892  0.00  0.00    +0.000 C 
ENDROOT
BRANCH   1   2
ATOM      2  C   UNL     1       5.666   5.908  17.828  0.00  0.00    +0.000 C 
BRANCH   2   3
ATOM      3  C   UNL     1       7.093   6.023  17.312  0.00  0.00    +0.000 C 
BRANCH   3   4
ATOM      4  C   UNL     1       7.876   7.045  18.123  0.00  0.00    +0.000 C 
BRANCH   4   5
ATOM      5  C   UNL     1       7.434   8.459  17.761  0.00  0.00    +0.000 C 
BRANCH   5   6
ATOM      6  C   UNL     1       8.642   9.378  17.627  0.00  0.00    +0.000 C 
BRANCH   6   7
ATOM      7  C   UNL     1       8.909  10.190  18.901  0.00  0.00    +0.000 C 
BRANCH   7   8
ATOM      8  C   UNL     1       9.993  11.244  18.619  0.00  0.00    +0.000 C 
BRANCH   8  11
ATOM      9  C   UNL     1       9.405  13.405  20.157  0.00  0.00    +0.000 C 
ATOM     10  O   UNL     1      10.544  13.572  19.289  0.00  0.00    +0.000 OA
ATOM     11  C   UNL     1       9.557  12.655  18.829  0.00  0.00    +0.000 C 
BRANCH   9  13
ATOM     12  C   UNL     1       8.765  12.252  22.267  0.00  0.00    +0.000 C 
ATOM     13  C   UNL     1       9.830  13.078  21.557  0.00  0.00    +0.000 C 
ENDBRANCH   9  13
ENDBRANCH   8  11
ENDBRANCH   7   8
ENDBRANCH   6   7
ENDBRANCH   5   6
ENDBRANCH   4   5
ENDBRANCH   3   4
ENDBRANCH   2   3
ENDBRANCH   1   2
BRANCH   1  14
ATOM     14  C   UNL     1       4.867   3.603  18.341  0.00  0.00    +0.000 C 
BRANCH  14  15
ATOM     15  C   UNL     1       4.013   3.989  17.144  0.00  0.00    +0.000 C 
BRANCH  15  16
ATOM     16  C   UNL     1       2.677   3.263  17.190  0.00  0.00    +0.000 C 
BRANCH  16  17
ATOM     17  C   UNL     1       2.777   2.036  18.086  0.00  0.00    +0.000 C 
BRANCH  17  18
ATOM     18  C   UNL     1       1.709   2.078  19.169  0.00  0.00    +0.000 C 
BRANCH  18  19
ATOM     19  C   UNL     1       0.927   3.386  19.107  0.00  0.00    +0.000 C 
BRANCH  19  20
ATOM     20  C   UNL     1       0.943   4.069  20.469  0.00  0.00    +0.000 C 
BRANCH  20  21
ATOM     21  C   UNL     1       2.248   4.814  20.720  0.00  0.00    +0.000 C 
BRANCH  21  22
ATOM     22  C   UNL     1       2.170   6.213  20.130  0.00  0.00    +0.000 C 
ATOM     23  O   UNL     1       2.437   6.511  18.990  0.00  0.00    +0.000 OA
BRANCH  22  24
ATOM     24  O   UNL     1       1.762   7.130  21.039  0.00  0.00    +0.000 OA
ATOM     25  H   UNL     1       0.973   6.853  21.550  0.00  0.00    +0.000 HD
ENDBRANCH  22  24
ENDBRANCH  21  22
ENDBRANCH  20  21
ENDBRANCH  19  20
ENDBRANCH  18  19
ENDBRANCH  17  18
ENDBRANCH  16  17
ENDBRANCH  15  16
ENDBRANCH  14  15
ENDBRANCH   1  14
TORSDOF 19
ENDMDL
MODEL 5
REMARK VINA RESULT:      -5.6      4.608      8.557
REMARK  Name = 
REMARK  20 active torsions:
REMARK  status: ('A' for Active; 'I' for Inactive)
REMARK    1  A    between atoms: C_1  and  C_2
REMARK    2  A    between atoms: C_2  and  C_3
REMARK    3  A    between atoms: C_5  and  C_6
REMARK    4  A    between atoms: C_6  and  C_7
REMARK    5  A    between atoms: C_7  and  C_8
REMARK    6  A    between atoms: C_8  and  C_9
REMARK    7  A    between atoms: C_9  and  C_10
REMARK    8  A    between atoms: C_10  and  C_11
REMARK    9  A    between atoms: C_11  and  C_12
REMARK   10  A    between atoms: C_12  and  C_13
REMARK   11  A    between atoms: C_13  and  C_14
REMARK   12  A    between atoms: C_14  and  C_15
REMARK   13  A    between atoms: C_15  and  C_16
REMARK   14  A    between atoms: C_16  and  C_17
REMARK   15  A    between atoms: C_17  and  C_18
REMARK   16  A    between atoms: C_18  and  C_19
REMARK   17  A    between atoms: C_19  and  C_20
REMARK   18  A    between atoms: C_20  and  C_21
REMARK   19  A    between atoms: C_21  and  C_22
REMARK   20  A    between atoms: C_22  and  O_24
REMARK                            x       y       z     vdW  Elec       q    Type
REMARK                         _______ _______ _______ _____ _____    ______ ____
ROOT
ATOM      1  C   UNL     1       2.178   5.841  17.978  0.00  0.00    +0.000 C 
ENDROOT
BRANCH   1   2
ATOM      2  C   UNL     1       1.640   4.420  17.981  0.00  0.00    +0.000 C 
BRANCH   2   3
ATOM      3  C   UNL     1       1.371   3.966  19.408  0.00  0.00    +0.000 C 
BRANCH   3   4
ATOM      4  C   UNL     1       2.109   2.670  19.707  0.00  0.00    +0.000 C 
BRANCH   4   5
ATOM      5  C   UNL     1       3.358   2.559  18.836  0.00  0.00    +0.000 C 
BRANCH   5   6
ATOM      6  C   UNL     1       4.599   2.939  19.632  0.00  0.00    +0.000 C 
BRANCH   6   7
ATOM      7  C   UNL     1       5.348   4.132  19.023  0.00  0.00    +0.000 C 
BRANCH   7   8
ATOM      8  C   UNL     1       5.310   4.031  17.489  0.00  0.00    +0.000 C 
BRANCH   8  11
ATOM      9  C   UNL     1       7.076   5.955  16.742  0.00  0.00    +0.000 C 
ATOM     10  O   UNL     1       7.611   4.956  17.634  0.00  0.00    +0.000 OA
ATOM     11  C   UNL     1       6.540   4.520  16.803  0.00  0.00    +0.000 C 
BRANCH   9  13
ATOM     12  C   UNL     1       7.895   8.152  17.576  0.00  0.00    +0.000 C 
ATOM     13  C   UNL     1       6.705   7.205  17.483  0.00  0.00    +0.000 C 
ENDBRANCH   9  13
ENDBRANCH   8  11
ENDBRANCH   7   8
ENDBRANCH   6   7
ENDBRANCH   5   6
ENDBRANCH   4   5
ENDBRANCH   3   4
ENDBRANCH   2   3
ENDBRANCH   1   2
BRANCH   1  14
ATOM     14  C   UNL     1       2.505   6.282  19.395  0.00  0.00    +0.000 C 
BRANCH  14  15
ATOM     15  C   UNL     1       2.210   7.764  19.564  0.00  0.00    +0.000 C 
BRANCH  15  16
ATOM     16  C   UNL     1       1.666   8.347  18.269  0.00  0.00    +0.000 C 
BRANCH  16  17
ATOM     17  C   UNL     1       2.001   9.830  18.180  0.00  0.00    +0.000 C 
BRANCH  17  18
ATOM     18  C   UNL     1       0.803  10.673  18.592  0.00  0.00    +0.000 C 
BRANCH  18  19
ATOM     19  C   UNL     1       0.817  10.934  20.095  0.00  0.00    +0.000 C 
BRANCH  19  20
ATOM     20  C   UNL     1      -0.515  10.516  20.709  0.00  0.00    +0.000 C 
BRANCH  20  21
ATOM     21  C   UNL     1      -0.602  10.877  22.186  0.00  0.00    +0.000 C 
BRANCH  21  22
ATOM     22  C   UNL     1      -0.221   9.678  23.038  0.00  0.00    +0.000 C 
ATOM     23  O   UNL     1       0.630   9.667  23.895  0.00  0.00    +0.000 OA
BRANCH  22  24
ATOM     24  O   UNL     1      -0.950   8.579  22.730  0.00  0.00    +0.000 OA
ATOM     25  H   UNL     1      -1.284   8.573  21.810  0.00  0.00    +0.000 HD
ENDBRANCH  22  24
ENDBRANCH  21  22
ENDBRANCH  20  21
ENDBRANCH  19  20
ENDBRANCH  18  19
ENDBRANCH  17  18
ENDBRANCH  16  17
ENDBRANCH  15  16
ENDBRANCH  14  15
ENDBRANCH   1  14
TORSDOF 19
ENDMDL
MODEL 6
REMARK VINA RESULT:      -5.6      5.968      8.679
REMARK  Name = 
REMARK  20 active torsions:
REMARK  status: ('A' for Active; 'I' for Inactive)
REMARK    1  A    between atoms: C_1  and  C_2
REMARK    2  A    between atoms: C_2  and  C_3
REMARK    3  A    between atoms: C_5  and  C_6
REMARK    4  A    between atoms: C_6  and  C_7
REMARK    5  A    between atoms: C_7  and  C_8
REMARK    6  A    between atoms: C_8  and  C_9
REMARK    7  A    between atoms: C_9  and  C_10
REMARK    8  A    between atoms: C_10  and  C_11
REMARK    9  A    between atoms: C_11  and  C_12
REMARK   10  A    between atoms: C_12  and  C_13
REMARK   11  A    between atoms: C_13  and  C_14
REMARK   12  A    between atoms: C_14  and  C_15
REMARK   13  A    between atoms: C_15  and  C_16
REMARK   14  A    between atoms: C_16  and  C_17
REMARK   15  A    between atoms: C_17  and  C_18
REMARK   16  A    between atoms: C_18  and  C_19
REMARK   17  A    between atoms: C_19  and  C_20
REMARK   18  A    between atoms: C_20  and  C_21
REMARK   19  A    between atoms: C_21  and  C_22
REMARK   20  A    between atoms: C_22  and  O_24
REMARK                            x       y       z     vdW  Elec       q    Type
REMARK                         _______ _______ _______ _____ _____    ______ ____
ROOT
ATOM      1  C   UNL     1       2.327   4.935  21.071  0.00  0.00    +0.000 C 
ENDROOT
BRANCH   1   2
ATOM      2  C   UNL     1       1.741   3.544  20.889  0.00  0.00    +0.000 C 
BRANCH   2   3
ATOM      3  C   UNL     1       0.618   3.580  19.863  0.00  0.00    +0.000 C 
BRANCH   3   4
ATOM      4  C   UNL     1       0.733   2.408  18.900  0.00  0.00    +0.000 C 
BRANCH   4   5
ATOM      5  C   UNL     1       2.142   2.338  18.317  0.00  0.00    +0.000 C 
BRANCH   5   6
ATOM      6  C   UNL     1       2.399   3.525  17.398  0.00  0.00    +0.000 C 
BRANCH   6   7
ATOM      7  C   UNL     1       3.852   3.589  16.910  0.00  0.00    +0.000 C 
BRANCH   7   8
ATOM      8  C   UNL     1       4.667   4.501  17.842  0.00  0.00    +0.000 C 
BRANCH   8  11
ATOM      9  C   UNL     1       6.437   5.684  16.155  0.00  0.00    +0.000 C 
ATOM     10  O   UNL     1       5.053   5.824  15.775  0.00  0.00    +0.000 OA
ATOM     11  C   UNL     1       5.290   5.678  17.171  0.00  0.00    +0.000 C 
BRANCH   9  13
ATOM     12  C   UNL     1       6.309   4.242  14.131  0.00  0.00    +0.000 C 
ATOM     13  C   UNL     1       7.107   4.588  15.381  0.00  0.00    +0.000 C 
ENDBRANCH   9  13
ENDBRANCH   8  11
ENDBRANCH   7   8
ENDBRANCH   6   7
ENDBRANCH   5   6
ENDBRANCH   4   5
ENDBRANCH   3   4
ENDBRANCH   2   3
ENDBRANCH   1   2
BRANCH   1  14
ATOM     14  C   UNL     1       1.576   5.938  20.211  0.00  0.00    +0.000 C 
BRANCH  14  15
ATOM     15  C   UNL     1       2.557   6.842  19.483  0.00  0.00    +0.000 C 
BRANCH  15  16
ATOM     16  C   UNL     1       1.929   7.390  18.210  0.00  0.00    +0.000 C 
BRANCH  16  17
ATOM     17  C   UNL     1       2.015   8.910  18.194  0.00  0.00    +0.000 C 
BRANCH  17  18
ATOM     18  C   UNL     1       1.170   9.505  19.311  0.00  0.00    +0.000 C 
BRANCH  18  19
ATOM     19  C   UNL     1      -0.287   9.631  18.876  0.00  0.00    +0.000 C 
BRANCH  19  20
ATOM     20  C   UNL     1      -0.914  10.869  19.509  0.00  0.00    +0.000 C 
BRANCH  20  21
ATOM     21  C   UNL     1      -1.118  11.988  18.496  0.00  0.00    +0.000 C 
BRANCH  21  22
ATOM     22  C   UNL     1      -2.373  11.729  17.679  0.00  0.00    +0.000 C 
ATOM     23  O   UNL     1      -3.500  11.697  18.113  0.00  0.00    +0.000 OA
BRANCH  22  24
ATOM     24  O   UNL     1      -2.098  11.525  16.369  0.00  0.00    +0.000 OA
ATOM     25  H   UNL     1      -1.651  12.283  15.938  0.00  0.00    +0.000 HD
ENDBRANCH  22  24
ENDBRANCH  21  22
ENDBRANCH  20  21
ENDBRANCH  19  20
ENDBRANCH  18  19
ENDBRANCH  17  18
ENDBRANCH  16  17
ENDBRANCH  15  16
ENDBRANCH  14  15
ENDBRANCH   1  14
TORSDOF 19
ENDMDL
MODEL 7
REMARK VINA RESULT:      -5.6      5.066      8.289
REMARK  Name = 
REMARK  20 active torsions:
REMARK  status: ('A' for Active; 'I' for Inactive)
REMARK    1  A    between atoms: C_1  and  C_2
REMARK    2  A    between atoms: C_2  and  C_3
REMARK    3  A    between atoms: C_5  and  C_6
REMARK    4  A    between atoms: C_6  and  C_7
REMARK    5  A    between atoms: C_7  and  C_8
REMARK    6  A    between atoms: C_8  and  C_9
REMARK    7  A    between atoms: C_9  and  C_10
REMARK    8  A    between atoms: C_10  and  C_11
REMARK    9  A    between atoms: C_11  and  C_12
REMARK   10  A    between atoms: C_12  and  C_13
REMARK   11  A    between atoms: C_13  and  C_14
REMARK   12  A    between atoms: C_14  and  C_15
REMARK   13  A    between atoms: C_15  and  C_16
REMARK   14  A    between atoms: C_16  and  C_17
REMARK   15  A    between atoms: C_17  and  C_18
REMARK   16  A    between atoms: C_18  and  C_19
REMARK   17  A    between atoms: C_19  and  C_20
REMARK   18  A    between atoms: C_20  and  C_21
REMARK   19  A    between atoms: C_21  and  C_22
REMARK   20  A    between atoms: C_22  and  O_24
REMARK                            x       y       z     vdW  Elec       q    Type
REMARK                         _______ _______ _______ _____ _____    ______ ____
ROOT
ATOM      1  C   UNL     1       1.586   5.251  20.676  0.00  0.00    +0.000 C 
ENDROOT
BRANCH   1   2
ATOM      2  C   UNL     1       1.268   3.810  20.307  0.00  0.00    +0.000 C 
BRANCH   2   3
ATOM      3  C   UNL     1       2.399   2.895  20.752  0.00  0.00    +0.000 C 
BRANCH   3   4
ATOM      4  C   UNL     1       3.242   2.466  19.560  0.00  0.00    +0.000 C 
BRANCH   4   5
ATOM      5  C   UNL     1       2.368   2.319  18.318  0.00  0.00    +0.000 C 
BRANCH   5   6
ATOM      6  C   UNL     1       2.942   3.129  17.162  0.00  0.00    +0.000 C 
BRANCH   6   7
ATOM      7  C   UNL     1       4.364   3.630  17.442  0.00  0.00    +0.000 C 
BRANCH   7   8
ATOM      8  C   UNL     1       4.841   4.502  16.268  0.00  0.00    +0.000 C 
BRANCH   8  11
ATOM      9  C   UNL     1       5.988   6.820  17.098  0.00  0.00    +0.000 C 
ATOM     10  O   UNL     1       5.649   6.781  15.697  0.00  0.00    +0.000 OA
ATOM     11  C   UNL     1       4.842   5.967  16.542  0.00  0.00    +0.000 C 
BRANCH   9  13
ATOM     12  C   UNL     1       7.705   6.116  18.756  0.00  0.00    +0.000 C 
ATOM     13  C   UNL     1       7.444   6.538  17.315  0.00  0.00    +0.000 C 
ENDBRANCH   9  13
ENDBRANCH   8  11
ENDBRANCH   7   8
ENDBRANCH   6   7
ENDBRANCH   5   6
ENDBRANCH   4   5
ENDBRANCH   3   4
ENDBRANCH   2   3
ENDBRANCH   1   2
BRANCH   1  14
ATOM     14  C   UNL     1       2.766   5.754  19.860  0.00  0.00    +0.000 C 
BRANCH  14  15
ATOM     15  C   UNL     1       2.274   6.497  18.629  0.00  0.00    +0.000 C 
BRANCH  15  16
ATOM     16  C   UNL     1       2.519   7.990  18.779  0.00  0.00    +0.000 C 
BRANCH  16  17
ATOM     17  C   UNL     1       1.882   8.746  17.621  0.00  0.00    +0.000 C 
BRANCH  17  18
ATOM     18  C   UNL     1       0.707   9.580  18.110  0.00  0.00    +0.000 C 
BRANCH  18  19
ATOM     19  C   UNL     1       0.781   9.785  19.620  0.00  0.00    +0.000 C 
BRANCH  19  20
ATOM     20  C   UNL     1       0.684  11.270  19.949  0.00  0.00    +0.000 C 
BRANCH  20  21
ATOM     21  C   UNL     1      -0.315  11.991  19.054  0.00  0.00    +0.000 C 
BRANCH  21  22
ATOM     22  C   UNL     1      -1.658  12.100  19.756  0.00  0.00    +0.000 C 
ATOM     23  O   UNL     1      -1.853  11.916  20.934  0.00  0.00    +0.000 OA
BRANCH  22  24
ATOM     24  O   UNL     1      -2.656  12.434  18.903  0.00  0.00    +0.000 OA
ATOM     25  H   UNL     1      -2.344  12.671  18.005  0.00  0.00    +0.000 HD
ENDBRANCH  22  24
ENDBRANCH  21  22
ENDBRANCH  20  21
ENDBRANCH  19  20
ENDBRANCH  18  19
ENDBRANCH  17  18
ENDBRANCH  16  17
ENDBRANCH  15  16
ENDBRANCH  14  15
ENDBRANCH   1  14
TORSDOF 19
ENDMDL
MODEL 8
REMARK VINA RESULT:      -5.5      6.036      7.462
REMARK  Name = 
REMARK  20 active torsions:
REMARK  status: ('A' for Active; 'I' for Inactive)
REMARK    1  A    between atoms: C_1  and  C_2
REMARK    2  A    between atoms: C_2  and  C_3
REMARK    3  A    between atoms: C_5  and  C_6
REMARK    4  A    between atoms: C_6  and  C_7
REMARK    5  A    between atoms: C_7  and  C_8
REMARK    6  A    between atoms: C_8  and  C_9
REMARK    7  A    between atoms: C_9  and  C_10
REMARK    8  A    between atoms: C_10  and  C_11
REMARK    9  A    between atoms: C_11  and  C_12
REMARK   10  A    between atoms: C_12  and  C_13
REMARK   11  A    between atoms: C_13  and  C_14
REMARK   12  A    between atoms: C_14  and  C_15
REMARK   13  A    between atoms: C_15  and  C_16
REMARK   14  A    between atoms: C_16  and  C_17
REMARK   15  A    between atoms: C_17  and  C_18
REMARK   16  A    between atoms: C_18  and  C_19
REMARK   17  A    between atoms: C_19  and  C_20
REMARK   18  A    between atoms: C_20  and  C_21
REMARK   19  A    between atoms: C_21  and  C_22
REMARK   20  A    between atoms: C_22  and  O_24
REMARK                            x       y       z     vdW  Elec       q    Type
REMARK                         _______ _______ _______ _____ _____    ______ ____
ROOT
ATOM      1  C   UNL     1       3.285   6.261  17.429  0.00  0.00    +0.000 C 
ENDROOT
BRANCH   1   2
ATOM      2  C   UNL     1       2.012   6.563  18.203  0.00  0.00    +0.000 C 
BRANCH   2   3
ATOM      3  C   UNL     1       2.341   7.340  19.469  0.00  0.00    +0.000 C 
BRANCH   3   4
ATOM      4  C   UNL     1       2.077   6.490  20.703  0.00  0.00    +0.000 C 
BRANCH   4   5
ATOM      5  C   UNL     1       2.586   5.069  20.487  0.00  0.00    +0.000 C 
BRANCH   5   6
ATOM      6  C   UNL     1       2.128   4.159  21.619  0.00  0.00    +0.000 C 
BRANCH   6   7
ATOM      7  C   UNL     1       1.297   2.969  21.121  0.00  0.00    +0.000 C 
BRANCH   7   8
ATOM      8  C   UNL     1       0.688   3.307  19.750  0.00  0.00    +0.000 C 
BRANCH   8  11
ATOM      9  C   UNL     1       2.266   2.181  17.848  0.00  0.00    +0.000 C 
ATOM     10  O   UNL     1       1.963   1.324  18.967  0.00  0.00    +0.000 OA
ATOM     11  C   UNL     1       0.984   2.316  18.677  0.00  0.00    +0.000 C 
BRANCH   9  13
ATOM     12  C   UNL     1       4.360   2.226  19.191  0.00  0.00    +0.000 C 
ATOM     13  C   UNL     1       3.627   2.796  17.983  0.00  0.00    +0.000 C 
ENDBRANCH   9  13
ENDBRANCH   8  11
ENDBRANCH   7   8
ENDBRANCH   6   7
ENDBRANCH   5   6
ENDBRANCH   4   5
ENDBRANCH   3   4
ENDBRANCH   2   3
ENDBRANCH   1   2
BRANCH   1  14
ATOM     14  C   UNL     1       4.339   7.317  17.720  0.00  0.00    +0.000 C 
BRANCH  14  15
ATOM     15  C   UNL     1       5.700   6.846  17.234  0.00  0.00    +0.000 C 
BRANCH  15  16
ATOM     16  C   UNL     1       6.063   5.517  17.880  0.00  0.00    +0.000 C 
BRANCH  16  17
ATOM     17  C   UNL     1       7.400   5.023  17.347  0.00  0.00    +0.000 C 
BRANCH  17  18
ATOM     18  C   UNL     1       7.259   4.547  15.908  0.00  0.00    +0.000 C 
BRANCH  18  19
ATOM     19  C   UNL     1       5.942   3.802  15.712  0.00  0.00    +0.000 C 
BRANCH  19  20
ATOM     20  C   UNL     1       5.364   4.117  14.338  0.00  0.00    +0.000 C 
BRANCH  20  21
ATOM     21  C   UNL     1       6.401   3.966  13.232  0.00  0.00    +0.000 C 
BRANCH  21  22
ATOM     22  C   UNL     1       5.841   3.110  12.108  0.00  0.00    +0.000 C 
ATOM     23  O   UNL     1       6.424   2.210  11.553  0.00  0.00    +0.000 OA
BRANCH  22  24
ATOM     24  O   UNL     1       4.579   3.470  11.771  0.00  0.00    +0.000 OA
ATOM     25  H   UNL     1       4.514   3.904  10.895  0.00  0.00    +0.000 HD
ENDBRANCH  22  24
ENDBRANCH  21  22
ENDBRANCH  20  21
ENDBRANCH  19  20
ENDBRANCH  18  19
ENDBRANCH  17  18
ENDBRANCH  16  17
ENDBRANCH  15  16
ENDBRANCH  14  15
ENDBRANCH   1  14
TORSDOF 19
ENDMDL
MODEL 9
REMARK VINA RESULT:      -5.5      6.332      9.186
REMARK  Name = 
REMARK  20 active torsions:
REMARK  status: ('A' for Active; 'I' for Inactive)
REMARK    1  A    between atoms: C_1  and  C_2
REMARK    2  A    between atoms: C_2  and  C_3
REMARK    3  A    between atoms: C_5  and  C_6
REMARK    4  A    between atoms: C_6  and  C_7
REMARK    5  A    between atoms: C_7  and  C_8
REMARK    6  A    between atoms: C_8  and  C_9
REMARK    7  A    between atoms: C_9  and  C_10
REMARK    8  A    between atoms: C_10  and  C_11
REMARK    9  A    between atoms: C_11  and  C_12
REMARK   10  A    between atoms: C_12  and  C_13
REMARK   11  A    between atoms: C_13  and  C_14
REMARK   12  A    between atoms: C_14  and  C_15
REMARK   13  A    between atoms: C_15  and  C_16
REMARK   14  A    between atoms: C_16  and  C_17
REMARK   15  A    between atoms: C_17  and  C_18
REMARK   16  A    between atoms: C_18  and  C_19
REMARK   17  A    between atoms: C_19  and  C_20
REMARK   18  A    between atoms: C_20  and  C_21
REMARK   19  A    between atoms: C_21  and  C_22
REMARK   20  A    between atoms: C_22  and  O_24
REMARK                            x       y       z     vdW  Elec       q    Type
REMARK                         _______ _______ _______ _____ _____    ______ ____
ROOT
ATOM      1  C   UNL     1       1.492   3.226  21.153  0.00  0.00    +0.000 C 
ENDROOT
BRANCH   1   2
ATOM      2  C   UNL     1       2.507   4.355  21.067  0.00  0.00    +0.000 C 
BRANCH   2   3
ATOM      3  C   UNL     1       1.793   5.689  20.909  0.00  0.00    +0.000 C 
BRANCH   3   4
ATOM      4  C   UNL     1       2.482   6.545  19.857  0.00  0.00    +0.000 C 
BRANCH   4   5
ATOM      5  C   UNL     1       1.813   7.913  19.766  0.00  0.00    +0.000 C 
BRANCH   5   6
ATOM      6  C   UNL     1       1.470   8.434  21.156  0.00  0.00    +0.000 C 
BRANCH   6   7
ATOM      7  C   UNL     1      -0.033   8.684  21.338  0.00  0.00    +0.000 C 
BRANCH   7   8
ATOM      8  C   UNL     1      -0.330  10.180  21.148  0.00  0.00    +0.000 C 
BRANCH   8  11
ATOM      9  C   UNL     1       1.076  12.326  20.254  0.00  0.00    +0.000 C 
ATOM     10  O   UNL     1       0.772  12.346  21.663  0.00  0.00    +0.000 OA
ATOM     11  C   UNL     1       0.878  11.051  21.081  0.00  0.00    +0.000 C 
BRANCH   9  13
ATOM     12  C   UNL     1      -0.573  12.377  18.390  0.00  0.00    +0.000 C 
ATOM     13  C   UNL     1       0.122  13.185  19.479  0.00  0.00    +0.000 C 
ENDBRANCH   9  13
ENDBRANCH   8  11
ENDBRANCH   7   8
ENDBRANCH   6   7
ENDBRANCH   5   6
ENDBRANCH   4   5
ENDBRANCH   3   4
ENDBRANCH   2   3
ENDBRANCH   1   2
BRANCH   1  14
ATOM     14  C   UNL     1       0.508   3.315  19.997  0.00  0.00    +0.000 C 
BRANCH  14  15
ATOM     15  C   UNL     1       1.091   2.650  18.761  0.00  0.00    +0.000 C 
BRANCH  15  16
ATOM     16  C   UNL     1       1.419   3.693  17.704  0.00  0.00    +0.000 C 
BRANCH  16  17
ATOM     17  C   UNL     1       2.746   3.362  17.035  0.00  0.00    +0.000 C 
BRANCH  17  18
ATOM     18  C   UNL     1       3.823   3.109  18.080  0.00  0.00    +0.000 C 
BRANCH  18  19
ATOM     19  C   UNL     1       5.057   3.961  17.801  0.00  0.00    +0.000 C 
BRANCH  19  20
ATOM     20  C   UNL     1       4.983   4.541  16.394  0.00  0.00    +0.000 C 
BRANCH  20  21
ATOM     21  C   UNL     1       6.019   3.922  15.464  0.00  0.00    +0.000 C 
BRANCH  21  22
ATOM     22  C   UNL     1       6.964   4.995  14.950  0.00  0.00    +0.000 C 
ATOM     23  O   UNL     1       7.277   5.163  13.796  0.00  0.00    +0.000 OA
BRANCH  22  24
ATOM     24  O   UNL     1       7.446   5.774  15.949  0.00  0.00    +0.000 OA
ATOM     25  H   UNL     1       7.855   6.607  15.636  0.00  0.00    +0.000 HD
ENDBRANCH  22  24
ENDBRANCH  21  22
ENDBRANCH  20  21
ENDBRANCH  19  20
ENDBRANCH  18  19
ENDBRANCH  17  18
ENDBRANCH  16  17
ENDBRANCH  15  16
ENDBRANCH  14  15
ENDBRANCH   1  14
TORSDOF 19
ENDMDL
