MODEL 1
REMARK VINA RESULT:      -5.2      0.000      0.000
REMARK  Name = 
REMARK  2 active torsions:
REMARK  status: ('A' for Active; 'I' for Inactive)
REMARK    1  A    between atoms: C_1  and  N_2
REMARK    2  A    between atoms: C_7  and  C_9
REMARK                            x       y       z     vdW  Elec       q    Type
REMARK                         _______ _______ _______ _____ _____    ______ ____
ROOT
ATOM      1  C   UNL     1       1.532   3.040  21.044  0.00  0.00    +0.000 C 
ATOM      2  N   UNL     1       2.285   2.887  19.822  0.00  0.00    +0.000 N 
ATOM      3  C   UNL     1       1.932   2.192  18.706  0.00  0.00    +0.000 A 
ATOM      4  C   UNL     1       2.968   2.375  17.818  0.00  0.00    +0.000 A 
ATOM      5  C   UNL     1       3.904   3.198  18.493  0.00  0.00    +0.000 A 
ATOM      6  N   UNL     1       5.092   3.637  17.953  0.00  0.00    +0.000 N 
ATOM      7  C   UNL     1       5.989   4.471  18.591  0.00  0.00    +0.000 C 
ATOM      8  O   UNL     1       5.912   4.901  19.742  0.00  0.00    +0.000 OA
ATOM      9  N   UNL     1       3.473   3.491  19.719  0.00  0.00    +0.000 NA
ATOM     10  H   UNL     1       5.277   3.378  16.994  0.00  0.00    +0.000 HD
ENDROOT
BRANCH   7  11
ATOM     11  C   UNL     1       7.231   4.794  17.780  0.00  0.00    +0.000 C 
ATOM     12 CL   UNL     1       7.547   6.543  17.694  0.00  0.00    +0.000 Cl
ENDBRANCH   7  11
TORSDOF 1
ENDMDL
MODEL 2
REMARK VINA RESULT:      -5.2      1.417      1.417
REMARK  Name = 
REMARK  2 active torsions:
REMARK  status: ('A' for Active; 'I' for Inactive)
REMARK    1  A    between atoms: C_1  and  N_2
REMARK    2  A    between atoms: C_7  and  C_9
REMARK                            x       y       z     vdW  Elec       q    Type
REMARK                         _______ _______ _______ _____ _____    ______ ____
ROOT
ATOM      1  C   UNL     1       2.627   2.718  21.350  0.00  0.00    +0.000 C 
ATOM      2  N   UNL     1       2.921   2.659  19.938  0.00  0.00    +0.000 N 
ATOM      3  C   UNL     1       2.183   2.074  18.956  0.00  0.00    +0.000 A 
ATOM      4  C   UNL     1       2.871   2.315  17.788  0.00  0.00    +0.000 A 
ATOM      5  C   UNL     1       4.018   3.055  18.171  0.00  0.00    +0.000 A 
ATOM      6  N   UNL     1       4.979   3.516  17.299  0.00  0.00    +0.000 N 
ATOM      7  C   UNL     1       6.077   4.271  17.660  0.00  0.00    +0.000 C 
ATOM      8  O   UNL     1       6.409   4.598  18.800  0.00  0.00    +0.000 OA
ATOM      9  N   UNL     1       4.035   3.246  19.489  0.00  0.00    +0.000 NA
ATOM     10  H   UNL     1       4.820   3.340  16.316  0.00  0.00    +0.000 HD
ENDROOT
BRANCH   7  11
ATOM     11  C   UNL     1       6.993   4.640  16.507  0.00  0.00    +0.000 C 
ATOM     12 CL   UNL     1       6.395   4.029  14.947  0.00  0.00    +0.000 Cl
ENDBRANCH   7  11
TORSDOF 1
ENDMDL
MODEL 3
REMARK VINA RESULT:      -5.2      4.858      5.795
REMARK  Name = 
REMARK  2 active torsions:
REMARK  status: ('A' for Active; 'I' for Inactive)
REMARK    1  A    between atoms: C_1  and  N_2
REMARK    2  A    between atoms: C_7  and  C_9
REMARK                            x       y       z     vdW  Elec       q    Type
REMARK                         _______ _______ _______ _____ _____    ______ ____
ROOT
ATOM      1  C   UNL     1       7.800   7.574  17.673  0.00  0.00    +0.000 C 
ATOM      2  N   UNL     1       7.159   6.335  17.305  0.00  0.00    +0.000 N 
ATOM      3  C   UNL     1       6.454   5.489  18.107  0.00  0.00    +0.000 A 
ATOM      4  C   UNL     1       6.028   4.473  17.281  0.00  0.00    +0.000 A 
ATOM      5  C   UNL     1       6.529   4.794  15.995  0.00  0.00    +0.000 A 
ATOM      6  N   UNL     1       6.320   4.039  14.863  0.00  0.00    +0.000 N 
ATOM      7  C   UNL     1       6.771   4.368  13.600  0.00  0.00    +0.000 C 
ATOM      8  O   UNL     1       7.471   5.332  13.290  0.00  0.00    +0.000 OA
ATOM      9  N   UNL     1       7.225   5.930  16.033  0.00  0.00    +0.000 NA
ATOM     10  H   UNL     1       5.734   3.222  14.965  0.00  0.00    +0.000 HD
ENDROOT
BRANCH   7  11
ATOM     11  C   UNL     1       6.417   3.356  12.524  0.00  0.00    +0.000 C 
ATOM     12 CL   UNL     1       4.740   3.530  11.958  0.00  0.00    +0.000 Cl
ENDBRANCH   7  11
TORSDOF 1
ENDMDL
MODEL 4
REMARK VINA RESULT:      -5.0      1.452      1.486
REMARK  Name = 
REMARK  2 active torsions:
REMARK  status: ('A' for Active; 'I' for Inactive)
REMARK    1  A    between atoms: C_1  and  N_2
REMARK    2  A    between atoms: C_7  and  C_9
REMARK                            x       y       z     vdW  Elec       q    Type
REMARK                         _______ _______ _______ _____ _____    ______ ____
ROOT
ATOM      1  C   UNL     1       1.626   2.682  21.669  0.00  0.00    +0.000 C 
ATOM      2  N   UNL     1       1.839   2.967  20.271  0.00  0.00    +0.000 N 
ATOM      3  C   UNL     1       0.924   2.940  19.264  0.00  0.00    +0.000 A 
ATOM      4  C   UNL     1       1.614   3.312  18.132  0.00  0.00    +0.000 A 
ATOM      5  C   UNL     1       2.945   3.542  18.559  0.00  0.00    +0.000 A 
ATOM      6  N   UNL     1       3.972   3.948  17.736  0.00  0.00    +0.000 N 
ATOM      7  C   UNL     1       5.262   4.213  18.153  0.00  0.00    +0.000 C 
ATOM      8  O   UNL     1       5.716   4.073  19.288  0.00  0.00    +0.000 OA
ATOM      9  N   UNL     1       3.065   3.316  19.867  0.00  0.00    +0.000 NA
ATOM     10  H   UNL     1       3.734   4.127  16.770  0.00  0.00    +0.000 HD
ENDROOT
BRANCH   7  11
ATOM     11  C   UNL     1       6.207   4.631  17.042  0.00  0.00    +0.000 C 
ATOM     12 CL   UNL     1       5.379   4.797  15.476  0.00  0.00    +0.000 Cl
ENDBRANCH   7  11
TORSDOF 1
ENDMDL
MODEL 5
REMARK VINA RESULT:      -5.0      1.737      1.800
REMARK  Name = 
REMARK  2 active torsions:
REMARK  status: ('A' for Active; 'I' for Inactive)
REMARK    1  A    between atoms: C_1  and  N_2
REMARK    2  A    between atoms: C_7  and  C_9
REMARK                            x       y       z     vdW  Elec       q    Type
REMARK                         _______ _______ _______ _____ _____    ______ ____
ROOT
ATOM      1  C   UNL     1       1.806   5.109  20.827  0.00  0.00    +0.000 C 
ATOM      2  N   UNL     1       2.826   4.206  20.351  0.00  0.00    +0.000 N 
ATOM      3  C   UNL     1       2.921   2.866  20.568  0.00  0.00    +0.000 A 
ATOM      4  C   UNL     1       4.048   2.464  19.885  0.00  0.00    +0.000 A 
ATOM      5  C   UNL     1       4.567   3.639  19.286  0.00  0.00    +0.000 A 
ATOM      6  N   UNL     1       5.693   3.682  18.494  0.00  0.00    +0.000 N 
ATOM      7  C   UNL     1       6.180   4.816  17.876  0.00  0.00    +0.000 C 
ATOM      8  O   UNL     1       5.741   5.962  17.975  0.00  0.00    +0.000 OA
ATOM      9  N   UNL     1       3.812   4.694  19.591  0.00  0.00    +0.000 NA
ATOM     10  H   UNL     1       6.147   2.799  18.305  0.00  0.00    +0.000 HD
ENDROOT
BRANCH   7  11
ATOM     11  C   UNL     1       7.447   4.595  17.069  0.00  0.00    +0.000 C 
ATOM     12 CL   UNL     1       7.144   4.610  15.316  0.00  0.00    +0.000 Cl
ENDBRANCH   7  11
TORSDOF 1
ENDMDL
MODEL 6
REMARK VINA RESULT:      -4.9      2.993      5.073
REMARK  Name = 
REMARK  2 active torsions:
REMARK  status: ('A' for Active; 'I' for Inactive)
REMARK    1  A    between atoms: C_1  and  N_2
REMARK    2  A    between atoms: C_7  and  C_9
REMARK                            x       y       z     vdW  Elec       q    Type
REMARK                         _______ _______ _______ _____ _____    ______ ____
ROOT
ATOM      1  C   UNL     1       6.749   4.409  15.842  0.00  0.00    +0.000 C 
ATOM      2  N   UNL     1       6.056   4.458  17.107  0.00  0.00    +0.000 N 
ATOM      3  C   UNL     1       6.490   5.004  18.275  0.00  0.00    +0.000 A 
ATOM      4  C   UNL     1       5.460   4.819  19.170  0.00  0.00    +0.000 A 
ATOM      5  C   UNL     1       4.444   4.148  18.445  0.00  0.00    +0.000 A 
ATOM      6  N   UNL     1       3.224   3.779  18.965  0.00  0.00    +0.000 N 
ATOM      7  C   UNL     1       2.215   3.161  18.253  0.00  0.00    +0.000 C 
ATOM      8  O   UNL     1       2.258   2.786  17.081  0.00  0.00    +0.000 OA
ATOM      9  N   UNL     1       4.832   3.928  17.189  0.00  0.00    +0.000 NA
ATOM     10  H   UNL     1       3.040   4.048  19.922  0.00  0.00    +0.000 HD
ENDROOT
BRANCH   7  11
ATOM     11  C   UNL     1       0.973   2.847  19.068  0.00  0.00    +0.000 C 
ATOM     12 CL   UNL     1       1.017   3.594  20.682  0.00  0.00    +0.000 Cl
ENDBRANCH   7  11
TORSDOF 1
ENDMDL
MODEL 7
REMARK VINA RESULT:      -4.9      1.589      1.832
REMARK  Name = 
REMARK  2 active torsions:
REMARK  status: ('A' for Active; 'I' for Inactive)
REMARK    1  A    between atoms: C_1  and  N_2
REMARK    2  A    between atoms: C_7  and  C_9
REMARK                            x       y       z     vdW  Elec       q    Type
REMARK                         _______ _______ _______ _____ _____    ______ ____
ROOT
ATOM      1  C   UNL     1       1.404   3.741  18.055  0.00  0.00    +0.000 C 
ATOM      2  N   UNL     1       2.673   3.487  18.693  0.00  0.00    +0.000 N 
ATOM      3  C   UNL     1       3.006   2.447  19.505  0.00  0.00    +0.000 A 
ATOM      4  C   UNL     1       4.330   2.645  19.829  0.00  0.00    +0.000 A 
ATOM      5  C   UNL     1       4.708   3.838  19.163  0.00  0.00    +0.000 A 
ATOM      6  N   UNL     1       5.967   4.395  19.210  0.00  0.00    +0.000 N 
ATOM      7  C   UNL     1       6.352   5.534  18.531  0.00  0.00    +0.000 C 
ATOM      8  O   UNL     1       5.640   6.261  17.840  0.00  0.00    +0.000 OA
ATOM      9  N   UNL     1       3.680   4.342  18.483  0.00  0.00    +0.000 NA
ATOM     10  H   UNL     1       6.669   3.884  19.728  0.00  0.00    +0.000 HD
ENDROOT
BRANCH   7  11
ATOM     11  C   UNL     1       7.795   5.945  18.765  0.00  0.00    +0.000 C 
ATOM     12 CL   UNL     1       8.121   7.607  18.219  0.00  0.00    +0.000 Cl
ENDBRANCH   7  11
TORSDOF 1
ENDMDL
MODEL 8
REMARK VINA RESULT:      -4.9      1.795      2.315
REMARK  Name = 
REMARK  2 active torsions:
REMARK  status: ('A' for Active; 'I' for Inactive)
REMARK    1  A    between atoms: C_1  and  N_2
REMARK    2  A    between atoms: C_7  and  C_9
REMARK                            x       y       z     vdW  Elec       q    Type
REMARK                         _______ _______ _______ _____ _____    ______ ____
ROOT
ATOM      1  C   UNL     1       3.303   1.800  18.157  0.00  0.00    +0.000 C 
ATOM      2  N   UNL     1       3.527   3.222  18.057  0.00  0.00    +0.000 N 
ATOM      3  C   UNL     1       2.607   4.198  17.827  0.00  0.00    +0.000 A 
ATOM      4  C   UNL     1       3.313   5.380  17.850  0.00  0.00    +0.000 A 
ATOM      5  C   UNL     1       4.659   5.012  18.101  0.00  0.00    +0.000 A 
ATOM      6  N   UNL     1       5.705   5.900  18.217  0.00  0.00    +0.000 N 
ATOM      7  C   UNL     1       7.010   5.551  18.501  0.00  0.00    +0.000 C 
ATOM      8  O   UNL     1       7.461   4.413  18.633  0.00  0.00    +0.000 OA
ATOM      9  N   UNL     1       4.770   3.689  18.215  0.00  0.00    +0.000 NA
ATOM     10  H   UNL     1       5.473   6.882  18.155  0.00  0.00    +0.000 HD
ENDROOT
BRANCH   7  11
ATOM     11  C   UNL     1       7.974   6.722  18.560  0.00  0.00    +0.000 C 
ATOM     12 CL   UNL     1       7.523   8.026  17.437  0.00  0.00    +0.000 Cl
ENDBRANCH   7  11
TORSDOF 1
ENDMDL
MODEL 9
REMARK VINA RESULT:      -4.9      3.360      5.171
REMARK  Name = 
REMARK  2 active torsions:
REMARK  status: ('A' for Active; 'I' for Inactive)
REMARK    1  A    between atoms: C_1  and  N_2
REMARK    2  A    between atoms: C_7  and  C_9
REMARK                            x       y       z     vdW  Elec       q    Type
REMARK                         _______ _______ _______ _____ _____    ______ ____
ROOT
ATOM      1  C   UNL     1       5.186   6.513  15.912  0.00  0.00    +0.000 C 
ATOM      2  N   UNL     1       4.971   5.804  17.150  0.00  0.00    +0.000 N 
ATOM      3  C   UNL     1       5.814   5.707  18.214  0.00  0.00    +0.000 A 
ATOM      4  C   UNL     1       5.141   4.951  19.148  0.00  0.00    +0.000 A 
ATOM      5  C   UNL     1       3.894   4.637  18.551  0.00  0.00    +0.000 A 
ATOM      6  N   UNL     1       2.901   3.899  19.156  0.00  0.00    +0.000 N 
ATOM      7  C   UNL     1       1.669   3.623  18.597  0.00  0.00    +0.000 C 
ATOM      8  O   UNL     1       1.283   3.928  17.468  0.00  0.00    +0.000 OA
ATOM      9  N   UNL     1       3.814   5.158  17.328  0.00  0.00    +0.000 NA
ATOM     10  H   UNL     1       3.074   3.601  20.107  0.00  0.00    +0.000 HD
ENDROOT
BRANCH   7  11
ATOM     11  C   UNL     1       0.760   2.775  19.468  0.00  0.00    +0.000 C 
ATOM     12 CL   UNL     1       1.205   2.855  21.189  0.00  0.00    +0.000 Cl
ENDBRANCH   7  11
TORSDOF 1
ENDMDL
