MODEL 1
REMARK VINA RESULT:      -7.8      0.000      0.000
REMARK  Name = 
REMARK  4 active torsions:
REMARK  status: ('A' for Active; 'I' for Inactive)
REMARK    1  A    between atoms: C_1  and  C_2
REMARK    2  A    between atoms: C_5  and  C_6
REMARK    3  A    between atoms: C_14  and  C_16
REMARK    4  A    between atoms: C_25  and  C_26
REMARK                            x       y       z     vdW  Elec       q    Type
REMARK                         _______ _______ _______ _____ _____    ______ ____
ROOT
ATOM      1  C   UNL     1       0.857   9.428  20.198  0.00  0.00    +0.000 A 
ATOM      2  N   UNL     1       0.503   9.047  21.409  0.00  0.00    +0.000 NA
ATOM      3  N   UNL     1       0.945   7.763  21.614  0.00  0.00    +0.000 NA
ATOM      4  C   UNL     1       1.569   7.378  20.526  0.00  0.00    +0.000 A 
ATOM      5  N   UNL     1       1.539   8.396  19.610  0.00  0.00    +0.000 N 
ATOM      6  C   UNL     1       2.209   8.358  18.339  0.00  0.00    +0.000 C 
ATOM      7  C   UNL     1       2.661   6.948  17.965  0.00  0.00    +0.000 C 
ATOM      8  N   UNL     1       3.149   6.164  19.112  0.00  0.00    +0.000 N 
ATOM      9  C   UNL     1       4.328   5.408  19.176  0.00  0.00    +0.000 C 
ATOM     10  O   UNL     1       4.688   4.834  20.204  0.00  0.00    +0.000 OA
ATOM     11  C   UNL     1       2.222   6.054  20.262  0.00  0.00    +0.000 C 
ATOM     12  C   UNL     1       1.162   4.978  20.009  0.00  0.00    +0.000 C 
ENDROOT
BRANCH   9  13
ATOM     13  C   UNL     1       5.227   5.282  18.006  0.00  0.00    +0.000 A 
ATOM     14  C   UNL     1       6.218   6.257  17.808  0.00  0.00    +0.000 A 
ATOM     15  C   UNL     1       7.056   6.178  16.696  0.00  0.00    +0.000 A 
ATOM     16  F   UNL     1       7.997   7.114  16.515  0.00  0.00    +0.000 F 
ATOM     17  C   UNL     1       6.913   5.151  15.775  0.00  0.00    +0.000 A 
ATOM     18  F   UNL     1       7.680   5.111  14.676  0.00  0.00    +0.000 F 
ATOM     19  C   UNL     1       5.971   4.159  16.003  0.00  0.00    +0.000 A 
ATOM     20  F   UNL     1       5.808   3.163  15.121  0.00  0.00    +0.000 F 
ATOM     21  C   UNL     1       5.162   4.191  17.135  0.00  0.00    +0.000 A 
ENDBRANCH   9  13
BRANCH   1  26
ATOM     22  C   UNL     1       1.445  14.038  18.616  0.00  0.00    +0.000 C 
ATOM     23  C   UNL     1       0.736  12.761  18.878  0.00  0.00    +0.000 A 
ATOM     24  N   UNL     1      -0.495  12.571  18.400  0.00  0.00    +0.000 NA
ATOM     25  S   UNL     1      -0.930  11.015  18.814  0.00  0.00    +0.000 S 
ATOM     26  C   UNL     1       0.555  10.698  19.616  0.00  0.00    +0.000 A 
ATOM     27  N   UNL     1       1.363  11.743  19.599  0.00  0.00    +0.000 NA
ENDBRANCH   1  26
TORSDOF 2
ENDMDL
MODEL 2
REMARK VINA RESULT:      -7.6      0.115      1.588
REMARK  Name = 
REMARK  4 active torsions:
REMARK  status: ('A' for Active; 'I' for Inactive)
REMARK    1  A    between atoms: C_1  and  C_2
REMARK    2  A    between atoms: C_5  and  C_6
REMARK    3  A    between atoms: C_14  and  C_16
REMARK    4  A    between atoms: C_25  and  C_26
REMARK                            x       y       z     vdW  Elec       q    Type
REMARK                         _______ _______ _______ _____ _____    ______ ____
ROOT
ATOM      1  C   UNL     1       0.800   9.466  20.228  0.00  0.00    +0.000 A 
ATOM      2  N   UNL     1       0.458   9.079  21.441  0.00  0.00    +0.000 NA
ATOM      3  N   UNL     1       0.915   7.799  21.639  0.00  0.00    +0.000 NA
ATOM      4  C   UNL     1       1.536   7.423  20.546  0.00  0.00    +0.000 A 
ATOM      5  N   UNL     1       1.489   8.444  19.633  0.00  0.00    +0.000 N 
ATOM      6  C   UNL     1       2.152   8.416  18.358  0.00  0.00    +0.000 C 
ATOM      7  C   UNL     1       2.616   7.012  17.977  0.00  0.00    +0.000 C 
ATOM      8  N   UNL     1       3.120   6.231  19.119  0.00  0.00    +0.000 N 
ATOM      9  C   UNL     1       4.306   5.487  19.173  0.00  0.00    +0.000 C 
ATOM     10  O   UNL     1       4.679   4.914  20.197  0.00  0.00    +0.000 OA
ATOM     11  C   UNL     1       2.201   6.107  20.274  0.00  0.00    +0.000 C 
ATOM     12  C   UNL     1       1.151   5.020  20.024  0.00  0.00    +0.000 C 
ENDROOT
BRANCH   9  13
ATOM     13  C   UNL     1       5.199   5.373  17.997  0.00  0.00    +0.000 A 
ATOM     14  C   UNL     1       5.049   4.272  17.139  0.00  0.00    +0.000 A 
ATOM     15  C   UNL     1       5.899   4.125  16.043  0.00  0.00    +0.000 A 
ATOM     16  F   UNL     1       5.749   3.070  15.232  0.00  0.00    +0.000 F 
ATOM     17  C   UNL     1       6.902   5.051  15.797  0.00  0.00    +0.000 A 
ATOM     18  F   UNL     1       7.755   4.877  14.779  0.00  0.00    +0.000 F 
ATOM     19  C   UNL     1       7.011   6.168  16.614  0.00  0.00    +0.000 A 
ATOM     20  F   UNL     1       7.979   7.070  16.402  0.00  0.00    +0.000 F 
ATOM     21  C   UNL     1       6.138   6.359  17.680  0.00  0.00    +0.000 A 
ENDBRANCH   9  13
BRANCH   1  26
ATOM     22  C   UNL     1       1.305  14.113  18.727  0.00  0.00    +0.000 C 
ATOM     23  C   UNL     1       0.627  12.812  18.946  0.00  0.00    +0.000 A 
ATOM     24  N   UNL     1      -0.581  12.592  18.422  0.00  0.00    +0.000 NA
ATOM     25  S   UNL     1      -0.983  11.019  18.800  0.00  0.00    +0.000 S 
ATOM     26  C   UNL     1       0.481  10.735  19.652  0.00  0.00    +0.000 A 
ATOM     27  N   UNL     1       1.257  11.804  19.677  0.00  0.00    +0.000 NA
ENDBRANCH   1  26
TORSDOF 2
ENDMDL
MODEL 3
REMARK VINA RESULT:      -7.5      5.781      8.461
REMARK  Name = 
REMARK  4 active torsions:
REMARK  status: ('A' for Active; 'I' for Inactive)
REMARK    1  A    between atoms: C_1  and  C_2
REMARK    2  A    between atoms: C_5  and  C_6
REMARK    3  A    between atoms: C_14  and  C_16
REMARK    4  A    between atoms: C_25  and  C_26
REMARK                            x       y       z     vdW  Elec       q    Type
REMARK                         _______ _______ _______ _____ _____    ______ ____
ROOT
ATOM      1  C   UNL     1       6.398   4.355  13.898  0.00  0.00    +0.000 A 
ATOM      2  N   UNL     1       7.605   4.886  13.896  0.00  0.00    +0.000 NA
ATOM      3  N   UNL     1       7.808   5.521  15.097  0.00  0.00    +0.000 NA
ATOM      4  C   UNL     1       6.724   5.365  15.820  0.00  0.00    +0.000 A 
ATOM      5  N   UNL     1       5.812   4.635  15.103  0.00  0.00    +0.000 N 
ATOM      6  C   UNL     1       4.547   4.193  15.622  0.00  0.00    +0.000 C 
ATOM      7  C   UNL     1       4.171   4.908  16.919  0.00  0.00    +0.000 C 
ATOM      8  N   UNL     1       5.320   5.155  17.807  0.00  0.00    +0.000 N 
ATOM      9  C   UNL     1       5.390   4.900  19.183  0.00  0.00    +0.000 C 
ATOM     10  O   UNL     1       6.419   5.081  19.835  0.00  0.00    +0.000 OA
ATOM     11  C   UNL     1       6.461   5.880  17.203  0.00  0.00    +0.000 C 
ATOM     12  C   UNL     1       6.194   7.388  17.168  0.00  0.00    +0.000 C 
ENDROOT
BRANCH   9  13
ATOM     13  C   UNL     1       4.228   4.366  19.929  0.00  0.00    +0.000 A 
ATOM     14  C   UNL     1       3.078   5.164  20.049  0.00  0.00    +0.000 A 
ATOM     15  C   UNL     1       1.982   4.696  20.774  0.00  0.00    +0.000 A 
ATOM     16  F   UNL     1       0.892   5.466  20.885  0.00  0.00    +0.000 F 
ATOM     17  C   UNL     1       2.020   3.455  21.390  0.00  0.00    +0.000 A 
ATOM     18  F   UNL     1       0.989   3.033  22.136  0.00  0.00    +0.000 F 
ATOM     19  C   UNL     1       3.135   2.646  21.222  0.00  0.00    +0.000 A 
ATOM     20  F   UNL     1       3.197   1.447  21.817  0.00  0.00    +0.000 F 
ATOM     21  C   UNL     1       4.216   3.072  20.457  0.00  0.00    +0.000 A 
ENDBRANCH   9  13
BRANCH   1  26
ATOM     22  C   UNL     1       3.228   3.062  10.379  0.00  0.00    +0.000 C 
ATOM     23  C   UNL     1       4.455   2.988  11.211  0.00  0.00    +0.000 A 
ATOM     24  N   UNL     1       5.419   2.117  10.903  0.00  0.00    +0.000 NA
ATOM     25  S   UNL     1       6.656   2.376  11.989  0.00  0.00    +0.000 S 
ATOM     26  C   UNL     1       5.819   3.630  12.810  0.00  0.00    +0.000 A 
ATOM     27  N   UNL     1       4.620   3.846  12.299  0.00  0.00    +0.000 NA
ENDBRANCH   1  26
TORSDOF 2
ENDMDL
MODEL 4
REMARK VINA RESULT:      -7.5      5.775      8.515
REMARK  Name = 
REMARK  4 active torsions:
REMARK  status: ('A' for Active; 'I' for Inactive)
REMARK    1  A    between atoms: C_1  and  C_2
REMARK    2  A    between atoms: C_5  and  C_6
REMARK    3  A    between atoms: C_14  and  C_16
REMARK    4  A    between atoms: C_25  and  C_26
REMARK                            x       y       z     vdW  Elec       q    Type
REMARK                         _______ _______ _______ _____ _____    ______ ____
ROOT
ATOM      1  C   UNL     1       6.365   4.302  13.898  0.00  0.00    +0.000 A 
ATOM      2  N   UNL     1       7.592   4.784  13.897  0.00  0.00    +0.000 NA
ATOM      3  N   UNL     1       7.817   5.416  15.096  0.00  0.00    +0.000 NA
ATOM      4  C   UNL     1       6.725   5.307  15.815  0.00  0.00    +0.000 A 
ATOM      5  N   UNL     1       5.787   4.611  15.099  0.00  0.00    +0.000 N 
ATOM      6  C   UNL     1       4.504   4.222  15.616  0.00  0.00    +0.000 C 
ATOM      7  C   UNL     1       4.152   4.957  16.908  0.00  0.00    +0.000 C 
ATOM      8  N   UNL     1       5.307   5.163  17.799  0.00  0.00    +0.000 N 
ATOM      9  C   UNL     1       5.363   4.912  19.177  0.00  0.00    +0.000 C 
ATOM     10  O   UNL     1       6.396   5.055  19.831  0.00  0.00    +0.000 OA
ATOM     11  C   UNL     1       6.478   5.839  17.195  0.00  0.00    +0.000 C 
ATOM     12  C   UNL     1       6.271   7.356  17.153  0.00  0.00    +0.000 C 
ENDROOT
BRANCH   9  13
ATOM     13  C   UNL     1       4.178   4.428  19.921  0.00  0.00    +0.000 A 
ATOM     14  C   UNL     1       4.235   3.166  20.534  0.00  0.00    +0.000 A 
ATOM     15  C   UNL     1       3.120   2.674  21.214  0.00  0.00    +0.000 A 
ATOM     16  F   UNL     1       3.183   1.468  21.792  0.00  0.00    +0.000 F 
ATOM     17  C   UNL     1       1.950   3.415  21.280  0.00  0.00    +0.000 A 
ATOM     18  F   UNL     1       0.861   2.916  21.883  0.00  0.00    +0.000 F 
ATOM     19  C   UNL     1       1.916   4.685  20.723  0.00  0.00    +0.000 A 
ATOM     20  F   UNL     1       0.792   5.414  20.767  0.00  0.00    +0.000 F 
ATOM     21  C   UNL     1       3.035   5.215  20.088  0.00  0.00    +0.000 A 
ENDBRANCH   9  13
BRANCH   1  26
ATOM     22  C   UNL     1       3.179   3.143  10.347  0.00  0.00    +0.000 C 
ATOM     23  C   UNL     1       4.386   3.010  11.199  0.00  0.00    +0.000 A 
ATOM     24  N   UNL     1       5.301   2.079  10.919  0.00  0.00    +0.000 NA
ATOM     25  S   UNL     1       6.536   2.282  12.022  0.00  0.00    +0.000 S 
ATOM     26  C   UNL     1       5.761   3.596  12.811  0.00  0.00    +0.000 A 
ATOM     27  N   UNL     1       4.585   3.873  12.278  0.00  0.00    +0.000 NA
ENDBRANCH   1  26
TORSDOF 2
ENDMDL
MODEL 5
REMARK VINA RESULT:      -7.3      0.974      1.041
REMARK  Name = 
REMARK  4 active torsions:
REMARK  status: ('A' for Active; 'I' for Inactive)
REMARK    1  A    between atoms: C_1  and  C_2
REMARK    2  A    between atoms: C_5  and  C_6
REMARK    3  A    between atoms: C_14  and  C_16
REMARK    4  A    between atoms: C_25  and  C_26
REMARK                            x       y       z     vdW  Elec       q    Type
REMARK                         _______ _______ _______ _____ _____    ______ ____
ROOT
ATOM      1  C   UNL     1       0.856   9.676  20.249  0.00  0.00    +0.000 A 
ATOM      2  N   UNL     1       0.497   9.334  21.471  0.00  0.00    +0.000 NA
ATOM      3  N   UNL     1       0.887   8.037  21.697  0.00  0.00    +0.000 NA
ATOM      4  C   UNL     1       1.485   7.605  20.611  0.00  0.00    +0.000 A 
ATOM      5  N   UNL     1       1.489   8.606  19.675  0.00  0.00    +0.000 N 
ATOM      6  C   UNL     1       2.145   8.516  18.401  0.00  0.00    +0.000 C 
ATOM      7  C   UNL     1       2.535   7.081  18.050  0.00  0.00    +0.000 C 
ATOM      8  N   UNL     1       3.000   6.299  19.209  0.00  0.00    +0.000 N 
ATOM      9  C   UNL     1       4.146   5.496  19.277  0.00  0.00    +0.000 C 
ATOM     10  O   UNL     1       4.491   4.926  20.313  0.00  0.00    +0.000 OA
ATOM     11  C   UNL     1       2.079   6.250  20.368  0.00  0.00    +0.000 C 
ATOM     12  C   UNL     1       0.973   5.215  20.144  0.00  0.00    +0.000 C 
ENDROOT
BRANCH   9  13
ATOM     13  C   UNL     1       5.028   5.309  18.103  0.00  0.00    +0.000 A 
ATOM     14  C   UNL     1       6.309   4.769  18.300  0.00  0.00    +0.000 A 
ATOM     15  C   UNL     1       7.171   4.614  17.214  0.00  0.00    +0.000 A 
ATOM     16  F   UNL     1       8.392   4.100  17.413  0.00  0.00    +0.000 F 
ATOM     17  C   UNL     1       6.780   4.999  15.941  0.00  0.00    +0.000 A 
ATOM     18  F   UNL     1       7.631   4.905  14.909  0.00  0.00    +0.000 F 
ATOM     19  C   UNL     1       5.494   5.479  15.740  0.00  0.00    +0.000 A 
ATOM     20  F   UNL     1       5.098   5.868  14.520  0.00  0.00    +0.000 F 
ATOM     21  C   UNL     1       4.601   5.591  16.802  0.00  0.00    +0.000 A 
ENDBRANCH   9  13
BRANCH   1  26
ATOM     22  C   UNL     1       1.596  14.262  18.657  0.00  0.00    +0.000 C 
ATOM     23  C   UNL     1       0.853  13.000  18.899  0.00  0.00    +0.000 A 
ATOM     24  N   UNL     1      -0.361  12.828  18.371  0.00  0.00    +0.000 NA
ATOM     25  S   UNL     1      -0.841  11.285  18.779  0.00  0.00    +0.000 S 
ATOM     26  C   UNL     1       0.603  10.947  19.645  0.00  0.00    +0.000 A 
ATOM     27  N   UNL     1       1.430  11.977  19.654  0.00  0.00    +0.000 NA
ENDBRANCH   1  26
TORSDOF 2
ENDMDL
MODEL 6
REMARK VINA RESULT:      -7.3      5.580      8.624
REMARK  Name = 
REMARK  4 active torsions:
REMARK  status: ('A' for Active; 'I' for Inactive)
REMARK    1  A    between atoms: C_1  and  C_2
REMARK    2  A    between atoms: C_5  and  C_6
REMARK    3  A    between atoms: C_14  and  C_16
REMARK    4  A    between atoms: C_25  and  C_26
REMARK                            x       y       z     vdW  Elec       q    Type
REMARK                         _______ _______ _______ _____ _____    ______ ____
ROOT
ATOM      1  C   UNL     1       6.479   4.340  13.941  0.00  0.00    +0.000 A 
ATOM      2  N   UNL     1       7.628   4.986  13.951  0.00  0.00    +0.000 NA
ATOM      3  N   UNL     1       7.731   5.682  15.130  0.00  0.00    +0.000 NA
ATOM      4  C   UNL     1       6.645   5.447  15.829  0.00  0.00    +0.000 A 
ATOM      5  N   UNL     1       5.831   4.605  15.118  0.00  0.00    +0.000 N 
ATOM      6  C   UNL     1       4.600   4.059  15.619  0.00  0.00    +0.000 C 
ATOM      7  C   UNL     1       4.116   4.781  16.876  0.00  0.00    +0.000 C 
ATOM      8  N   UNL     1       5.207   5.173  17.784  0.00  0.00    +0.000 N 
ATOM      9  C   UNL     1       5.260   4.977  19.171  0.00  0.00    +0.000 C 
ATOM     10  O   UNL     1       6.246   5.283  19.843  0.00  0.00    +0.000 OA
ATOM     11  C   UNL     1       6.291   5.984  17.183  0.00  0.00    +0.000 C 
ATOM     12  C   UNL     1       5.879   7.456  17.081  0.00  0.00    +0.000 C 
ENDROOT
BRANCH   9  13
ATOM     13  C   UNL     1       4.133   4.359  19.906  0.00  0.00    +0.000 A 
ATOM     14  C   UNL     1       2.916   5.056  19.985  0.00  0.00    +0.000 A 
ATOM     15  C   UNL     1       1.849   4.510  20.699  0.00  0.00    +0.000 A 
ATOM     16  F   UNL     1       0.694   5.183  20.771  0.00  0.00    +0.000 F 
ATOM     17  C   UNL     1       1.981   3.289  21.343  0.00  0.00    +0.000 A 
ATOM     18  F   UNL     1       0.975   2.795  22.078  0.00  0.00    +0.000 F 
ATOM     19  C   UNL     1       3.166   2.577  21.216  0.00  0.00    +0.000 A 
ATOM     20  F   UNL     1       3.319   1.401  21.839  0.00  0.00    +0.000 F 
ATOM     21  C   UNL     1       4.222   3.081  20.463  0.00  0.00    +0.000 A 
ENDBRANCH   9  13
BRANCH   1  26
ATOM     22  C   UNL     1       6.116   0.554  10.835  0.00  0.00    +0.000 C 
ATOM     23  C   UNL     1       5.774   1.865  11.441  0.00  0.00    +0.000 A 
ATOM     24  N   UNL     1       4.685   2.524  11.038  0.00  0.00    +0.000 NA
ATOM     25  S   UNL     1       4.581   3.892  11.985  0.00  0.00    +0.000 S 
ATOM     26  C   UNL     1       6.007   3.522  12.867  0.00  0.00    +0.000 A 
ATOM     27  N   UNL     1       6.572   2.402  12.452  0.00  0.00    +0.000 NA
ENDBRANCH   1  26
TORSDOF 2
ENDMDL
MODEL 7
REMARK VINA RESULT:      -7.2      0.929      1.023
REMARK  Name = 
REMARK  4 active torsions:
REMARK  status: ('A' for Active; 'I' for Inactive)
REMARK    1  A    between atoms: C_1  and  C_2
REMARK    2  A    between atoms: C_5  and  C_6
REMARK    3  A    between atoms: C_14  and  C_16
REMARK    4  A    between atoms: C_25  and  C_26
REMARK                            x       y       z     vdW  Elec       q    Type
REMARK                         _______ _______ _______ _____ _____    ______ ____
ROOT
ATOM      1  C   UNL     1       0.890   9.127  20.422  0.00  0.00    +0.000 A 
ATOM      2  N   UNL     1       0.539   8.667  21.607  0.00  0.00    +0.000 NA
ATOM      3  N   UNL     1       0.989   7.376  21.729  0.00  0.00    +0.000 NA
ATOM      4  C   UNL     1       1.615   7.064  20.619  0.00  0.00    +0.000 A 
ATOM      5  N   UNL     1       1.578   8.139  19.769  0.00  0.00    +0.000 N 
ATOM      6  C   UNL     1       2.249   8.186  18.500  0.00  0.00    +0.000 C 
ATOM      7  C   UNL     1       2.710   6.806  18.036  0.00  0.00    +0.000 C 
ATOM      8  N   UNL     1       3.203   5.954  19.131  0.00  0.00    +0.000 N 
ATOM      9  C   UNL     1       4.386   5.202  19.147  0.00  0.00    +0.000 C 
ATOM     10  O   UNL     1       4.750   4.566  20.136  0.00  0.00    +0.000 OA
ATOM     11  C   UNL     1       2.276   5.764  20.272  0.00  0.00    +0.000 C 
ATOM     12  C   UNL     1       1.223   4.700  19.949  0.00  0.00    +0.000 C 
ENDROOT
BRANCH   9  13
ATOM     13  C   UNL     1       5.285   5.157  17.971  0.00  0.00    +0.000 A 
ATOM     14  C   UNL     1       6.239   6.175  17.811  0.00  0.00    +0.000 A 
ATOM     15  C   UNL     1       7.077   6.172  16.696  0.00  0.00    +0.000 A 
ATOM     16  F   UNL     1       7.981   7.149  16.551  0.00  0.00    +0.000 F 
ATOM     17  C   UNL     1       6.969   5.179  15.734  0.00  0.00    +0.000 A 
ATOM     18  F   UNL     1       7.733   5.210  14.634  0.00  0.00    +0.000 F 
ATOM     19  C   UNL     1       6.065   4.143  15.924  0.00  0.00    +0.000 A 
ATOM     20  F   UNL     1       5.937   3.178  15.003  0.00  0.00    +0.000 F 
ATOM     21  C   UNL     1       5.259   4.100  17.058  0.00  0.00    +0.000 A 
ENDBRANCH   9  13
BRANCH   1  26
ATOM     22  C   UNL     1      -1.306  12.682  17.845  0.00  0.00    +0.000 C 
ATOM     23  C   UNL     1      -0.353  12.080  18.811  0.00  0.00    +0.000 A 
ATOM     24  N   UNL     1       0.416  12.866  19.567  0.00  0.00    +0.000 NA
ATOM     25  S   UNL     1       1.283  11.857  20.572  0.00  0.00    +0.000 S 
ATOM     26  C   UNL     1       0.581  10.430  19.923  0.00  0.00    +0.000 A 
ATOM     27  N   UNL     1      -0.275  10.694  18.952  0.00  0.00    +0.000 NA
ENDBRANCH   1  26
TORSDOF 2
ENDMDL
MODEL 8
REMARK VINA RESULT:      -7.1      5.550      8.657
REMARK  Name = 
REMARK  4 active torsions:
REMARK  status: ('A' for Active; 'I' for Inactive)
REMARK    1  A    between atoms: C_1  and  C_2
REMARK    2  A    between atoms: C_5  and  C_6
REMARK    3  A    between atoms: C_14  and  C_16
REMARK    4  A    between atoms: C_25  and  C_26
REMARK                            x       y       z     vdW  Elec       q    Type
REMARK                         _______ _______ _______ _____ _____    ______ ____
ROOT
ATOM      1  C   UNL     1       6.494   4.353  13.954  0.00  0.00    +0.000 A 
ATOM      2  N   UNL     1       7.655   4.977  13.966  0.00  0.00    +0.000 NA
ATOM      3  N   UNL     1       7.765   5.680  15.140  0.00  0.00    +0.000 NA
ATOM      4  C   UNL     1       6.671   5.471  15.835  0.00  0.00    +0.000 A 
ATOM      5  N   UNL     1       5.845   4.639  15.125  0.00  0.00    +0.000 N 
ATOM      6  C   UNL     1       4.601   4.121  15.625  0.00  0.00    +0.000 C 
ATOM      7  C   UNL     1       4.124   4.862  16.873  0.00  0.00    +0.000 C 
ATOM      8  N   UNL     1       5.218   5.240  17.784  0.00  0.00    +0.000 N 
ATOM      9  C   UNL     1       5.259   5.054  19.172  0.00  0.00    +0.000 C 
ATOM     10  O   UNL     1       6.247   5.346  19.847  0.00  0.00    +0.000 OA
ATOM     11  C   UNL     1       6.320   6.026  17.182  0.00  0.00    +0.000 C 
ATOM     12  C   UNL     1       5.937   7.505  17.067  0.00  0.00    +0.000 C 
ENDROOT
BRANCH   9  13
ATOM     13  C   UNL     1       4.116   4.463  19.906  0.00  0.00    +0.000 A 
ATOM     14  C   UNL     1       4.282   3.210  20.517  0.00  0.00    +0.000 A 
ATOM     15  C   UNL     1       3.210   2.618  21.186  0.00  0.00    +0.000 A 
ATOM     16  F   UNL     1       3.377   1.420  21.762  0.00  0.00    +0.000 F 
ATOM     17  C   UNL     1       1.977   3.249  21.244  0.00  0.00    +0.000 A 
ATOM     18  F   UNL     1       0.933   2.652  21.835  0.00  0.00    +0.000 F 
ATOM     19  C   UNL     1       1.834   4.513  20.688  0.00  0.00    +0.000 A 
ATOM     20  F   UNL     1       0.648   5.138  20.724  0.00  0.00    +0.000 F 
ATOM     21  C   UNL     1       2.906   5.143  20.064  0.00  0.00    +0.000 A 
ENDBRANCH   9  13
BRANCH   1  26
ATOM     22  C   UNL     1       6.117   0.580  10.836  0.00  0.00    +0.000 C 
ATOM     23  C   UNL     1       5.773   1.884  11.454  0.00  0.00    +0.000 A 
ATOM     24  N   UNL     1       4.671   2.534  11.072  0.00  0.00    +0.000 NA
ATOM     25  S   UNL     1       4.569   3.896  12.027  0.00  0.00    +0.000 S 
ATOM     26  C   UNL     1       6.013   3.536  12.885  0.00  0.00    +0.000 A 
ATOM     27  N   UNL     1       6.582   2.424  12.454  0.00  0.00    +0.000 NA
ENDBRANCH   1  26
TORSDOF 2
ENDMDL
MODEL 9
REMARK VINA RESULT:      -7.1      7.319     10.696
REMARK  Name = 
REMARK  4 active torsions:
REMARK  status: ('A' for Active; 'I' for Inactive)
REMARK    1  A    between atoms: C_1  and  C_2
REMARK    2  A    between atoms: C_5  and  C_6
REMARK    3  A    between atoms: C_14  and  C_16
REMARK    4  A    between atoms: C_25  and  C_26
REMARK                            x       y       z     vdW  Elec       q    Type
REMARK                         _______ _______ _______ _____ _____    ______ ____
ROOT
ATOM      1  C   UNL     1       0.380  10.008  21.156  0.00  0.00    +0.000 A 
ATOM      2  N   UNL     1       0.629   9.776  22.429  0.00  0.00    +0.000 NA
ATOM      3  N   UNL     1      -0.222  10.539  23.190  0.00  0.00    +0.000 NA
ATOM      4  C   UNL     1      -0.985  11.223  22.370  0.00  0.00    +0.000 A 
ATOM      5  N   UNL     1      -0.641  10.917  21.080  0.00  0.00    +0.000 N 
ATOM      6  C   UNL     1      -1.334  11.409  19.922  0.00  0.00    +0.000 C 
ATOM      7  C   UNL     1      -2.263  12.576  20.255  0.00  0.00    +0.000 C 
ATOM      8  N   UNL     1      -2.945  12.431  21.552  0.00  0.00    +0.000 N 
ATOM      9  C   UNL     1      -4.309  12.621  21.813  0.00  0.00    +0.000 C 
ATOM     10  O   UNL     1      -4.803  12.415  22.921  0.00  0.00    +0.000 OA
ATOM     11  C   UNL     1      -2.067  12.200  22.723  0.00  0.00    +0.000 C 
ATOM     12  C   UNL     1      -1.458  13.515  23.218  0.00  0.00    +0.000 C 
ENDROOT
BRANCH   9  13
ATOM     13  C   UNL     1      -5.243  13.058  20.750  0.00  0.00    +0.000 A 
ATOM     14  C   UNL     1      -5.937  12.081  20.018  0.00  0.00    +0.000 A 
ATOM     15  C   UNL     1      -6.798  12.466  18.990  0.00  0.00    +0.000 A 
ATOM     16  F   UNL     1      -7.453  11.527  18.296  0.00  0.00    +0.000 F 
ATOM     17  C   UNL     1      -6.967  13.806  18.675  0.00  0.00    +0.000 A 
ATOM     18  F   UNL     1      -7.749  14.170  17.649  0.00  0.00    +0.000 F 
ATOM     19  C   UNL     1      -6.325  14.771  19.437  0.00  0.00    +0.000 A 
ATOM     20  F   UNL     1      -6.466  16.071  19.144  0.00  0.00    +0.000 F 
ATOM     21  C   UNL     1      -5.504  14.408  20.501  0.00  0.00    +0.000 A 
ENDBRANCH   9  13
BRANCH   1  26
ATOM     22  C   UNL     1       2.737   6.644  18.467  0.00  0.00    +0.000 C 
ATOM     23  C   UNL     1       2.140   7.963  18.792  0.00  0.00    +0.000 A 
ATOM     24  N   UNL     1       2.076   8.915  17.859  0.00  0.00    +0.000 NA
ATOM     25  S   UNL     1       1.279  10.205  18.552  0.00  0.00    +0.000 S 
ATOM     26  C   UNL     1       1.079   9.410  20.061  0.00  0.00    +0.000 A 
ATOM     27  N   UNL     1       1.617   8.204  20.063  0.00  0.00    +0.000 NA
ENDBRANCH   1  26
TORSDOF 2
ENDMDL
