MODEL 1
REMARK VINA RESULT:      -7.5      0.000      0.000
REMARK  Name = 
REMARK  6 active torsions:
REMARK  status: ('A' for Active; 'I' for Inactive)
REMARK    1  A    between atoms: C_1  and  C_2
REMARK    2  A    between atoms: C_2  and  C_3
REMARK    3  A    between atoms: C_7  and  C_8
REMARK    4  A    between atoms: C_8  and  S_9
REMARK    5  A    between atoms: S_9  and  N_12
REMARK    6  A    between atoms: C_19  and  C_20
REMARK                            x       y       z     vdW  Elec       q    Type
REMARK                         _______ _______ _______ _____ _____    ______ ____
ROOT
ATOM      1  N   UNL     1      -0.796  10.593  20.519  0.00  0.00    +0.000 NA
ATOM      2  C   UNL     1      -0.790  10.125  19.083  0.00  0.00    +0.000 C 
ATOM      3  C   UNL     1       0.641   9.834  18.597  0.00  0.00    +0.000 C 
ATOM      4  N   UNL     1       1.207   8.815  19.484  0.00  0.00    +0.000 N 
ATOM      5  C   UNL     1       2.118   7.899  19.030  0.00  0.00    +0.000 A 
ATOM      6  C   UNL     1       2.952   8.183  17.958  0.00  0.00    +0.000 A 
ATOM      7  C   UNL     1       3.778   7.195  17.438  0.00  0.00    +0.000 A 
ATOM      8  C   UNL     1       3.754   5.922  18.003  0.00  0.00    +0.000 A 
ATOM      9  C   UNL     1       2.927   5.720  19.090  0.00  0.00    +0.000 A 
ATOM     10  N   UNL     1       2.133   6.683  19.619  0.00  0.00    +0.000 NA
ATOM     11  C   UNL     1       1.311   9.208  20.890  0.00  0.00    +0.000 C 
ATOM     12  C   UNL     1      -0.104   9.568  21.400  0.00  0.00    +0.000 C 
ENDROOT
BRANCH   8  13
ATOM     13  C   UNL     1       4.596   4.815  17.459  0.00  0.00    +0.000 C 
ATOM     14  F   UNL     1       3.940   4.039  16.548  0.00  0.00    +0.000 F 
ATOM     15  F   UNL     1       5.715   5.261  16.829  0.00  0.00    +0.000 F 
ATOM     16  F   UNL     1       5.023   3.962  18.430  0.00  0.00    +0.000 F 
ENDBRANCH   8  13
BRANCH   1  17
ATOM     17  S   UNL     1      -0.280  12.202  20.728  0.00  0.00    +0.000 S 
ATOM     18  O   UNL     1       0.399  12.592  19.506  0.00  0.00    +0.000 OA
ATOM     19  O   UNL     1       0.375  12.283  22.019  0.00  0.00    +0.000 OA
BRANCH  17  20
ATOM     20  C   UNL     1      -1.842  13.075  20.817  0.00  0.00    +0.000 C 
BRANCH  20  27
ATOM     21  C   UNL     1      -4.703  14.280  21.741  0.00  0.00    +0.000 C 
ATOM     22  C   UNL     1      -3.332  14.544  22.394  0.00  0.00    +0.000 C 
ATOM     23  C   UNL     1      -2.868  15.923  21.883  0.00  0.00    +0.000 C 
ATOM     24  C   UNL     1      -3.346  14.399  23.942  0.00  0.00    +0.000 C 
ATOM     25  C   UNL     1      -1.869  14.588  24.335  0.00  0.00    +0.000 C 
ATOM     26  C   UNL     1      -1.125  13.892  23.184  0.00  0.00    +0.000 C 
ATOM     27  C   UNL     1      -2.274  13.403  22.248  0.00  0.00    +0.000 C 
ATOM     28  C   UNL     1      -2.977  12.228  22.978  0.00  0.00    +0.000 C 
ATOM     29  F   UNL     1      -2.078  11.324  23.424  0.00  0.00    +0.000 F 
ATOM     30  C   UNL     1      -3.663  12.903  24.170  0.00  0.00    +0.000 C 
ENDBRANCH  20  27
ENDBRANCH  17  20
ENDBRANCH   1  17
TORSDOF 4
ENDMDL
MODEL 2
REMARK VINA RESULT:      -7.5      2.712      3.893
REMARK  Name = 
REMARK  6 active torsions:
REMARK  status: ('A' for Active; 'I' for Inactive)
REMARK    1  A    between atoms: C_1  and  C_2
REMARK    2  A    between atoms: C_2  and  C_3
REMARK    3  A    between atoms: C_7  and  C_8
REMARK    4  A    between atoms: C_8  and  S_9
REMARK    5  A    between atoms: S_9  and  N_12
REMARK    6  A    between atoms: C_19  and  C_20
REMARK                            x       y       z     vdW  Elec       q    Type
REMARK                         _______ _______ _______ _____ _____    ______ ____
ROOT
ATOM      1  N   UNL     1      -1.352  13.201  19.705  0.00  0.00    +0.000 NA
ATOM      2  C   UNL     1      -0.077  12.925  20.466  0.00  0.00    +0.000 C 
ATOM      3  C   UNL     1       0.095  11.420  20.740  0.00  0.00    +0.000 C 
ATOM      4  N   UNL     1       0.097  10.735  19.445  0.00  0.00    +0.000 N 
ATOM      5  C   UNL     1       0.821   9.591  19.244  0.00  0.00    +0.000 A 
ATOM      6  C   UNL     1       1.116   8.731  20.293  0.00  0.00    +0.000 A 
ATOM      7  C   UNL     1       1.956   7.644  20.086  0.00  0.00    +0.000 A 
ATOM      8  C   UNL     1       2.497   7.433  18.820  0.00  0.00    +0.000 A 
ATOM      9  C   UNL     1       2.131   8.307  17.816  0.00  0.00    +0.000 A 
ATOM     10  N   UNL     1       1.295   9.358  18.001  0.00  0.00    +0.000 NA
ATOM     11  C   UNL     1      -1.133  10.884  18.666  0.00  0.00    +0.000 C 
ATOM     12  C   UNL     1      -1.373  12.391  18.419  0.00  0.00    +0.000 C 
ENDROOT
BRANCH   8  13
ATOM     13  C   UNL     1       3.434   6.301  18.554  0.00  0.00    +0.000 C 
ATOM     14  F   UNL     1       2.819   5.213  18.008  0.00  0.00    +0.000 F 
ATOM     15  F   UNL     1       4.435   6.632  17.696  0.00  0.00    +0.000 F 
ATOM     16  F   UNL     1       4.039   5.853  19.688  0.00  0.00    +0.000 F 
ENDBRANCH   8  13
BRANCH   1  17
ATOM     17  S   UNL     1      -2.763  13.101  20.653  0.00  0.00    +0.000 S 
ATOM     18  O   UNL     1      -3.156  14.461  20.972  0.00  0.00    +0.000 OA
ATOM     19  O   UNL     1      -2.520  12.118  21.690  0.00  0.00    +0.000 OA
BRANCH  17  20
ATOM     20  C   UNL     1      -3.939  12.427  19.481  0.00  0.00    +0.000 C 
BRANCH  20  27
ATOM     21  C   UNL     1      -6.576  10.776  18.581  0.00  0.00    +0.000 C 
ATOM     22  C   UNL     1      -6.458  12.301  18.772  0.00  0.00    +0.000 C 
ATOM     23  C   UNL     1      -6.301  12.902  17.361  0.00  0.00    +0.000 C 
ATOM     24  C   UNL     1      -7.617  12.910  19.609  0.00  0.00    +0.000 C 
ATOM     25  C   UNL     1      -7.216  14.390  19.756  0.00  0.00    +0.000 C 
ATOM     26  C   UNL     1      -5.689  14.308  19.911  0.00  0.00    +0.000 C 
ATOM     27  C   UNL     1      -5.392  12.779  19.809  0.00  0.00    +0.000 C 
ATOM     28  C   UNL     1      -5.916  12.134  21.119  0.00  0.00    +0.000 C 
ATOM     29  F   UNL     1      -5.476  12.807  22.204  0.00  0.00    +0.000 F 
ATOM     30  C   UNL     1      -7.438  12.276  21.007  0.00  0.00    +0.000 C 
ENDBRANCH  20  27
ENDBRANCH  17  20
ENDBRANCH   1  17
TORSDOF 4
ENDMDL
MODEL 3
REMARK VINA RESULT:      -7.3      1.238      1.857
REMARK  Name = 
REMARK  6 active torsions:
REMARK  status: ('A' for Active; 'I' for Inactive)
REMARK    1  A    between atoms: C_1  and  C_2
REMARK    2  A    between atoms: C_2  and  C_3
REMARK    3  A    between atoms: C_7  and  C_8
REMARK    4  A    between atoms: C_8  and  S_9
REMARK    5  A    between atoms: S_9  and  N_12
REMARK    6  A    between atoms: C_19  and  C_20
REMARK                            x       y       z     vdW  Elec       q    Type
REMARK                         _______ _______ _______ _____ _____    ______ ____
ROOT
ATOM      1  N   UNL     1      -0.131  10.418  19.823  0.00  0.00    +0.000 NA
ATOM      2  C   UNL     1       0.115  10.165  18.355  0.00  0.00    +0.000 C 
ATOM      3  C   UNL     1       1.545   9.654  18.108  0.00  0.00    +0.000 C 
ATOM      4  N   UNL     1       1.712   8.425  18.888  0.00  0.00    +0.000 N 
ATOM      5  C   UNL     1       2.529   7.413  18.459  0.00  0.00    +0.000 A 
ATOM      6  C   UNL     1       3.618   7.665  17.636  0.00  0.00    +0.000 A 
ATOM      7  C   UNL     1       4.355   6.609  17.115  0.00  0.00    +0.000 A 
ATOM      8  C   UNL     1       3.985   5.303  17.424  0.00  0.00    +0.000 A 
ATOM      9  C   UNL     1       2.914   5.127  18.277  0.00  0.00    +0.000 A 
ATOM     10  N   UNL     1       2.201   6.150  18.809  0.00  0.00    +0.000 NA
ATOM     11  C   UNL     1       1.566   8.587  20.334  0.00  0.00    +0.000 C 
ATOM     12  C   UNL     1       0.158   9.157  20.621  0.00  0.00    +0.000 C 
ENDROOT
BRANCH   8  13
ATOM     13  C   UNL     1       4.722   4.133  16.860  0.00  0.00    +0.000 C 
ATOM     14  F   UNL     1       6.035   4.096  17.229  0.00  0.00    +0.000 F 
ATOM     15  F   UNL     1       4.195   2.940  17.245  0.00  0.00    +0.000 F 
ATOM     16  F   UNL     1       4.720   4.126  15.499  0.00  0.00    +0.000 F 
ENDBRANCH   8  13
BRANCH   1  17
ATOM     17  S   UNL     1       0.597  11.838  20.416  0.00  0.00    +0.000 S 
ATOM     18  O   UNL     1       1.742  12.113  19.569  0.00  0.00    +0.000 OA
ATOM     19  O   UNL     1       0.733  11.690  21.852  0.00  0.00    +0.000 OA
BRANCH  17  20
ATOM     20  C   UNL     1      -0.669  13.061  20.079  0.00  0.00    +0.000 C 
BRANCH  20  27
ATOM     21  C   UNL     1      -2.182  15.614  21.377  0.00  0.00    +0.000 C 
ATOM     22  C   UNL     1      -1.936  14.245  22.043  0.00  0.00    +0.000 C 
ATOM     23  C   UNL     1      -0.726  14.432  22.980  0.00  0.00    +0.000 C 
ATOM     24  C   UNL     1      -3.199  13.655  22.729  0.00  0.00    +0.000 C 
ATOM     25  C   UNL     1      -2.736  12.265  23.203  0.00  0.00    +0.000 C 
ATOM     26  C   UNL     1      -1.807  11.816  22.064  0.00  0.00    +0.000 C 
ATOM     27  C   UNL     1      -1.830  13.023  21.075  0.00  0.00    +0.000 C 
ATOM     28  C   UNL     1      -3.232  13.028  20.409  0.00  0.00    +0.000 C 
ATOM     29  F   UNL     1      -3.553  11.803  19.941  0.00  0.00    +0.000 F 
ATOM     30  C   UNL     1      -4.175  13.405  21.556  0.00  0.00    +0.000 C 
ENDBRANCH  20  27
ENDBRANCH  17  20
ENDBRANCH   1  17
TORSDOF 4
ENDMDL
MODEL 4
REMARK VINA RESULT:      -7.3      1.426      1.809
REMARK  Name = 
REMARK  6 active torsions:
REMARK  status: ('A' for Active; 'I' for Inactive)
REMARK    1  A    between atoms: C_1  and  C_2
REMARK    2  A    between atoms: C_2  and  C_3
REMARK    3  A    between atoms: C_7  and  C_8
REMARK    4  A    between atoms: C_8  and  S_9
REMARK    5  A    between atoms: S_9  and  N_12
REMARK    6  A    between atoms: C_19  and  C_20
REMARK                            x       y       z     vdW  Elec       q    Type
REMARK                         _______ _______ _______ _____ _____    ______ ____
ROOT
ATOM      1  N   UNL     1      -0.181  10.344  19.795  0.00  0.00    +0.000 NA
ATOM      2  C   UNL     1       0.068  10.086  18.328  0.00  0.00    +0.000 C 
ATOM      3  C   UNL     1       1.508   9.600  18.084  0.00  0.00    +0.000 C 
ATOM      4  N   UNL     1       1.699   8.380  18.871  0.00  0.00    +0.000 N 
ATOM      5  C   UNL     1       2.535   7.381  18.449  0.00  0.00    +0.000 A 
ATOM      6  C   UNL     1       3.618   7.649  17.624  0.00  0.00    +0.000 A 
ATOM      7  C   UNL     1       4.375   6.603  17.109  0.00  0.00    +0.000 A 
ATOM      8  C   UNL     1       4.030   5.292  17.427  0.00  0.00    +0.000 A 
ATOM      9  C   UNL     1       2.963   5.102  18.282  0.00  0.00    +0.000 A 
ATOM     10  N   UNL     1       2.231   6.115  18.808  0.00  0.00    +0.000 NA
ATOM     11  C   UNL     1       1.551   8.549  20.317  0.00  0.00    +0.000 C 
ATOM     12  C   UNL     1       0.132   9.095  20.601  0.00  0.00    +0.000 C 
ENDROOT
BRANCH   8  13
ATOM     13  C   UNL     1       4.789   4.132  16.871  0.00  0.00    +0.000 C 
ATOM     14  F   UNL     1       4.827   4.120  15.507  0.00  0.00    +0.000 F 
ATOM     15  F   UNL     1       6.085   4.103  17.279  0.00  0.00    +0.000 F 
ATOM     16  F   UNL     1       4.250   2.937  17.236  0.00  0.00    +0.000 F 
ENDBRANCH   8  13
BRANCH   1  17
ATOM     17  S   UNL     1       0.520  11.782  20.377  0.00  0.00    +0.000 S 
ATOM     18  O   UNL     1       1.431  12.255  19.352  0.00  0.00    +0.000 OA
ATOM     19  O   UNL     1       0.968  11.529  21.733  0.00  0.00    +0.000 OA
BRANCH  17  20
ATOM     20  C   UNL     1      -0.897  12.878  20.432  0.00  0.00    +0.000 C 
BRANCH  20  27
ATOM     21  C   UNL     1      -2.761  15.518  20.652  0.00  0.00    +0.000 C 
ATOM     22  C   UNL     1      -1.251  15.422  20.951  0.00  0.00    +0.000 C 
ATOM     23  C   UNL     1      -0.529  15.984  19.710  0.00  0.00    +0.000 C 
ATOM     24  C   UNL     1      -0.843  16.089  22.294  0.00  0.00    +0.000 C 
ATOM     25  C   UNL     1       0.656  15.762  22.418  0.00  0.00    +0.000 C 
ATOM     26  C   UNL     1       0.735  14.338  21.842  0.00  0.00    +0.000 C 
ATOM     27  C   UNL     1      -0.737  14.027  21.431  0.00  0.00    +0.000 C 
ATOM     28  C   UNL     1      -1.537  13.832  22.746  0.00  0.00    +0.000 C 
ATOM     29  F   UNL     1      -0.905  12.979  23.580  0.00  0.00    +0.000 F 
ATOM     30  C   UNL     1      -1.560  15.235  23.365  0.00  0.00    +0.000 C 
ENDBRANCH  20  27
ENDBRANCH  17  20
ENDBRANCH   1  17
TORSDOF 4
ENDMDL
MODEL 5
REMARK VINA RESULT:      -7.2      3.236      4.326
REMARK  Name = 
REMARK  6 active torsions:
REMARK  status: ('A' for Active; 'I' for Inactive)
REMARK    1  A    between atoms: C_1  and  C_2
REMARK    2  A    between atoms: C_2  and  C_3
REMARK    3  A    between atoms: C_7  and  C_8
REMARK    4  A    between atoms: C_8  and  S_9
REMARK    5  A    between atoms: S_9  and  N_12
REMARK    6  A    between atoms: C_19  and  C_20
REMARK                            x       y       z     vdW  Elec       q    Type
REMARK                         _______ _______ _______ _____ _____    ______ ____
ROOT
ATOM      1  N   UNL     1      -1.183  11.484  20.014  0.00  0.00    +0.000 NA
ATOM      2  C   UNL     1      -1.320  10.586  18.807  0.00  0.00    +0.000 C 
ATOM      3  C   UNL     1       0.058  10.179  18.255  0.00  0.00    +0.000 C 
ATOM      4  N   UNL     1       0.781   9.502  19.334  0.00  0.00    +0.000 N 
ATOM      5  C   UNL     1       1.682   8.505  19.073  0.00  0.00    +0.000 A 
ATOM      6  C   UNL     1       2.367   8.449  17.867  0.00  0.00    +0.000 A 
ATOM      7  C   UNL     1       3.180   7.361  17.578  0.00  0.00    +0.000 A 
ATOM      8  C   UNL     1       3.296   6.332  18.509  0.00  0.00    +0.000 A 
ATOM      9  C   UNL     1       2.615   6.471  19.703  0.00  0.00    +0.000 A 
ATOM     10  N   UNL     1       1.836   7.538  20.004  0.00  0.00    +0.000 NA
ATOM     11  C   UNL     1       1.028  10.322  20.521  0.00  0.00    +0.000 C 
ATOM     12  C   UNL     1      -0.334  10.801  21.073  0.00  0.00    +0.000 C 
ENDROOT
BRANCH   8  13
ATOM     13  C   UNL     1       4.128   5.123  18.232  0.00  0.00    +0.000 C 
ATOM     14  F   UNL     1       3.391   4.035  17.867  0.00  0.00    +0.000 F 
ATOM     15  F   UNL     1       5.026   5.317  17.230  0.00  0.00    +0.000 F 
ATOM     16  F   UNL     1       4.851   4.733  19.317  0.00  0.00    +0.000 F 
ENDBRANCH   8  13
BRANCH   1  17
ATOM     17  S   UNL     1      -0.737  13.085  19.643  0.00  0.00    +0.000 S 
ATOM     18  O   UNL     1      -1.604  13.955  20.414  0.00  0.00    +0.000 OA
ATOM     19  O   UNL     1      -0.649  13.187  18.200  0.00  0.00    +0.000 OA
BRANCH  17  20
ATOM     20  C   UNL     1       0.915  13.169  20.331  0.00  0.00    +0.000 C 
BRANCH  20  27
ATOM     21  C   UNL     1       3.833  14.178  21.313  0.00  0.00    +0.000 C 
ATOM     22  C   UNL     1       2.781  14.997  20.537  0.00  0.00    +0.000 C 
ATOM     23  C   UNL     1       2.075  15.889  21.578  0.00  0.00    +0.000 C 
ATOM     24  C   UNL     1       3.370  15.764  19.321  0.00  0.00    +0.000 C 
ATOM     25  C   UNL     1       2.130  16.392  18.657  0.00  0.00    +0.000 C 
ATOM     26  C   UNL     1       1.063  15.301  18.843  0.00  0.00    +0.000 C 
ATOM     27  C   UNL     1       1.819  14.178  19.619  0.00  0.00    +0.000 C 
ATOM     28  C   UNL     1       2.813  13.534  18.617  0.00  0.00    +0.000 C 
ATOM     29  F   UNL     1       2.200  13.217  17.456  0.00  0.00    +0.000 F 
ATOM     30  C   UNL     1       3.844  14.642  18.370  0.00  0.00    +0.000 C 
ENDBRANCH  20  27
ENDBRANCH  17  20
ENDBRANCH   1  17
TORSDOF 4
ENDMDL
MODEL 6
REMARK VINA RESULT:      -7.2      1.117      1.701
REMARK  Name = 
REMARK  6 active torsions:
REMARK  status: ('A' for Active; 'I' for Inactive)
REMARK    1  A    between atoms: C_1  and  C_2
REMARK    2  A    between atoms: C_2  and  C_3
REMARK    3  A    between atoms: C_7  and  C_8
REMARK    4  A    between atoms: C_8  and  S_9
REMARK    5  A    between atoms: S_9  and  N_12
REMARK    6  A    between atoms: C_19  and  C_20
REMARK                            x       y       z     vdW  Elec       q    Type
REMARK                         _______ _______ _______ _____ _____    ______ ____
ROOT
ATOM      1  N   UNL     1      -0.595   9.995  20.598  0.00  0.00    +0.000 NA
ATOM      2  C   UNL     1      -0.462   9.874  19.098  0.00  0.00    +0.000 C 
ATOM      3  C   UNL     1       0.999   9.618  18.687  0.00  0.00    +0.000 C 
ATOM      4  N   UNL     1       1.434   8.389  19.355  0.00  0.00    +0.000 N 
ATOM      5  C   UNL     1       2.352   7.551  18.780  0.00  0.00    +0.000 A 
ATOM      6  C   UNL     1       3.300   8.026  17.884  0.00  0.00    +0.000 A 
ATOM      7  C   UNL     1       4.137   7.138  17.221  0.00  0.00    +0.000 A 
ATOM      8  C   UNL     1       4.010   5.772  17.464  0.00  0.00    +0.000 A 
ATOM      9  C   UNL     1       3.071   5.374  18.395  0.00  0.00    +0.000 A 
ATOM     10  N   UNL     1       2.264   6.234  19.063  0.00  0.00    +0.000 NA
ATOM     11  C   UNL     1       1.411   8.440  20.817  0.00  0.00    +0.000 C 
ATOM     12  C   UNL     1      -0.033   8.754  21.270  0.00  0.00    +0.000 C 
ENDROOT
BRANCH   8  13
ATOM     13  C   UNL     1       4.861   4.774  16.751  0.00  0.00    +0.000 C 
ATOM     14  F   UNL     1       5.204   5.164  15.490  0.00  0.00    +0.000 F 
ATOM     15  F   UNL     1       6.032   4.521  17.393  0.00  0.00    +0.000 F 
ATOM     16  F   UNL     1       4.239   3.571  16.610  0.00  0.00    +0.000 F 
ENDBRANCH   8  13
BRANCH   1  17
ATOM     17  S   UNL     1      -0.044  11.478  21.227  0.00  0.00    +0.000 S 
ATOM     18  O   UNL     1       1.179  11.810  20.520  0.00  0.00    +0.000 OA
ATOM     19  O   UNL     1      -0.081  11.377  22.672  0.00  0.00    +0.000 OA
BRANCH  17  20
ATOM     20  C   UNL     1      -1.334  12.600  20.692  0.00  0.00    +0.000 C 
BRANCH  20  27
ATOM     21  C   UNL     1      -3.036  12.228  23.423  0.00  0.00    +0.000 C 
ATOM     22  C   UNL     1      -2.979  13.484  22.530  0.00  0.00    +0.000 C 
ATOM     23  C   UNL     1      -4.263  13.466  21.678  0.00  0.00    +0.000 C 
ATOM     24  C   UNL     1      -2.750  14.799  23.327  0.00  0.00    +0.000 C 
ATOM     25  C   UNL     1      -2.615  15.868  22.226  0.00  0.00    +0.000 C 
ATOM     26  C   UNL     1      -1.851  15.117  21.124  0.00  0.00    +0.000 C 
ATOM     27  C   UNL     1      -1.659  13.687  21.720  0.00  0.00    +0.000 C 
ATOM     28  C   UNL     1      -0.609  13.813  22.855  0.00  0.00    +0.000 C 
ATOM     29  F   UNL     1       0.482  14.491  22.438  0.00  0.00    +0.000 F 
ATOM     30  C   UNL     1      -1.338  14.624  23.932  0.00  0.00    +0.000 C 
ENDBRANCH  20  27
ENDBRANCH  17  20
ENDBRANCH   1  17
TORSDOF 4
ENDMDL
MODEL 7
REMARK VINA RESULT:      -7.2      1.996      2.978
REMARK  Name = 
REMARK  6 active torsions:
REMARK  status: ('A' for Active; 'I' for Inactive)
REMARK    1  A    between atoms: C_1  and  C_2
REMARK    2  A    between atoms: C_2  and  C_3
REMARK    3  A    between atoms: C_7  and  C_8
REMARK    4  A    between atoms: C_8  and  S_9
REMARK    5  A    between atoms: S_9  and  N_12
REMARK    6  A    between atoms: C_19  and  C_20
REMARK                            x       y       z     vdW  Elec       q    Type
REMARK                         _______ _______ _______ _____ _____    ______ ____
ROOT
ATOM      1  N   UNL     1      -0.794  12.911  20.233  0.00  0.00    +0.000 NA
ATOM      2  C   UNL     1       0.434  12.431  20.970  0.00  0.00    +0.000 C 
ATOM      3  C   UNL     1       0.533  10.895  20.949  0.00  0.00    +0.000 C 
ATOM      4  N   UNL     1       0.565  10.477  19.545  0.00  0.00    +0.000 N 
ATOM      5  C   UNL     1       1.250   9.360  19.149  0.00  0.00    +0.000 A 
ATOM      6  C   UNL     1       1.464   8.299  20.017  0.00  0.00    +0.000 A 
ATOM      7  C   UNL     1       2.267   7.234  19.630  0.00  0.00    +0.000 A 
ATOM      8  C   UNL     1       2.855   7.248  18.368  0.00  0.00    +0.000 A 
ATOM      9  C   UNL     1       2.570   8.318  17.543  0.00  0.00    +0.000 A 
ATOM     10  N   UNL     1       1.770   9.352  17.902  0.00  0.00    +0.000 NA
ATOM     11  C   UNL     1      -0.622  10.834  18.767  0.00  0.00    +0.000 C 
ATOM     12  C   UNL     1      -0.791  12.370  18.814  0.00  0.00    +0.000 C 
ENDROOT
BRANCH   8  13
ATOM     13  C   UNL     1       3.756   6.146  17.918  0.00  0.00    +0.000 C 
ATOM     14  F   UNL     1       3.082   5.030  17.518  0.00  0.00    +0.000 F 
ATOM     15  F   UNL     1       4.543   6.500  16.868  0.00  0.00    +0.000 F 
ATOM     16  F   UNL     1       4.601   5.733  18.902  0.00  0.00    +0.000 F 
ENDBRANCH   8  13
BRANCH   1  17
ATOM     17  S   UNL     1      -2.248  12.696  21.092  0.00  0.00    +0.000 S 
ATOM     18  O   UNL     1      -1.956  11.815  22.207  0.00  0.00    +0.000 OA
ATOM     19  O   UNL     1      -3.281  12.379  20.125  0.00  0.00    +0.000 OA
BRANCH  17  20
ATOM     20  C   UNL     1      -2.539  14.345  21.729  0.00  0.00    +0.000 C 
BRANCH  20  27
ATOM     21  C   UNL     1      -3.497  16.759  23.666  0.00  0.00    +0.000 C 
ATOM     22  C   UNL     1      -3.972  15.293  23.708  0.00  0.00    +0.000 C 
ATOM     23  C   UNL     1      -3.197  14.621  24.859  0.00  0.00    +0.000 C 
ATOM     24  C   UNL     1      -5.517  15.146  23.797  0.00  0.00    +0.000 C 
ATOM     25  C   UNL     1      -5.740  13.625  23.705  0.00  0.00    +0.000 C 
ATOM     26  C   UNL     1      -4.661  13.189  22.700  0.00  0.00    +0.000 C 
ATOM     27  C   UNL     1      -3.927  14.521  22.350  0.00  0.00    +0.000 C 
ATOM     28  C   UNL     1      -4.904  15.355  21.481  0.00  0.00    +0.000 C 
ATOM     29  F   UNL     1      -5.415  14.615  20.474  0.00  0.00    +0.000 F 
ATOM     30  C   UNL     1      -6.022  15.735  22.459  0.00  0.00    +0.000 C 
ENDBRANCH  20  27
ENDBRANCH  17  20
ENDBRANCH   1  17
TORSDOF 4
ENDMDL
MODEL 8
REMARK VINA RESULT:      -7.1      1.844      2.643
REMARK  Name = 
REMARK  6 active torsions:
REMARK  status: ('A' for Active; 'I' for Inactive)
REMARK    1  A    between atoms: C_1  and  C_2
REMARK    2  A    between atoms: C_2  and  C_3
REMARK    3  A    between atoms: C_7  and  C_8
REMARK    4  A    between atoms: C_8  and  S_9
REMARK    5  A    between atoms: S_9  and  N_12
REMARK    6  A    between atoms: C_19  and  C_20
REMARK                            x       y       z     vdW  Elec       q    Type
REMARK                         _______ _______ _______ _____ _____    ______ ____
ROOT
ATOM      1  N   UNL     1      -0.554  10.133  20.852  0.00  0.00    +0.000 NA
ATOM      2  C   UNL     1      -0.446  10.029  19.348  0.00  0.00    +0.000 C 
ATOM      3  C   UNL     1       0.996   9.716  18.912  0.00  0.00    +0.000 C 
ATOM      4  N   UNL     1       1.386   8.459  19.555  0.00  0.00    +0.000 N 
ATOM      5  C   UNL     1       2.258   7.591  18.954  0.00  0.00    +0.000 A 
ATOM      6  C   UNL     1       3.213   8.038  18.052  0.00  0.00    +0.000 A 
ATOM      7  C   UNL     1       4.001   7.124  17.364  0.00  0.00    +0.000 A 
ATOM      8  C   UNL     1       3.817   5.762  17.587  0.00  0.00    +0.000 A 
ATOM      9  C   UNL     1       2.874   5.390  18.525  0.00  0.00    +0.000 A 
ATOM     10  N   UNL     1       2.115   6.274  19.218  0.00  0.00    +0.000 NA
ATOM     11  C   UNL     1       1.385   8.487  21.017  0.00  0.00    +0.000 C 
ATOM     12  C   UNL     1      -0.038   8.858  21.496  0.00  0.00    +0.000 C 
ENDROOT
BRANCH   8  13
ATOM     13  C   UNL     1       4.613   4.738  16.847  0.00  0.00    +0.000 C 
ATOM     14  F   UNL     1       5.766   4.388  17.486  0.00  0.00    +0.000 F 
ATOM     15  F   UNL     1       3.931   3.579  16.648  0.00  0.00    +0.000 F 
ATOM     16  F   UNL     1       4.992   5.170  15.613  0.00  0.00    +0.000 F 
ENDBRANCH   8  13
BRANCH   1  17
ATOM     17  S   UNL     1       0.072  11.580  21.495  0.00  0.00    +0.000 S 
ATOM     18  O   UNL     1       1.503  11.564  21.260  0.00  0.00    +0.000 OA
ATOM     19  O   UNL     1      -0.477  11.734  22.828  0.00  0.00    +0.000 OA
BRANCH  17  20
ATOM     20  C   UNL     1      -0.670  12.805  20.419  0.00  0.00    +0.000 C 
BRANCH  20  27
ATOM     21  C   UNL     1      -0.231  15.454  18.607  0.00  0.00    +0.000 C 
ATOM     22  C   UNL     1       0.339  15.189  20.015  0.00  0.00    +0.000 C 
ATOM     23  C   UNL     1       1.805  14.756  19.812  0.00  0.00    +0.000 C 
ATOM     24  C   UNL     1       0.146  16.380  20.994  0.00  0.00    +0.000 C 
ATOM     25  C   UNL     1       0.678  15.836  22.333  0.00  0.00    +0.000 C 
ATOM     26  C   UNL     1       0.221  14.368  22.302  0.00  0.00    +0.000 C 
ATOM     27  C   UNL     1      -0.503  14.239  20.925  0.00  0.00    +0.000 C 
ATOM     28  C   UNL     1      -1.837  15.023  21.048  0.00  0.00    +0.000 C 
ATOM     29  F   UNL     1      -2.508  14.673  22.167  0.00  0.00    +0.000 F 
ATOM     30  C   UNL     1      -1.388  16.484  21.152  0.00  0.00    +0.000 C 
ENDBRANCH  20  27
ENDBRANCH  17  20
ENDBRANCH   1  17
TORSDOF 4
ENDMDL
MODEL 9
REMARK VINA RESULT:      -7.1      1.226      2.154
REMARK  Name = 
REMARK  6 active torsions:
REMARK  status: ('A' for Active; 'I' for Inactive)
REMARK    1  A    between atoms: C_1  and  C_2
REMARK    2  A    between atoms: C_2  and  C_3
REMARK    3  A    between atoms: C_7  and  C_8
REMARK    4  A    between atoms: C_8  and  S_9
REMARK    5  A    between atoms: S_9  and  N_12
REMARK    6  A    between atoms: C_19  and  C_20
REMARK                            x       y       z     vdW  Elec       q    Type
REMARK                         _______ _______ _______ _____ _____    ______ ____
ROOT
ATOM      1  N   UNL     1      -0.798  10.965  21.209  0.00  0.00    +0.000 NA
ATOM      2  C   UNL     1      -1.016  10.431  19.813  0.00  0.00    +0.000 C 
ATOM      3  C   UNL     1       0.322  10.116  19.121  0.00  0.00    +0.000 C 
ATOM      4  N   UNL     1       1.029   9.140  19.954  0.00  0.00    +0.000 N 
ATOM      5  C   UNL     1       1.863   8.204  19.404  0.00  0.00    +0.000 A 
ATOM      6  C   UNL     1       2.515   8.437  18.201  0.00  0.00    +0.000 A 
ATOM      7  C   UNL     1       3.256   7.425  17.603  0.00  0.00    +0.000 A 
ATOM      8  C   UNL     1       3.331   6.180  18.223  0.00  0.00    +0.000 A 
ATOM      9  C   UNL     1       2.688   6.031  19.435  0.00  0.00    +0.000 A 
ATOM     10  N   UNL     1       1.981   7.017  20.038  0.00  0.00    +0.000 NA
ATOM     11  C   UNL     1       1.352   9.599  21.305  0.00  0.00    +0.000 C 
ATOM     12  C   UNL     1       0.033   9.983  22.016  0.00  0.00    +0.000 C 
ENDROOT
BRANCH   8  13
ATOM     13  C   UNL     1       4.084   5.049  17.604  0.00  0.00    +0.000 C 
ATOM     14  F   UNL     1       4.785   4.310  18.511  0.00  0.00    +0.000 F 
ATOM     15  F   UNL     1       3.277   4.169  16.953  0.00  0.00    +0.000 F 
ATOM     16  F   UNL     1       4.997   5.474  16.689  0.00  0.00    +0.000 F 
ENDBRANCH   8  13
BRANCH   1  17
ATOM     17  S   UNL     1      -0.267  12.583  21.259  0.00  0.00    +0.000 S 
ATOM     18  O   UNL     1      -0.827  13.248  20.098  0.00  0.00    +0.000 OA
ATOM     19  O   UNL     1       1.162  12.563  21.506  0.00  0.00    +0.000 OA
BRANCH  17  20
ATOM     20  C   UNL     1      -1.099  13.192  22.723  0.00  0.00    +0.000 C 
BRANCH  20  27
ATOM     21  C   UNL     1      -3.110  14.543  24.874  0.00  0.00    +0.000 C 
ATOM     22  C   UNL     1      -3.501  13.732  23.622  0.00  0.00    +0.000 C 
ATOM     23  C   UNL     1      -3.854  12.315  24.118  0.00  0.00    +0.000 C 
ATOM     24  C   UNL     1      -4.605  14.411  22.766  0.00  0.00    +0.000 C 
ATOM     25  C   UNL     1      -4.730  13.487  21.540  0.00  0.00    +0.000 C 
ATOM     26  C   UNL     1      -3.274  13.058  21.296  0.00  0.00    +0.000 C 
ATOM     27  C   UNL     1      -2.485  13.775  22.436  0.00  0.00    +0.000 C 
ATOM     28  C   UNL     1      -2.472  15.287  22.088  0.00  0.00    +0.000 C 
ATOM     29  F   UNL     1      -2.087  15.490  20.809  0.00  0.00    +0.000 F 
ATOM     30  C   UNL     1      -3.935  15.709  22.259  0.00  0.00    +0.000 C 
ENDBRANCH  20  27
ENDBRANCH  17  20
ENDBRANCH   1  17
TORSDOF 4
ENDMDL
