MODEL 1
REMARK VINA RESULT:      -7.4      0.000      0.000
REMARK  Name = 
REMARK  5 active torsions:
REMARK  status: ('A' for Active; 'I' for Inactive)
REMARK    1  A    between atoms: C_1  and  N_2
REMARK    2  A    between atoms: C_6  and  C_7
REMARK    3  A    between atoms: C_6  and  C_8
REMARK    4  A    between atoms: C_8  and  C_9
REMARK    5  A    between atoms: C_9  and  C_10
REMARK                            x       y       z     vdW  Elec       q    Type
REMARK                         _______ _______ _______ _____ _____    ______ ____
ROOT
ATOM      1  C   UNL     1       8.109   6.811  18.629  0.00  0.00    +0.000 C 
ATOM      2  N   UNL     1       7.219   6.160  17.679  0.00  0.00    +0.000 N 
ATOM      3  C   UNL     1       6.262   6.943  17.064  0.00  0.00    +0.000 C 
ATOM      4  O   UNL     1       6.102   8.141  17.312  0.00  0.00    +0.000 OA
ATOM      5  C   UNL     1       5.462   6.311  15.963  0.00  0.00    +0.000 C 
ATOM      6  C   UNL     1       5.413   4.789  15.972  0.00  0.00    +0.000 C 
ATOM      7  C   UNL     1       5.482   4.307  14.505  0.00  0.00    +0.000 C 
ATOM      8  N   UNL     1       6.557   4.168  16.630  0.00  0.00    +0.000 NA
ATOM      9  C   UNL     1       7.355   4.820  17.394  0.00  0.00    +0.000 C 
ATOM     10  N   UNL     1       8.374   4.102  17.936  0.00  0.00    +0.000 N 
ATOM     11  H   UNL     1       8.243   3.100  17.855  0.00  0.00    +0.000 HD
ATOM     12  H   UNL     1       8.827   4.404  18.784  0.00  0.00    +0.000 HD
ENDROOT
BRANCH   6  13
ATOM     13  C   UNL     1       4.112   4.214  16.595  0.00  0.00    +0.000 C 
BRANCH  13  14
ATOM     14  C   UNL     1       3.408   5.140  17.595  0.00  0.00    +0.000 C 
BRANCH  14  15
ATOM     15  C   UNL     1       2.422   4.423  18.493  0.00  0.00    +0.000 A 
ATOM     16  C   UNL     1       1.852   3.197  18.118  0.00  0.00    +0.000 A 
ATOM     17  C   UNL     1       0.972   2.525  18.971  0.00  0.00    +0.000 A 
ATOM     18  C   UNL     1       0.655   3.070  20.215  0.00  0.00    +0.000 A 
ATOM     19  C   UNL     1       1.218   4.284  20.602  0.00  0.00    +0.000 A 
ATOM     20  C   UNL     1       2.090   4.959  19.750  0.00  0.00    +0.000 A 
ENDBRANCH  14  15
ENDBRANCH  13  14
ENDBRANCH   6  13
TORSDOF 3
ENDMDL
MODEL 2
REMARK VINA RESULT:      -7.3      2.505      3.593
REMARK  Name = 
REMARK  5 active torsions:
REMARK  status: ('A' for Active; 'I' for Inactive)
REMARK    1  A    between atoms: C_1  and  N_2
REMARK    2  A    between atoms: C_6  and  C_7
REMARK    3  A    between atoms: C_6  and  C_8
REMARK    4  A    between atoms: C_8  and  C_9
REMARK    5  A    between atoms: C_9  and  C_10
REMARK                            x       y       z     vdW  Elec       q    Type
REMARK                         _______ _______ _______ _____ _____    ______ ____
ROOT
ATOM      1  C   UNL     1       7.257   7.030  17.415  0.00  0.00    +0.000 C 
ATOM      2  N   UNL     1       6.195   6.044  17.550  0.00  0.00    +0.000 N 
ATOM      3  C   UNL     1       5.324   5.898  16.488  0.00  0.00    +0.000 C 
ATOM      4  O   UNL     1       5.378   6.585  15.465  0.00  0.00    +0.000 OA
ATOM      5  C   UNL     1       4.340   4.767  16.558  0.00  0.00    +0.000 C 
ATOM      6  C   UNL     1       4.052   4.227  17.953  0.00  0.00    +0.000 C 
ATOM      7  C   UNL     1       3.915   2.692  17.845  0.00  0.00    +0.000 C 
ATOM      8  N   UNL     1       5.137   4.446  18.903  0.00  0.00    +0.000 NA
ATOM      9  C   UNL     1       6.093   5.274  18.686  0.00  0.00    +0.000 C 
ATOM     10  N   UNL     1       7.029   5.367  19.667  0.00  0.00    +0.000 N 
ATOM     11  H   UNL     1       6.734   4.946  20.541  0.00  0.00    +0.000 HD
ATOM     12  H   UNL     1       7.597   6.194  19.764  0.00  0.00    +0.000 HD
ENDROOT
BRANCH   6  13
ATOM     13  C   UNL     1       2.737   4.775  18.570  0.00  0.00    +0.000 C 
BRANCH  13  14
ATOM     14  C   UNL     1       2.926   5.790  19.706  0.00  0.00    +0.000 C 
BRANCH  14  15
ATOM     15  C   UNL     1       2.290   7.135  19.427  0.00  0.00    +0.000 A 
ATOM     16  C   UNL     1       1.652   7.864  20.442  0.00  0.00    +0.000 A 
ATOM     17  C   UNL     1       1.100   9.121  20.183  0.00  0.00    +0.000 A 
ATOM     18  C   UNL     1       1.185   9.669  18.903  0.00  0.00    +0.000 A 
ATOM     19  C   UNL     1       1.820   8.958  17.887  0.00  0.00    +0.000 A 
ATOM     20  C   UNL     1       2.365   7.701  18.142  0.00  0.00    +0.000 A 
ENDBRANCH  14  15
ENDBRANCH  13  14
ENDBRANCH   6  13
TORSDOF 3
ENDMDL
MODEL 3
REMARK VINA RESULT:      -7.2      2.527      5.800
REMARK  Name = 
REMARK  5 active torsions:
REMARK  status: ('A' for Active; 'I' for Inactive)
REMARK    1  A    between atoms: C_1  and  N_2
REMARK    2  A    between atoms: C_6  and  C_7
REMARK    3  A    between atoms: C_6  and  C_8
REMARK    4  A    between atoms: C_8  and  C_9
REMARK    5  A    between atoms: C_9  and  C_10
REMARK                            x       y       z     vdW  Elec       q    Type
REMARK                         _______ _______ _______ _____ _____    ______ ____
ROOT
ATOM      1  C   UNL     1       2.519   3.730  20.520  0.00  0.00    +0.000 C 
ATOM      2  N   UNL     1       3.484   4.386  19.651  0.00  0.00    +0.000 N 
ATOM      3  C   UNL     1       3.229   5.695  19.290  0.00  0.00    +0.000 C 
ATOM      4  O   UNL     1       2.214   6.308  19.630  0.00  0.00    +0.000 OA
ATOM      5  C   UNL     1       4.305   6.422  18.539  0.00  0.00    +0.000 C 
ATOM      6  C   UNL     1       5.320   5.542  17.820  0.00  0.00    +0.000 C 
ATOM      7  C   UNL     1       6.708   6.205  17.970  0.00  0.00    +0.000 C 
ATOM      8  N   UNL     1       5.467   4.215  18.407  0.00  0.00    +0.000 NA
ATOM      9  C   UNL     1       4.618   3.726  19.236  0.00  0.00    +0.000 C 
ATOM     10  N   UNL     1       4.893   2.476  19.695  0.00  0.00    +0.000 N 
ATOM     11  H   UNL     1       5.606   1.999  19.153  0.00  0.00    +0.000 HD
ATOM     12  H   UNL     1       4.161   1.881  20.049  0.00  0.00    +0.000 HD
ENDROOT
BRANCH   6  13
ATOM     13  C   UNL     1       5.036   5.382  16.302  0.00  0.00    +0.000 C 
BRANCH  13  14
ATOM     14  C   UNL     1       5.461   4.035  15.701  0.00  0.00    +0.000 C 
BRANCH  14  15
ATOM     15  C   UNL     1       6.156   4.162  14.363  0.00  0.00    +0.000 A 
ATOM     16  C   UNL     1       5.744   3.411  13.252  0.00  0.00    +0.000 A 
ATOM     17  C   UNL     1       6.368   3.564  12.012  0.00  0.00    +0.000 A 
ATOM     18  C   UNL     1       7.412   4.477  11.865  0.00  0.00    +0.000 A 
ATOM     19  C   UNL     1       7.829   5.233  12.957  0.00  0.00    +0.000 A 
ATOM     20  C   UNL     1       7.211   5.077  14.198  0.00  0.00    +0.000 A 
ENDBRANCH  14  15
ENDBRANCH  13  14
ENDBRANCH   6  13
TORSDOF 3
ENDMDL
MODEL 4
REMARK VINA RESULT:      -7.1      2.465      5.887
REMARK  Name = 
REMARK  5 active torsions:
REMARK  status: ('A' for Active; 'I' for Inactive)
REMARK    1  A    between atoms: C_1  and  N_2
REMARK    2  A    between atoms: C_6  and  C_7
REMARK    3  A    between atoms: C_6  and  C_8
REMARK    4  A    between atoms: C_8  and  C_9
REMARK    5  A    between atoms: C_9  and  C_10
REMARK                            x       y       z     vdW  Elec       q    Type
REMARK                         _______ _______ _______ _____ _____    ______ ____
ROOT
ATOM      1  C   UNL     1       1.942   3.999  19.361  0.00  0.00    +0.000 C 
ATOM      2  N   UNL     1       3.304   4.388  19.031  0.00  0.00    +0.000 N 
ATOM      3  C   UNL     1       3.479   5.581  18.356  0.00  0.00    +0.000 C 
ATOM      4  O   UNL     1       2.544   6.297  17.988  0.00  0.00    +0.000 OA
ATOM      5  C   UNL     1       4.888   6.064  18.169  0.00  0.00    +0.000 C 
ATOM      6  C   UNL     1       5.970   4.998  18.272  0.00  0.00    +0.000 C 
ATOM      7  C   UNL     1       7.178   5.623  19.008  0.00  0.00    +0.000 C 
ATOM      8  N   UNL     1       5.587   3.847  19.080  0.00  0.00    +0.000 NA
ATOM      9  C   UNL     1       4.370   3.604  19.408  0.00  0.00    +0.000 C 
ATOM     10  N   UNL     1       4.172   2.492  20.163  0.00  0.00    +0.000 N 
ATOM     11  H   UNL     1       4.974   1.871  20.179  0.00  0.00    +0.000 HD
ATOM     12  H   UNL     1       3.277   2.028  20.179  0.00  0.00    +0.000 HD
ENDROOT
BRANCH   6  13
ATOM     13  C   UNL     1       6.472   4.489  16.893  0.00  0.00    +0.000 C 
BRANCH  13  14
ATOM     14  C   UNL     1       5.441   4.566  15.759  0.00  0.00    +0.000 C 
BRANCH  14  15
ATOM     15  C   UNL     1       6.050   4.440  14.379  0.00  0.00    +0.000 A 
ATOM     16  C   UNL     1       7.218   5.136  14.030  0.00  0.00    +0.000 A 
ATOM     17  C   UNL     1       7.793   4.983  12.766  0.00  0.00    +0.000 A 
ATOM     18  C   UNL     1       7.209   4.126  11.834  0.00  0.00    +0.000 A 
ATOM     19  C   UNL     1       6.052   3.426  12.168  0.00  0.00    +0.000 A 
ATOM     20  C   UNL     1       5.473   3.582  13.426  0.00  0.00    +0.000 A 
ENDBRANCH  14  15
ENDBRANCH  13  14
ENDBRANCH   6  13
TORSDOF 3
ENDMDL
MODEL 5
REMARK VINA RESULT:      -7.1      2.647      3.868
REMARK  Name = 
REMARK  5 active torsions:
REMARK  status: ('A' for Active; 'I' for Inactive)
REMARK    1  A    between atoms: C_1  and  N_2
REMARK    2  A    between atoms: C_6  and  C_7
REMARK    3  A    between atoms: C_6  and  C_8
REMARK    4  A    between atoms: C_8  and  C_9
REMARK    5  A    between atoms: C_9  and  C_10
REMARK                            x       y       z     vdW  Elec       q    Type
REMARK                         _______ _______ _______ _____ _____    ______ ____
ROOT
ATOM      1  C   UNL     1       7.126   5.621  16.800  0.00  0.00    +0.000 C 
ATOM      2  N   UNL     1       6.005   4.911  17.396  0.00  0.00    +0.000 N 
ATOM      3  C   UNL     1       5.073   4.359  16.538  0.00  0.00    +0.000 C 
ATOM      4  O   UNL     1       5.125   4.477  15.311  0.00  0.00    +0.000 OA
ATOM      5  C   UNL     1       4.015   3.484  17.145  0.00  0.00    +0.000 C 
ATOM      6  C   UNL     1       3.760   3.691  18.632  0.00  0.00    +0.000 C 
ATOM      7  C   UNL     1       3.508   2.303  19.264  0.00  0.00    +0.000 C 
ATOM      8  N   UNL     1       4.903   4.235  19.355  0.00  0.00    +0.000 NA
ATOM      9  C   UNL     1       5.904   4.777  18.762  0.00  0.00    +0.000 C 
ATOM     10  N   UNL     1       6.892   5.240  19.572  0.00  0.00    +0.000 N 
ATOM     11  H   UNL     1       6.612   5.306  20.545  0.00  0.00    +0.000 HD
ATOM     12  H   UNL     1       7.522   5.962  19.262  0.00  0.00    +0.000 HD
ENDROOT
BRANCH   6  13
ATOM     13  C   UNL     1       2.520   4.576  18.931  0.00  0.00    +0.000 C 
BRANCH  13  14
ATOM     14  C   UNL     1       2.747   5.681  19.971  0.00  0.00    +0.000 C 
BRANCH  14  15
ATOM     15  C   UNL     1       2.280   7.047  19.514  0.00  0.00    +0.000 A 
ATOM     16  C   UNL     1       2.465   7.476  18.191  0.00  0.00    +0.000 A 
ATOM     17  C   UNL     1       1.997   8.723  17.770  0.00  0.00    +0.000 A 
ATOM     18  C   UNL     1       1.331   9.557  18.667  0.00  0.00    +0.000 A 
ATOM     19  C   UNL     1       1.136   9.142  19.983  0.00  0.00    +0.000 A 
ATOM     20  C   UNL     1       1.609   7.901  20.406  0.00  0.00    +0.000 A 
ENDBRANCH  14  15
ENDBRANCH  13  14
ENDBRANCH   6  13
TORSDOF 3
ENDMDL
MODEL 6
REMARK VINA RESULT:      -7.1      2.826      6.268
REMARK  Name = 
REMARK  5 active torsions:
REMARK  status: ('A' for Active; 'I' for Inactive)
REMARK    1  A    between atoms: C_1  and  N_2
REMARK    2  A    between atoms: C_6  and  C_7
REMARK    3  A    between atoms: C_6  and  C_8
REMARK    4  A    between atoms: C_8  and  C_9
REMARK    5  A    between atoms: C_9  and  C_10
REMARK                            x       y       z     vdW  Elec       q    Type
REMARK                         _______ _______ _______ _____ _____    ______ ____
ROOT
ATOM      1  C   UNL     1       1.270   2.489  19.300  0.00  0.00    +0.000 C 
ATOM      2  N   UNL     1       2.402   3.274  18.832  0.00  0.00    +0.000 N 
ATOM      3  C   UNL     1       2.164   4.201  17.834  0.00  0.00    +0.000 C 
ATOM      4  O   UNL     1       1.062   4.357  17.302  0.00  0.00    +0.000 OA
ATOM      5  C   UNL     1       3.289   5.126  17.474  0.00  0.00    +0.000 C 
ATOM      6  C   UNL     1       4.684   4.647  17.851  0.00  0.00    +0.000 C 
ATOM      7  C   UNL     1       5.488   5.874  18.338  0.00  0.00    +0.000 C 
ATOM      8  N   UNL     1       4.703   3.712  18.970  0.00  0.00    +0.000 NA
ATOM      9  C   UNL     1       3.649   3.112  19.389  0.00  0.00    +0.000 C 
ATOM     10  N   UNL     1       3.827   2.269  20.441  0.00  0.00    +0.000 N 
ATOM     11  H   UNL     1       4.802   2.046  20.613  0.00  0.00    +0.000 HD
ATOM     12  H   UNL     1       3.182   1.515  20.616  0.00  0.00    +0.000 HD
ENDROOT
BRANCH   6  13
ATOM     13  C   UNL     1       5.464   4.015  16.666  0.00  0.00    +0.000 C 
BRANCH  13  14
ATOM     14  C   UNL     1       6.494   4.938  16.002  0.00  0.00    +0.000 C 
BRANCH  14  15
ATOM     15  C   UNL     1       6.667   4.684  14.519  0.00  0.00    +0.000 A 
ATOM     16  C   UNL     1       7.649   5.354  13.774  0.00  0.00    +0.000 A 
ATOM     17  C   UNL     1       7.824   5.085  12.415  0.00  0.00    +0.000 A 
ATOM     18  C   UNL     1       7.020   4.136  11.783  0.00  0.00    +0.000 A 
ATOM     19  C   UNL     1       6.044   3.461  12.511  0.00  0.00    +0.000 A 
ATOM     20  C   UNL     1       5.863   3.733  13.866  0.00  0.00    +0.000 A 
ENDBRANCH  14  15
ENDBRANCH  13  14
ENDBRANCH   6  13
TORSDOF 3
ENDMDL
MODEL 7
REMARK VINA RESULT:      -7.0      3.121      5.122
REMARK  Name = 
REMARK  5 active torsions:
REMARK  status: ('A' for Active; 'I' for Inactive)
REMARK    1  A    between atoms: C_1  and  N_2
REMARK    2  A    between atoms: C_6  and  C_7
REMARK    3  A    between atoms: C_6  and  C_8
REMARK    4  A    between atoms: C_8  and  C_9
REMARK    5  A    between atoms: C_9  and  C_10
REMARK                            x       y       z     vdW  Elec       q    Type
REMARK                         _______ _______ _______ _____ _____    ______ ____
ROOT
ATOM      1  C   UNL     1       4.764   3.777  16.772  0.00  0.00    +0.000 C 
ATOM      2  N   UNL     1       3.867   3.672  17.913  0.00  0.00    +0.000 N 
ATOM      3  C   UNL     1       2.590   3.200  17.677  0.00  0.00    +0.000 C 
ATOM      4  O   UNL     1       2.170   2.910  16.554  0.00  0.00    +0.000 OA
ATOM      5  C   UNL     1       1.726   2.931  18.874  0.00  0.00    +0.000 C 
ATOM      6  C   UNL     1       2.123   3.657  20.152  0.00  0.00    +0.000 C 
ATOM      7  C   UNL     1       1.905   2.684  21.333  0.00  0.00    +0.000 C 
ATOM      8  N   UNL     1       3.536   4.014  20.211  0.00  0.00    +0.000 NA
ATOM      9  C   UNL     1       4.296   4.006  19.177  0.00  0.00    +0.000 C 
ATOM     10  N   UNL     1       5.589   4.365  19.392  0.00  0.00    +0.000 N 
ATOM     11  H   UNL     1       5.736   4.814  20.290  0.00  0.00    +0.000 HD
ATOM     12  H   UNL     1       6.160   4.723  18.642  0.00  0.00    +0.000 HD
ENDROOT
BRANCH   6  13
ATOM     13  C   UNL     1       1.280   4.931  20.430  0.00  0.00    +0.000 C 
BRANCH  13  14
ATOM     14  C   UNL     1       2.089   6.168  20.840  0.00  0.00    +0.000 C 
BRANCH  14  15
ATOM     15  C   UNL     1       1.994   7.309  19.849  0.00  0.00    +0.000 A 
ATOM     16  C   UNL     1       2.546   7.206  18.563  0.00  0.00    +0.000 A 
ATOM     17  C   UNL     1       2.420   8.250  17.644  0.00  0.00    +0.000 A 
ATOM     18  C   UNL     1       1.735   9.411  17.998  0.00  0.00    +0.000 A 
ATOM     19  C   UNL     1       1.178   9.526  19.269  0.00  0.00    +0.000 A 
ATOM     20  C   UNL     1       1.308   8.488  20.190  0.00  0.00    +0.000 A 
ENDBRANCH  14  15
ENDBRANCH  13  14
ENDBRANCH   6  13
TORSDOF 3
ENDMDL
MODEL 8
REMARK VINA RESULT:      -7.0      2.784      5.421
REMARK  Name = 
REMARK  5 active torsions:
REMARK  status: ('A' for Active; 'I' for Inactive)
REMARK    1  A    between atoms: C_1  and  N_2
REMARK    2  A    between atoms: C_6  and  C_7
REMARK    3  A    between atoms: C_6  and  C_8
REMARK    4  A    between atoms: C_8  and  C_9
REMARK    5  A    between atoms: C_9  and  C_10
REMARK                            x       y       z     vdW  Elec       q    Type
REMARK                         _______ _______ _______ _____ _____    ______ ____
ROOT
ATOM      1  C   UNL     1       3.884   1.338  18.096  0.00  0.00    +0.000 C 
ATOM      2  N   UNL     1       3.367   2.586  18.636  0.00  0.00    +0.000 N 
ATOM      3  C   UNL     1       2.416   3.256  17.891  0.00  0.00    +0.000 C 
ATOM      4  O   UNL     1       2.025   2.872  16.785  0.00  0.00    +0.000 OA
ATOM      5  C   UNL     1       1.761   4.448  18.525  0.00  0.00    +0.000 C 
ATOM      6  C   UNL     1       2.533   5.095  19.668  0.00  0.00    +0.000 C 
ATOM      7  C   UNL     1       1.509   5.524  20.744  0.00  0.00    +0.000 C 
ATOM      8  N   UNL     1       3.443   4.184  20.352  0.00  0.00    +0.000 NA
ATOM      9  C   UNL     1       3.796   3.055  19.856  0.00  0.00    +0.000 C 
ATOM     10  N   UNL     1       4.652   2.318  20.613  0.00  0.00    +0.000 N 
ATOM     11  H   UNL     1       5.083   2.851  21.362  0.00  0.00    +0.000 HD
ATOM     12  H   UNL     1       5.246   1.620  20.194  0.00  0.00    +0.000 HD
ENDROOT
BRANCH   6  13
ATOM     13  C   UNL     1       3.326   6.360  19.243  0.00  0.00    +0.000 C 
BRANCH  13  14
ATOM     14  C   UNL     1       3.704   6.420  17.757  0.00  0.00    +0.000 C 
BRANCH  14  15
ATOM     15  C   UNL     1       5.006   5.718  17.435  0.00  0.00    +0.000 A 
ATOM     16  C   UNL     1       5.219   5.111  16.188  0.00  0.00    +0.000 A 
ATOM     17  C   UNL     1       6.438   4.498  15.888  0.00  0.00    +0.000 A 
ATOM     18  C   UNL     1       7.465   4.490  16.832  0.00  0.00    +0.000 A 
ATOM     19  C   UNL     1       7.269   5.093  18.072  0.00  0.00    +0.000 A 
ATOM     20  C   UNL     1       6.051   5.699  18.376  0.00  0.00    +0.000 A 
ENDBRANCH  14  15
ENDBRANCH  13  14
ENDBRANCH   6  13
TORSDOF 3
ENDMDL
MODEL 9
REMARK VINA RESULT:      -7.0      0.990      1.314
REMARK  Name = 
REMARK  5 active torsions:
REMARK  status: ('A' for Active; 'I' for Inactive)
REMARK    1  A    between atoms: C_1  and  N_2
REMARK    2  A    between atoms: C_6  and  C_7
REMARK    3  A    between atoms: C_6  and  C_8
REMARK    4  A    between atoms: C_8  and  C_9
REMARK    5  A    between atoms: C_9  and  C_10
REMARK                            x       y       z     vdW  Elec       q    Type
REMARK                         _______ _______ _______ _____ _____    ______ ____
ROOT
ATOM      1  C   UNL     1       8.121   6.921  18.597  0.00  0.00    +0.000 C 
ATOM      2  N   UNL     1       7.184   6.226  17.727  0.00  0.00    +0.000 N 
ATOM      3  C   UNL     1       6.282   6.997  17.019  0.00  0.00    +0.000 C 
ATOM      4  O   UNL     1       6.208   8.224  17.123  0.00  0.00    +0.000 OA
ATOM      5  C   UNL     1       5.436   6.297  15.996  0.00  0.00    +0.000 C 
ATOM      6  C   UNL     1       5.280   4.794  16.185  0.00  0.00    +0.000 C 
ATOM      7  C   UNL     1       5.309   4.139  14.785  0.00  0.00    +0.000 C 
ATOM      8  N   UNL     1       6.379   4.176  16.917  0.00  0.00    +0.000 NA
ATOM      9  C   UNL     1       7.225   4.856  17.601  0.00  0.00    +0.000 C 
ATOM     10  N   UNL     1       8.193   4.137  18.229  0.00  0.00    +0.000 N 
ATOM     11  H   UNL     1       7.991   3.144  18.267  0.00  0.00    +0.000 HD
ATOM     12  H   UNL     1       8.669   4.504  19.038  0.00  0.00    +0.000 HD
ENDROOT
BRANCH   6  13
ATOM     13  C   UNL     1       3.944   4.390  16.865  0.00  0.00    +0.000 C 
BRANCH  13  14
ATOM     14  C   UNL     1       3.966   3.033  17.583  0.00  0.00    +0.000 C 
BRANCH  14  15
ATOM     15  C   UNL     1       3.036   2.964  18.775  0.00  0.00    +0.000 A 
ATOM     16  C   UNL     1       3.531   2.802  20.078  0.00  0.00    +0.000 A 
ATOM     17  C   UNL     1       2.667   2.778  21.175  0.00  0.00    +0.000 A 
ATOM     18  C   UNL     1       1.293   2.921  20.983  0.00  0.00    +0.000 A 
ATOM     19  C   UNL     1       0.788   3.088  19.696  0.00  0.00    +0.000 A 
ATOM     20  C   UNL     1       1.648   3.106  18.599  0.00  0.00    +0.000 A 
ENDBRANCH  14  15
ENDBRANCH  13  14
ENDBRANCH   6  13
TORSDOF 3
ENDMDL
