MODEL 1
REMARK VINA RESULT:      -7.2      0.000      0.000
REMARK  Name = 
REMARK  5 active torsions:
REMARK  status: ('A' for Active; 'I' for Inactive)
REMARK    1  A    between atoms: C_1  and  C_2
REMARK    2  A    between atoms: C_5  and  S_6
REMARK    3  A    between atoms: S_6  and  N_9
REMARK    4  A    between atoms: N_9  and  C_10
REMARK    5  A    between atoms: C_13  and  N_14
REMARK                            x       y       z     vdW  Elec       q    Type
REMARK                         _______ _______ _______ _____ _____    ______ ____
ROOT
ATOM      1  N   UNL     1       3.667   5.006  17.987  0.00  0.00    +0.000 N 
ATOM      2  H   UNL     1       3.760   6.021  17.924  0.00  0.00    +0.000 HD
ENDROOT
BRANCH   1   3
ATOM      3  C   UNL     1       2.636   4.563  18.858  0.00  0.00    +0.000 A 
ATOM      4  C   UNL     1       1.956   3.361  18.653  0.00  0.00    +0.000 A 
ATOM      5  C   UNL     1       1.348   2.712  19.739  0.00  0.00    +0.000 A 
ATOM      6  C   UNL     1       1.403   3.257  21.027  0.00  0.00    +0.000 A 
ATOM      7  C   UNL     1       2.050   4.480  21.205  0.00  0.00    +0.000 A 
ATOM      8  C   UNL     1       2.648   5.133  20.128  0.00  0.00    +0.000 A 
BRANCH   6   9
ATOM      9  N   UNL     1       1.089   2.474  22.143  0.00  0.00    +0.000 N 
ATOM     10  H   UNL     1       1.882   2.158  22.688  0.00  0.00    +0.000 HD
ATOM     11  H   UNL     1       0.401   1.746  21.979  0.00  0.00    +0.000 HD
ENDBRANCH   6   9
ENDBRANCH   1   3
BRANCH   1  12
ATOM     12  S   UNL     1       5.149   4.257  17.824  0.00  0.00    +0.000 S 
ATOM     13  O   UNL     1       5.184   3.507  16.594  0.00  0.00    +0.000 OA
ATOM     14  O   UNL     1       5.379   3.597  19.095  0.00  0.00    +0.000 OA
BRANCH  12  19
ATOM     15  C   UNL     1       8.579   9.201  18.272  0.00  0.00    +0.000 C 
ATOM     16  C   UNL     1       7.862   7.910  17.990  0.00  0.00    +0.000 A 
ATOM     17  C   UNL     1       6.823   7.855  17.051  0.00  0.00    +0.000 A 
ATOM     18  C   UNL     1       6.048   6.697  16.918  0.00  0.00    +0.000 A 
ATOM     19  C   UNL     1       6.319   5.590  17.730  0.00  0.00    +0.000 A 
ATOM     20  C   UNL     1       7.388   5.612  18.623  0.00  0.00    +0.000 A 
ATOM     21  C   UNL     1       8.154   6.773  18.755  0.00  0.00    +0.000 A 
ENDBRANCH  12  19
ENDBRANCH   1  12
TORSDOF 4
ENDMDL
MODEL 2
REMARK VINA RESULT:      -7.1      2.436      3.398
REMARK  Name = 
REMARK  5 active torsions:
REMARK  status: ('A' for Active; 'I' for Inactive)
REMARK    1  A    between atoms: C_1  and  C_2
REMARK    2  A    between atoms: C_5  and  S_6
REMARK    3  A    between atoms: S_6  and  N_9
REMARK    4  A    between atoms: N_9  and  C_10
REMARK    5  A    between atoms: C_13  and  N_14
REMARK                            x       y       z     vdW  Elec       q    Type
REMARK                         _______ _______ _______ _____ _____    ______ ____
ROOT
ATOM      1  N   UNL     1       4.413   6.175  18.114  0.00  0.00    +0.000 N 
ATOM      2  H   UNL     1       4.554   7.175  18.264  0.00  0.00    +0.000 HD
ENDROOT
BRANCH   1   3
ATOM      3  C   UNL     1       3.144   5.691  18.528  0.00  0.00    +0.000 A 
ATOM      4  C   UNL     1       2.447   4.719  17.806  0.00  0.00    +0.000 A 
ATOM      5  C   UNL     1       1.502   3.912  18.460  0.00  0.00    +0.000 A 
ATOM      6  C   UNL     1       1.239   4.071  19.825  0.00  0.00    +0.000 A 
ATOM      7  C   UNL     1       1.913   5.075  20.520  0.00  0.00    +0.000 A 
ATOM      8  C   UNL     1       2.846   5.886  19.875  0.00  0.00    +0.000 A 
BRANCH   6   9
ATOM      9  N   UNL     1       0.556   3.079  20.536  0.00  0.00    +0.000 N 
ATOM     10  H   UNL     1       0.379   2.222  20.025  0.00  0.00    +0.000 HD
ATOM     11  H   UNL     1      -0.248   3.403  21.064  0.00  0.00    +0.000 HD
ENDBRANCH   6   9
ENDBRANCH   1   3
BRANCH   1  12
ATOM     12  S   UNL     1       5.844   5.335  18.288  0.00  0.00    +0.000 S 
ATOM     13  O   UNL     1       5.668   4.259  19.231  0.00  0.00    +0.000 OA
ATOM     14  O   UNL     1       6.853   6.353  18.514  0.00  0.00    +0.000 OA
BRANCH  12  19
ATOM     15  C   UNL     1       6.314   3.771  12.479  0.00  0.00    +0.000 C 
ATOM     16  C   UNL     1       6.334   3.984  13.968  0.00  0.00    +0.000 A 
ATOM     17  C   UNL     1       5.405   3.342  14.798  0.00  0.00    +0.000 A 
ATOM     18  C   UNL     1       5.317   3.676  16.155  0.00  0.00    +0.000 A 
ATOM     19  C   UNL     1       6.166   4.657  16.679  0.00  0.00    +0.000 A 
ATOM     20  C   UNL     1       7.136   5.257  15.877  0.00  0.00    +0.000 A 
ATOM     21  C   UNL     1       7.213   4.924  14.522  0.00  0.00    +0.000 A 
ENDBRANCH  12  19
ENDBRANCH   1  12
TORSDOF 4
ENDMDL
MODEL 3
REMARK VINA RESULT:      -7.0      2.382      3.354
REMARK  Name = 
REMARK  5 active torsions:
REMARK  status: ('A' for Active; 'I' for Inactive)
REMARK    1  A    between atoms: C_1  and  C_2
REMARK    2  A    between atoms: C_5  and  S_6
REMARK    3  A    between atoms: S_6  and  N_9
REMARK    4  A    between atoms: N_9  and  C_10
REMARK    5  A    between atoms: C_13  and  N_14
REMARK                            x       y       z     vdW  Elec       q    Type
REMARK                         _______ _______ _______ _____ _____    ______ ____
ROOT
ATOM      1  N   UNL     1       4.503   6.079  18.607  0.00  0.00    +0.000 N 
ATOM      2  H   UNL     1       4.779   6.921  19.114  0.00  0.00    +0.000 HD
ENDROOT
BRANCH   1   3
ATOM      3  C   UNL     1       3.189   5.622  18.895  0.00  0.00    +0.000 A 
ATOM      4  C   UNL     1       2.439   4.888  17.974  0.00  0.00    +0.000 A 
ATOM      5  C   UNL     1       1.418   4.038  18.430  0.00  0.00    +0.000 A 
ATOM      6  C   UNL     1       1.131   3.923  19.795  0.00  0.00    +0.000 A 
ATOM      7  C   UNL     1       1.863   4.697  20.696  0.00  0.00    +0.000 A 
ATOM      8  C   UNL     1       2.872   5.548  20.249  0.00  0.00    +0.000 A 
BRANCH   6   9
ATOM      9  N   UNL     1       0.355   2.860  20.269  0.00  0.00    +0.000 N 
ATOM     10  H   UNL     1      -0.544   2.743  19.816  0.00  0.00    +0.000 HD
ATOM     11  H   UNL     1       0.308   2.778  21.279  0.00  0.00    +0.000 HD
ENDBRANCH   6   9
ENDBRANCH   1   3
BRANCH   1  12
ATOM     12  S   UNL     1       5.812   5.079  18.348  0.00  0.00    +0.000 S 
ATOM     13  O   UNL     1       5.558   3.782  18.923  0.00  0.00    +0.000 OA
ATOM     14  O   UNL     1       6.966   5.854  18.764  0.00  0.00    +0.000 OA
BRANCH  12  19
ATOM     15  C   UNL     1       6.627   3.655  12.541  0.00  0.00    +0.000 C 
ATOM     16  C   UNL     1       6.334   4.203  13.910  0.00  0.00    +0.000 A 
ATOM     17  C   UNL     1       7.268   5.007  14.577  0.00  0.00    +0.000 A 
ATOM     18  C   UNL     1       7.066   5.371  15.914  0.00  0.00    +0.000 A 
ATOM     19  C   UNL     1       5.920   4.925  16.582  0.00  0.00    +0.000 A 
ATOM     20  C   UNL     1       4.954   4.177  15.911  0.00  0.00    +0.000 A 
ATOM     21  C   UNL     1       5.167   3.813  14.579  0.00  0.00    +0.000 A 
ENDBRANCH  12  19
ENDBRANCH   1  12
TORSDOF 4
ENDMDL
MODEL 4
REMARK VINA RESULT:      -7.0      2.368      3.221
REMARK  Name = 
REMARK  5 active torsions:
REMARK  status: ('A' for Active; 'I' for Inactive)
REMARK    1  A    between atoms: C_1  and  C_2
REMARK    2  A    between atoms: C_5  and  S_6
REMARK    3  A    between atoms: S_6  and  N_9
REMARK    4  A    between atoms: N_9  and  C_10
REMARK    5  A    between atoms: C_13  and  N_14
REMARK                            x       y       z     vdW  Elec       q    Type
REMARK                         _______ _______ _______ _____ _____    ______ ____
ROOT
ATOM      1  N   UNL     1       4.921   3.343  17.146  0.00  0.00    +0.000 N 
ATOM      2  H   UNL     1       4.914   3.387  16.126  0.00  0.00    +0.000 HD
ENDROOT
BRANCH   1   3
ATOM      3  C   UNL     1       3.706   2.891  17.724  0.00  0.00    +0.000 A 
ATOM      4  C   UNL     1       3.670   2.220  18.949  0.00  0.00    +0.000 A 
ATOM      5  C   UNL     1       2.497   2.245  19.721  0.00  0.00    +0.000 A 
ATOM      6  C   UNL     1       1.356   2.924  19.278  0.00  0.00    +0.000 A 
ATOM      7  C   UNL     1       1.398   3.552  18.033  0.00  0.00    +0.000 A 
ATOM      8  C   UNL     1       2.556   3.523  17.258  0.00  0.00    +0.000 A 
BRANCH   6   9
ATOM      9  N   UNL     1       0.318   3.222  20.167  0.00  0.00    +0.000 N 
ATOM     10  H   UNL     1      -0.349   2.475  20.321  0.00  0.00    +0.000 HD
ATOM     11  H   UNL     1      -0.119   4.127  20.031  0.00  0.00    +0.000 HD
ENDBRANCH   6   9
ENDBRANCH   1   3
BRANCH   1  12
ATOM     12  S   UNL     1       5.881   4.546  17.791  0.00  0.00    +0.000 S 
ATOM     13  O   UNL     1       6.909   4.908  16.849  0.00  0.00    +0.000 OA
ATOM     14  O   UNL     1       6.231   4.077  19.118  0.00  0.00    +0.000 OA
BRANCH  12  19
ATOM     15  C   UNL     1       1.432   8.605  18.171  0.00  0.00    +0.000 C 
ATOM     16  C   UNL     1       2.674   7.758  18.159  0.00  0.00    +0.000 A 
ATOM     17  C   UNL     1       3.530   7.751  17.050  0.00  0.00    +0.000 A 
ATOM     18  C   UNL     1       4.586   6.835  16.974  0.00  0.00    +0.000 A 
ATOM     19  C   UNL     1       4.783   5.924  18.018  0.00  0.00    +0.000 A 
ATOM     20  C   UNL     1       3.977   5.963  19.154  0.00  0.00    +0.000 A 
ATOM     21  C   UNL     1       2.921   6.875  19.219  0.00  0.00    +0.000 A 
ENDBRANCH  12  19
ENDBRANCH   1  12
TORSDOF 4
ENDMDL
MODEL 5
REMARK VINA RESULT:      -7.0      2.619      3.587
REMARK  Name = 
REMARK  5 active torsions:
REMARK  status: ('A' for Active; 'I' for Inactive)
REMARK    1  A    between atoms: C_1  and  C_2
REMARK    2  A    between atoms: C_5  and  S_6
REMARK    3  A    between atoms: S_6  and  N_9
REMARK    4  A    between atoms: N_9  and  C_10
REMARK    5  A    between atoms: C_13  and  N_14
REMARK                            x       y       z     vdW  Elec       q    Type
REMARK                         _______ _______ _______ _____ _____    ______ ____
ROOT
ATOM      1  N   UNL     1       5.115   3.548  17.584  0.00  0.00    +0.000 N 
ATOM      2  H   UNL     1       5.280   3.399  16.588  0.00  0.00    +0.000 HD
ENDROOT
BRANCH   1   3
ATOM      3  C   UNL     1       3.933   2.939  18.083  0.00  0.00    +0.000 A 
ATOM      4  C   UNL     1       3.842   2.453  19.389  0.00  0.00    +0.000 A 
ATOM      5  C   UNL     1       2.584   2.342  20.003  0.00  0.00    +0.000 A 
ATOM      6  C   UNL     1       1.415   2.703  19.323  0.00  0.00    +0.000 A 
ATOM      7  C   UNL     1       1.522   3.147  18.005  0.00  0.00    +0.000 A 
ATOM      8  C   UNL     1       2.768   3.250  17.387  0.00  0.00    +0.000 A 
BRANCH   6   9
ATOM      9  N   UNL     1       0.220   2.900  20.023  0.00  0.00    +0.000 N 
ATOM     10  H   UNL     1      -0.560   3.228  19.466  0.00  0.00    +0.000 HD
ATOM     11  H   UNL     1       0.314   3.390  20.906  0.00  0.00    +0.000 HD
ENDBRANCH   6   9
ENDBRANCH   1   3
BRANCH   1  12
ATOM     12  S   UNL     1       5.682   5.041  18.068  0.00  0.00    +0.000 S 
ATOM     13  O   UNL     1       6.529   5.598  17.043  0.00  0.00    +0.000 OA
ATOM     14  O   UNL     1       6.193   4.833  19.410  0.00  0.00    +0.000 OA
BRANCH  12  19
ATOM     15  C   UNL     1       1.367   9.143  19.041  0.00  0.00    +0.000 C 
ATOM     16  C   UNL     1       2.275   7.989  18.719  0.00  0.00    +0.000 A 
ATOM     17  C   UNL     1       2.507   6.974  19.656  0.00  0.00    +0.000 A 
ATOM     18  C   UNL     1       3.482   5.998  19.418  0.00  0.00    +0.000 A 
ATOM     19  C   UNL     1       4.226   6.043  18.233  0.00  0.00    +0.000 A 
ATOM     20  C   UNL     1       3.961   7.012  17.267  0.00  0.00    +0.000 A 
ATOM     21  C   UNL     1       2.991   7.986  17.515  0.00  0.00    +0.000 A 
ENDBRANCH  12  19
ENDBRANCH   1  12
TORSDOF 4
ENDMDL
MODEL 6
REMARK VINA RESULT:      -7.0      3.482      6.271
REMARK  Name = 
REMARK  5 active torsions:
REMARK  status: ('A' for Active; 'I' for Inactive)
REMARK    1  A    between atoms: C_1  and  C_2
REMARK    2  A    between atoms: C_5  and  S_6
REMARK    3  A    between atoms: S_6  and  N_9
REMARK    4  A    between atoms: N_9  and  C_10
REMARK    5  A    between atoms: C_13  and  N_14
REMARK                            x       y       z     vdW  Elec       q    Type
REMARK                         _______ _______ _______ _____ _____    ______ ____
ROOT
ATOM      1  N   UNL     1       7.514   5.185  16.463  0.00  0.00    +0.000 N 
ATOM      2  H   UNL     1       8.526   5.048  16.480  0.00  0.00    +0.000 HD
ENDROOT
BRANCH   1   3
ATOM      3  C   UNL     1       6.908   4.951  15.200  0.00  0.00    +0.000 A 
ATOM      4  C   UNL     1       7.602   5.123  14.000  0.00  0.00    +0.000 A 
ATOM      5  C   UNL     1       7.191   4.425  12.853  0.00  0.00    +0.000 A 
ATOM      6  C   UNL     1       6.087   3.565  12.890  0.00  0.00    +0.000 A 
ATOM      7  C   UNL     1       5.381   3.439  14.086  0.00  0.00    +0.000 A 
ATOM      8  C   UNL     1       5.780   4.136  15.226  0.00  0.00    +0.000 A 
BRANCH   6   9
ATOM      9  N   UNL     1       5.875   2.639  11.863  0.00  0.00    +0.000 N 
ATOM     10  H   UNL     1       6.465   2.754  11.047  0.00  0.00    +0.000 HD
ATOM     11  H   UNL     1       4.903   2.466  11.633  0.00  0.00    +0.000 HD
ENDBRANCH   6   9
ENDBRANCH   1   3
BRANCH   1  12
ATOM     12  S   UNL     1       7.056   6.393  17.519  0.00  0.00    +0.000 S 
ATOM     13  O   UNL     1       6.948   7.644  16.811  0.00  0.00    +0.000 OA
ATOM     14  O   UNL     1       7.954   6.264  18.651  0.00  0.00    +0.000 OA
BRANCH  12  19
ATOM     15  C   UNL     1       1.578   4.127  18.639  0.00  0.00    +0.000 C 
ATOM     16  C   UNL     1       2.911   4.816  18.547  0.00  0.00    +0.000 A 
ATOM     17  C   UNL     1       3.044   6.036  17.871  0.00  0.00    +0.000 A 
ATOM     18  C   UNL     1       4.312   6.584  17.640  0.00  0.00    +0.000 A 
ATOM     19  C   UNL     1       5.448   5.904  18.093  0.00  0.00    +0.000 A 
ATOM     20  C   UNL     1       5.324   4.722  18.821  0.00  0.00    +0.000 A 
ATOM     21  C   UNL     1       4.056   4.178  19.041  0.00  0.00    +0.000 A 
ENDBRANCH  12  19
ENDBRANCH   1  12
TORSDOF 4
ENDMDL
MODEL 7
REMARK VINA RESULT:      -6.9      3.306      4.237
REMARK  Name = 
REMARK  5 active torsions:
REMARK  status: ('A' for Active; 'I' for Inactive)
REMARK    1  A    between atoms: C_1  and  C_2
REMARK    2  A    between atoms: C_5  and  S_6
REMARK    3  A    between atoms: S_6  and  N_9
REMARK    4  A    between atoms: N_9  and  C_10
REMARK    5  A    between atoms: C_13  and  N_14
REMARK                            x       y       z     vdW  Elec       q    Type
REMARK                         _______ _______ _______ _____ _____    ______ ____
ROOT
ATOM      1  N   UNL     1       3.194   4.729  17.499  0.00  0.00    +0.000 N 
ATOM      2  H   UNL     1       2.555   4.873  16.715  0.00  0.00    +0.000 HD
ENDROOT
BRANCH   1   3
ATOM      3  C   UNL     1       2.755   3.768  18.447  0.00  0.00    +0.000 A 
ATOM      4  C   UNL     1       3.645   3.094  19.288  0.00  0.00    +0.000 A 
ATOM      5  C   UNL     1       3.187   2.572  20.508  0.00  0.00    +0.000 A 
ATOM      6  C   UNL     1       1.848   2.706  20.893  0.00  0.00    +0.000 A 
ATOM      7  C   UNL     1       0.966   3.344  20.022  0.00  0.00    +0.000 A 
ATOM      8  C   UNL     1       1.413   3.857  18.805  0.00  0.00    +0.000 A 
BRANCH   6   9
ATOM      9  N   UNL     1       1.466   2.482  22.220  0.00  0.00    +0.000 N 
ATOM     10  H   UNL     1       1.821   3.151  22.893  0.00  0.00    +0.000 HD
ATOM     11  H   UNL     1       1.543   1.520  22.534  0.00  0.00    +0.000 HD
ENDBRANCH   6   9
ENDBRANCH   1   3
BRANCH   1  12
ATOM     12  S   UNL     1       3.989   6.143  17.889  0.00  0.00    +0.000 S 
ATOM     13  O   UNL     1       4.580   6.715  16.705  0.00  0.00    +0.000 OA
ATOM     14  O   UNL     1       4.815   5.807  19.034  0.00  0.00    +0.000 OA
BRANCH  12  19
ATOM     15  C   UNL     1       0.434  10.445  20.184  0.00  0.00    +0.000 C 
ATOM     16  C   UNL     1       1.128   9.258  19.574  0.00  0.00    +0.000 A 
ATOM     17  C   UNL     1       1.517   8.169  20.365  0.00  0.00    +0.000 A 
ATOM     18  C   UNL     1       2.312   7.150  19.827  0.00  0.00    +0.000 A 
ATOM     19  C   UNL     1       2.715   7.225  18.489  0.00  0.00    +0.000 A 
ATOM     20  C   UNL     1       2.282   8.272  17.677  0.00  0.00    +0.000 A 
ATOM     21  C   UNL     1       1.495   9.289  18.223  0.00  0.00    +0.000 A 
ENDBRANCH  12  19
ENDBRANCH   1  12
TORSDOF 4
ENDMDL
MODEL 8
REMARK VINA RESULT:      -6.9      3.434      6.211
REMARK  Name = 
REMARK  5 active torsions:
REMARK  status: ('A' for Active; 'I' for Inactive)
REMARK    1  A    between atoms: C_1  and  C_2
REMARK    2  A    between atoms: C_5  and  S_6
REMARK    3  A    between atoms: S_6  and  N_9
REMARK    4  A    between atoms: N_9  and  C_10
REMARK    5  A    between atoms: C_13  and  N_14
REMARK                            x       y       z     vdW  Elec       q    Type
REMARK                         _______ _______ _______ _____ _____    ______ ____
ROOT
ATOM      1  N   UNL     1       7.326   5.922  16.126  0.00  0.00    +0.000 N 
ATOM      2  H   UNL     1       6.943   6.838  15.886  0.00  0.00    +0.000 HD
ENDROOT
BRANCH   1   3
ATOM      3  C   UNL     1       7.048   4.901  15.178  0.00  0.00    +0.000 A 
ATOM      4  C   UNL     1       5.980   4.015  15.333  0.00  0.00    +0.000 A 
ATOM      5  C   UNL     1       5.426   3.391  14.203  0.00  0.00    +0.000 A 
ATOM      6  C   UNL     1       5.934   3.635  12.922  0.00  0.00    +0.000 A 
ATOM      7  C   UNL     1       7.028   4.491  12.793  0.00  0.00    +0.000 A 
ATOM      8  C   UNL     1       7.588   5.107  13.911  0.00  0.00    +0.000 A 
BRANCH   6   9
ATOM      9  N   UNL     1       5.197   3.281  11.788  0.00  0.00    +0.000 N 
ATOM     10  H   UNL     1       5.546   2.479  11.277  0.00  0.00    +0.000 HD
ATOM     11  H   UNL     1       4.932   4.054  11.187  0.00  0.00    +0.000 HD
ENDBRANCH   6   9
ENDBRANCH   1   3
BRANCH   1  12
ATOM     12  S   UNL     1       7.341   5.694  17.779  0.00  0.00    +0.000 S 
ATOM     13  O   UNL     1       7.831   6.882  18.431  0.00  0.00    +0.000 OA
ATOM     14  O   UNL     1       8.005   4.420  17.977  0.00  0.00    +0.000 OA
BRANCH  12  19
ATOM     15  C   UNL     1       1.510   4.277  18.410  0.00  0.00    +0.000 C 
ATOM     16  C   UNL     1       2.935   4.754  18.441  0.00  0.00    +0.000 A 
ATOM     17  C   UNL     1       3.306   5.953  17.817  0.00  0.00    +0.000 A 
ATOM     18  C   UNL     1       4.657   6.303  17.701  0.00  0.00    +0.000 A 
ATOM     19  C   UNL     1       5.637   5.447  18.214  0.00  0.00    +0.000 A 
ATOM     20  C   UNL     1       5.277   4.283  18.891  0.00  0.00    +0.000 A 
ATOM     21  C   UNL     1       3.928   3.936  18.997  0.00  0.00    +0.000 A 
ENDBRANCH  12  19
ENDBRANCH   1  12
TORSDOF 4
ENDMDL
MODEL 9
REMARK VINA RESULT:      -6.9      3.383      5.931
REMARK  Name = 
REMARK  5 active torsions:
REMARK  status: ('A' for Active; 'I' for Inactive)
REMARK    1  A    between atoms: C_1  and  C_2
REMARK    2  A    between atoms: C_5  and  S_6
REMARK    3  A    between atoms: S_6  and  N_9
REMARK    4  A    between atoms: N_9  and  C_10
REMARK    5  A    between atoms: C_13  and  N_14
REMARK                            x       y       z     vdW  Elec       q    Type
REMARK                         _______ _______ _______ _____ _____    ______ ____
ROOT
ATOM      1  N   UNL     1       4.476   5.473  19.189  0.00  0.00    +0.000 N 
ATOM      2  H   UNL     1       4.929   6.272  19.635  0.00  0.00    +0.000 HD
ENDROOT
BRANCH   1   3
ATOM      3  C   UNL     1       5.054   5.083  17.952  0.00  0.00    +0.000 A 
ATOM      4  C   UNL     1       4.617   5.602  16.731  0.00  0.00    +0.000 A 
ATOM      5  C   UNL     1       5.488   5.616  15.629  0.00  0.00    +0.000 A 
ATOM      6  C   UNL     1       6.788   5.108  15.732  0.00  0.00    +0.000 A 
ATOM      7  C   UNL     1       7.193   4.555  16.947  0.00  0.00    +0.000 A 
ATOM      8  C   UNL     1       6.329   4.531  18.041  0.00  0.00    +0.000 A 
BRANCH   6   9
ATOM      9  N   UNL     1       7.746   5.409  14.758  0.00  0.00    +0.000 N 
ATOM     10  H   UNL     1       8.683   5.078  14.953  0.00  0.00    +0.000 HD
ATOM     11  H   UNL     1       7.723   6.362  14.411  0.00  0.00    +0.000 HD
ENDBRANCH   6   9
ENDBRANCH   1   3
BRANCH   1  12
ATOM     12  S   UNL     1       2.839   5.457  19.510  0.00  0.00    +0.000 S 
ATOM     13  O   UNL     1       2.610   5.012  20.861  0.00  0.00    +0.000 OA
ATOM     14  O   UNL     1       2.243   4.749  18.392  0.00  0.00    +0.000 OA
BRANCH  12  19
ATOM     15  C   UNL     1       0.193  10.832  18.794  0.00  0.00    +0.000 C 
ATOM     16  C   UNL     1       1.043   9.611  19.006  0.00  0.00    +0.000 A 
ATOM     17  C   UNL     1       1.714   9.007  17.935  0.00  0.00    +0.000 A 
ATOM     18  C   UNL     1       2.361   7.777  18.106  0.00  0.00    +0.000 A 
ATOM     19  C   UNL     1       2.334   7.153  19.358  0.00  0.00    +0.000 A 
ATOM     20  C   UNL     1       1.723   7.773  20.446  0.00  0.00    +0.000 A 
ATOM     21  C   UNL     1       1.073   8.998  20.266  0.00  0.00    +0.000 A 
ENDBRANCH  12  19
ENDBRANCH   1  12
TORSDOF 4
ENDMDL
