MODEL 1
REMARK VINA RESULT:      -9.0      0.000      0.000
REMARK  Name = 
REMARK  6 active torsions:
REMARK  status: ('A' for Active; 'I' for Inactive)
REMARK    1  A    between atoms: C_1  and  C_2
REMARK    2  A    between atoms: C_2  and  C_3
REMARK    3  A    between atoms: N_10  and  C_11
REMARK    4  A    between atoms: C_14  and  S_15
REMARK    5  A    between atoms: S_15  and  N_18
REMARK    6  A    between atoms: N_18  and  C_19
REMARK                            x       y       z     vdW  Elec       q    Type
REMARK                         _______ _______ _______ _____ _____    ______ ____
ROOT
ATOM      1  C   UNL     1       2.307   7.769  19.136  0.00  0.00    +0.000 A 
ATOM      2  C   UNL     1       2.166   8.649  18.055  0.00  0.00    +0.000 A 
ATOM      3  C   UNL     1       1.317   9.752  18.161  0.00  0.00    +0.000 A 
ATOM      4  C   UNL     1       0.617   9.986  19.350  0.00  0.00    +0.000 A 
ATOM      5  C   UNL     1       0.788   9.137  20.451  0.00  0.00    +0.000 A 
ATOM      6  C   UNL     1       1.630   8.029  20.337  0.00  0.00    +0.000 A 
ENDROOT
BRANCH   1  16
ATOM      7  C   UNL     1       1.280   3.032  21.757  0.00  0.00    +0.000 C 
ATOM      8  C   UNL     1       1.719   3.289  20.294  0.00  0.00    +0.000 C 
ATOM      9  C   UNL     1       0.629   2.699  19.371  0.00  0.00    +0.000 C 
ATOM     10  C   UNL     1       3.060   2.519  20.059  0.00  0.00    +0.000 C 
ATOM     11  C   UNL     1       4.206   3.221  19.345  0.00  0.00    +0.000 C 
ATOM     12  O   UNL     1       5.226   2.609  19.033  0.00  0.00    +0.000 OA
ATOM     13  C   UNL     1       4.060   4.624  19.079  0.00  0.00    +0.000 A 
ATOM     14  C   UNL     1       4.883   5.534  18.406  0.00  0.00    +0.000 A 
ATOM     15  N   UNL     1       4.306   6.731  18.276  0.00  0.00    +0.000 NA
ATOM     16  N   UNL     1       3.152   6.638  18.989  0.00  0.00    +0.000 N 
ATOM     17  C   UNL     1       2.954   5.348  19.447  0.00  0.00    +0.000 A 
ATOM     18  C   UNL     1       1.732   4.831  20.100  0.00  0.00    +0.000 C 
ENDBRANCH   1  16
BRANCH   4  19
ATOM     19  S   UNL     1      -0.429  11.418  19.468  0.00  0.00    +0.000 S 
ATOM     20  O   UNL     1      -0.378  11.885  20.846  0.00  0.00    +0.000 OA
ATOM     21  O   UNL     1      -0.116  12.300  18.368  0.00  0.00    +0.000 OA
BRANCH  19  22
ATOM     22  N   UNL     1      -1.973  10.805  19.254  0.00  0.00    +0.000 N 
ATOM     23  H   UNL     1      -2.454  10.447  20.074  0.00  0.00    +0.000 HD
BRANCH  22  24
ATOM     24  C   UNL     1      -2.509  10.641  17.958  0.00  0.00    +0.000 A 
ATOM     25  C   UNL     1      -1.913   9.734  17.082  0.00  0.00    +0.000 A 
ATOM     26  C   UNL     1      -2.398   9.605  15.780  0.00  0.00    +0.000 A 
ATOM     27  C   UNL     1      -3.495  10.362  15.374  0.00  0.00    +0.000 A 
ATOM     28 CL   UNL     1      -4.086  10.210  13.765  0.00  0.00    +0.000 Cl
ATOM     29  C   UNL     1      -4.112  11.247  16.259  0.00  0.00    +0.000 A 
ATOM     30  C   UNL     1      -3.614  11.389  17.557  0.00  0.00    +0.000 A 
ENDBRANCH  22  24
ENDBRANCH  19  22
ENDBRANCH   4  19
TORSDOF 4
ENDMDL
MODEL 2
REMARK VINA RESULT:      -9.0      2.320      3.614
REMARK  Name = 
REMARK  6 active torsions:
REMARK  status: ('A' for Active; 'I' for Inactive)
REMARK    1  A    between atoms: C_1  and  C_2
REMARK    2  A    between atoms: C_2  and  C_3
REMARK    3  A    between atoms: N_10  and  C_11
REMARK    4  A    between atoms: C_14  and  S_15
REMARK    5  A    between atoms: S_15  and  N_18
REMARK    6  A    between atoms: N_18  and  C_19
REMARK                            x       y       z     vdW  Elec       q    Type
REMARK                         _______ _______ _______ _____ _____    ______ ____
ROOT
ATOM      1  C   UNL     1       2.498   6.966  18.740  0.00  0.00    +0.000 A 
ATOM      2  C   UNL     1       2.260   8.174  18.071  0.00  0.00    +0.000 A 
ATOM      3  C   UNL     1       1.594   9.212  18.725  0.00  0.00    +0.000 A 
ATOM      4  C   UNL     1       1.177   9.051  20.051  0.00  0.00    +0.000 A 
ATOM      5  C   UNL     1       1.451   7.864  20.741  0.00  0.00    +0.000 A 
ATOM      6  C   UNL     1       2.108   6.824  20.080  0.00  0.00    +0.000 A 
ENDROOT
BRANCH   1  16
ATOM      7  C   UNL     1       7.714   7.431  17.026  0.00  0.00    +0.000 C 
ATOM      8  C   UNL     1       6.990   6.245  17.710  0.00  0.00    +0.000 C 
ATOM      9  C   UNL     1       7.736   5.941  19.028  0.00  0.00    +0.000 C 
ATOM     10  C   UNL     1       7.105   5.007  16.760  0.00  0.00    +0.000 C 
ATOM     11  C   UNL     1       5.873   4.152  16.498  0.00  0.00    +0.000 C 
ATOM     12  O   UNL     1       5.955   3.104  15.860  0.00  0.00    +0.000 OA
ATOM     13  C   UNL     1       4.617   4.631  17.000  0.00  0.00    +0.000 A 
ATOM     14  C   UNL     1       3.334   4.072  16.982  0.00  0.00    +0.000 A 
ATOM     15  N   UNL     1       2.459   4.802  17.677  0.00  0.00    +0.000 NA
ATOM     16  N   UNL     1       3.148   5.916  18.040  0.00  0.00    +0.000 N 
ATOM     17  C   UNL     1       4.480   5.814  17.682  0.00  0.00    +0.000 A 
ATOM     18  C   UNL     1       5.563   6.744  18.068  0.00  0.00    +0.000 C 
ENDBRANCH   1  16
BRANCH   4  19
ATOM     19  S   UNL     1       0.363  10.404  20.869  0.00  0.00    +0.000 S 
ATOM     20  O   UNL     1      -0.842   9.876  21.493  0.00  0.00    +0.000 OA
ATOM     21  O   UNL     1       1.348  11.126  21.640  0.00  0.00    +0.000 OA
BRANCH  19  22
ATOM     22  N   UNL     1      -0.166  11.374  19.611  0.00  0.00    +0.000 N 
ATOM     23  H   UNL     1       0.474  12.083  19.264  0.00  0.00    +0.000 HD
BRANCH  22  24
ATOM     24  C   UNL     1      -1.506  11.314  19.169  0.00  0.00    +0.000 A 
ATOM     25  C   UNL     1      -1.868  10.362  18.216  0.00  0.00    +0.000 A 
ATOM     26  C   UNL     1      -3.176  10.330  17.730  0.00  0.00    +0.000 A 
ATOM     27  C   UNL     1      -4.118  11.231  18.223  0.00  0.00    +0.000 A 
ATOM     28 CL   UNL     1      -5.727  11.196  17.614  0.00  0.00    +0.000 Cl
ATOM     29  C   UNL     1      -3.764  12.161  19.199  0.00  0.00    +0.000 A 
ATOM     30  C   UNL     1      -2.450  12.206  19.673  0.00  0.00    +0.000 A 
ENDBRANCH  22  24
ENDBRANCH  19  22
ENDBRANCH   4  19
TORSDOF 4
ENDMDL
MODEL 3
REMARK VINA RESULT:      -9.0      0.129      1.279
REMARK  Name = 
REMARK  6 active torsions:
REMARK  status: ('A' for Active; 'I' for Inactive)
REMARK    1  A    between atoms: C_1  and  C_2
REMARK    2  A    between atoms: C_2  and  C_3
REMARK    3  A    between atoms: N_10  and  C_11
REMARK    4  A    between atoms: C_14  and  S_15
REMARK    5  A    between atoms: S_15  and  N_18
REMARK    6  A    between atoms: N_18  and  C_19
REMARK                            x       y       z     vdW  Elec       q    Type
REMARK                         _______ _______ _______ _____ _____    ______ ____
ROOT
ATOM      1  C   UNL     1       2.292   7.782  18.958  0.00  0.00    +0.000 A 
ATOM      2  C   UNL     1       1.670   8.038  20.187  0.00  0.00    +0.000 A 
ATOM      3  C   UNL     1       0.843   9.154  20.329  0.00  0.00    +0.000 A 
ATOM      4  C   UNL     1       0.625  10.007  19.242  0.00  0.00    +0.000 A 
ATOM      5  C   UNL     1       1.207   9.733  17.998  0.00  0.00    +0.000 A 
ATOM      6  C   UNL     1       2.042   8.622  17.863  0.00  0.00    +0.000 A 
ENDROOT
BRANCH   1  16
ATOM      7  C   UNL     1       1.251   3.076  21.628  0.00  0.00    +0.000 C 
ATOM      8  C   UNL     1       1.725   3.314  20.174  0.00  0.00    +0.000 C 
ATOM      9  C   UNL     1       0.666   2.697  19.232  0.00  0.00    +0.000 C 
ATOM     10  C   UNL     1       3.080   2.557  19.986  0.00  0.00    +0.000 C 
ATOM     11  C   UNL     1       4.237   3.261  19.291  0.00  0.00    +0.000 C 
ATOM     12  O   UNL     1       5.272   2.655  19.015  0.00  0.00    +0.000 OA
ATOM     13  C   UNL     1       4.082   4.657  18.998  0.00  0.00    +0.000 A 
ATOM     14  C   UNL     1       4.911   5.566  18.331  0.00  0.00    +0.000 A 
ATOM     15  N   UNL     1       4.325   6.753  18.168  0.00  0.00    +0.000 NA
ATOM     16  N   UNL     1       3.154   6.659  18.851  0.00  0.00    +0.000 N 
ATOM     17  C   UNL     1       2.959   5.374  19.325  0.00  0.00    +0.000 A 
ATOM     18  C   UNL     1       1.726   4.853  19.954  0.00  0.00    +0.000 C 
ENDBRANCH   1  16
BRANCH   4  19
ATOM     19  S   UNL     1      -0.462  11.400  19.443  0.00  0.00    +0.000 S 
ATOM     20  O   UNL     1      -0.444  11.770  20.850  0.00  0.00    +0.000 OA
ATOM     21  O   UNL     1      -0.156  12.365  18.412  0.00  0.00    +0.000 OA
BRANCH  19  22
ATOM     22  N   UNL     1      -1.985  10.764  19.161  0.00  0.00    +0.000 N 
ATOM     23  H   UNL     1      -2.482  10.366  19.953  0.00  0.00    +0.000 HD
BRANCH  22  24
ATOM     24  C   UNL     1      -2.480  10.637  17.844  0.00  0.00    +0.000 A 
ATOM     25  C   UNL     1      -3.536  11.450  17.431  0.00  0.00    +0.000 A 
ATOM     26  C   UNL     1      -4.071  11.294  16.152  0.00  0.00    +0.000 A 
ATOM     27  C   UNL     1      -3.527  10.348  15.285  0.00  0.00    +0.000 A 
ATOM     28 CL   UNL     1      -4.195  10.150  13.713  0.00  0.00    +0.000 Cl
ATOM     29  C   UNL     1      -2.450   9.557  15.687  0.00  0.00    +0.000 A 
ATOM     30  C   UNL     1      -1.926   9.700  16.975  0.00  0.00    +0.000 A 
ENDBRANCH  22  24
ENDBRANCH  19  22
ENDBRANCH   4  19
TORSDOF 4
ENDMDL
MODEL 4
REMARK VINA RESULT:      -8.8      3.106      4.031
REMARK  Name = 
REMARK  6 active torsions:
REMARK  status: ('A' for Active; 'I' for Inactive)
REMARK    1  A    between atoms: C_1  and  C_2
REMARK    2  A    between atoms: C_2  and  C_3
REMARK    3  A    between atoms: N_10  and  C_11
REMARK    4  A    between atoms: C_14  and  S_15
REMARK    5  A    between atoms: S_15  and  N_18
REMARK    6  A    between atoms: N_18  and  C_19
REMARK                            x       y       z     vdW  Elec       q    Type
REMARK                         _______ _______ _______ _____ _____    ______ ____
ROOT
ATOM      1  C   UNL     1       2.284   7.684  19.026  0.00  0.00    +0.000 A 
ATOM      2  C   UNL     1       1.745   8.048  20.267  0.00  0.00    +0.000 A 
ATOM      3  C   UNL     1       0.892   9.150  20.360  0.00  0.00    +0.000 A 
ATOM      4  C   UNL     1       0.567   9.881  19.212  0.00  0.00    +0.000 A 
ATOM      5  C   UNL     1       1.065   9.497  17.961  0.00  0.00    +0.000 A 
ATOM      6  C   UNL     1       1.926   8.401  17.874  0.00  0.00    +0.000 A 
ENDROOT
BRANCH   1  16
ATOM      7  C   UNL     1       1.204   2.960  21.650  0.00  0.00    +0.000 C 
ATOM      8  C   UNL     1       1.748   3.207  20.221  0.00  0.00    +0.000 C 
ATOM      9  C   UNL     1       0.753   2.566  19.228  0.00  0.00    +0.000 C 
ATOM     10  C   UNL     1       3.127   2.478  20.106  0.00  0.00    +0.000 C 
ATOM     11  C   UNL     1       4.303   3.205  19.470  0.00  0.00    +0.000 C 
ATOM     12  O   UNL     1       5.363   2.621  19.250  0.00  0.00    +0.000 OA
ATOM     13  C   UNL     1       4.134   4.597  19.166  0.00  0.00    +0.000 A 
ATOM     14  C   UNL     1       4.978   5.523  18.541  0.00  0.00    +0.000 A 
ATOM     15  N   UNL     1       4.376   6.697  18.345  0.00  0.00    +0.000 NA
ATOM     16  N   UNL     1       3.173   6.579  18.967  0.00  0.00    +0.000 N 
ATOM     17  C   UNL     1       2.981   5.291  19.433  0.00  0.00    +0.000 A 
ATOM     18  C   UNL     1       1.728   4.745  19.999  0.00  0.00    +0.000 C 
ENDBRANCH   1  16
BRANCH   4  19
ATOM     19  S   UNL     1      -0.550  11.258  19.355  0.00  0.00    +0.000 S 
ATOM     20  O   UNL     1      -1.867  10.798  18.942  0.00  0.00    +0.000 OA
ATOM     21  O   UNL     1      -0.344  11.876  20.644  0.00  0.00    +0.000 OA
BRANCH  19  22
ATOM     22  N   UNL     1      -0.042  12.312  18.156  0.00  0.00    +0.000 N 
ATOM     23  H   UNL     1      -0.361  12.134  17.208  0.00  0.00    +0.000 HD
BRANCH  22  24
ATOM     24  C   UNL     1       0.926  13.303  18.432  0.00  0.00    +0.000 A 
ATOM     25  C   UNL     1       0.506  14.576  18.820  0.00  0.00    +0.000 A 
ATOM     26  C   UNL     1       1.450  15.580  19.040  0.00  0.00    +0.000 A 
ATOM     27  C   UNL     1       2.807  15.295  18.899  0.00  0.00    +0.000 A 
ATOM     28 CL   UNL     1       3.969  16.537  19.160  0.00  0.00    +0.000 Cl
ATOM     29  C   UNL     1       3.228  14.014  18.542  0.00  0.00    +0.000 A 
ATOM     30  C   UNL     1       2.282  13.013  18.304  0.00  0.00    +0.000 A 
ENDBRANCH  22  24
ENDBRANCH  19  22
ENDBRANCH   4  19
TORSDOF 4
ENDMDL
MODEL 5
REMARK VINA RESULT:      -8.8      3.326      8.317
REMARK  Name = 
REMARK  6 active torsions:
REMARK  status: ('A' for Active; 'I' for Inactive)
REMARK    1  A    between atoms: C_1  and  C_2
REMARK    2  A    between atoms: C_2  and  C_3
REMARK    3  A    between atoms: N_10  and  C_11
REMARK    4  A    between atoms: C_14  and  S_15
REMARK    5  A    between atoms: S_15  and  N_18
REMARK    6  A    between atoms: N_18  and  C_19
REMARK                            x       y       z     vdW  Elec       q    Type
REMARK                         _______ _______ _______ _____ _____    ______ ____
ROOT
ATOM      1  C   UNL     1       1.449   9.030  19.181  0.00  0.00    +0.000 A 
ATOM      2  C   UNL     1       1.969   9.142  17.885  0.00  0.00    +0.000 A 
ATOM      3  C   UNL     1       2.877   8.192  17.414  0.00  0.00    +0.000 A 
ATOM      4  C   UNL     1       3.257   7.121  18.232  0.00  0.00    +0.000 A 
ATOM      5  C   UNL     1       2.706   6.977  19.512  0.00  0.00    +0.000 A 
ATOM      6  C   UNL     1       1.807   7.935  19.982  0.00  0.00    +0.000 A 
ENDROOT
BRANCH   1  16
ATOM      7  C   UNL     1      -2.637  10.942  16.017  0.00  0.00    +0.000 C 
ATOM      8  C   UNL     1      -2.636  10.544  17.514  0.00  0.00    +0.000 C 
ATOM      9  C   UNL     1      -3.672   9.412  17.695  0.00  0.00    +0.000 C 
ATOM     10  C   UNL     1      -3.093  11.793  18.337  0.00  0.00    +0.000 C 
ATOM     11  C   UNL     1      -2.325  12.179  19.593  0.00  0.00    +0.000 C 
ATOM     12  O   UNL     1      -2.730  13.076  20.331  0.00  0.00    +0.000 OA
ATOM     13  C   UNL     1      -1.103  11.477  19.863  0.00  0.00    +0.000 A 
ATOM     14  C   UNL     1      -0.208  11.547  20.937  0.00  0.00    +0.000 A 
ATOM     15  N   UNL     1       0.749  10.621  20.852  0.00  0.00    +0.000 NA
ATOM     16  N   UNL     1       0.553  10.029  19.645  0.00  0.00    +0.000 N 
ATOM     17  C   UNL     1      -0.600  10.499  19.044  0.00  0.00    +0.000 A 
ATOM     18  C   UNL     1      -1.227   9.962  17.817  0.00  0.00    +0.000 C 
ENDBRANCH   1  16
BRANCH   4  19
ATOM     19  S   UNL     1       4.387   5.906  17.593  0.00  0.00    +0.000 S 
ATOM     20  O   UNL     1       4.722   6.294  16.231  0.00  0.00    +0.000 OA
ATOM     21  O   UNL     1       5.416   5.681  18.581  0.00  0.00    +0.000 OA
BRANCH  19  22
ATOM     22  N   UNL     1       3.452   4.524  17.453  0.00  0.00    +0.000 N 
ATOM     23  H   UNL     1       3.215   4.209  16.517  0.00  0.00    +0.000 HD
BRANCH  22  24
ATOM     24  C   UNL     1       2.880   3.922  18.597  0.00  0.00    +0.000 A 
ATOM     25  C   UNL     1       1.493   3.916  18.742  0.00  0.00    +0.000 A 
ATOM     26  C   UNL     1       0.919   3.376  19.894  0.00  0.00    +0.000 A 
ATOM     27  C   UNL     1       1.736   2.820  20.877  0.00  0.00    +0.000 A 
ATOM     28 CL   UNL     1       1.027   2.164  22.301  0.00  0.00    +0.000 Cl
ATOM     29  C   UNL     1       3.121   2.797  20.716  0.00  0.00    +0.000 A 
ATOM     30  C   UNL     1       3.697   3.354  19.572  0.00  0.00    +0.000 A 
ENDBRANCH  22  24
ENDBRANCH  19  22
ENDBRANCH   4  19
TORSDOF 4
ENDMDL
MODEL 6
REMARK VINA RESULT:      -8.8      2.486      3.998
REMARK  Name = 
REMARK  6 active torsions:
REMARK  status: ('A' for Active; 'I' for Inactive)
REMARK    1  A    between atoms: C_1  and  C_2
REMARK    2  A    between atoms: C_2  and  C_3
REMARK    3  A    between atoms: N_10  and  C_11
REMARK    4  A    between atoms: C_14  and  S_15
REMARK    5  A    between atoms: S_15  and  N_18
REMARK    6  A    between atoms: N_18  and  C_19
REMARK                            x       y       z     vdW  Elec       q    Type
REMARK                         _______ _______ _______ _____ _____    ______ ____
ROOT
ATOM      1  C   UNL     1       2.603   6.452  18.933  0.00  0.00    +0.000 A 
ATOM      2  C   UNL     1       2.438   7.776  18.504  0.00  0.00    +0.000 A 
ATOM      3  C   UNL     1       1.762   8.690  19.314  0.00  0.00    +0.000 A 
ATOM      4  C   UNL     1       1.262   8.289  20.558  0.00  0.00    +0.000 A 
ATOM      5  C   UNL     1       1.463   6.980  21.013  0.00  0.00    +0.000 A 
ATOM      6  C   UNL     1       2.131   6.065  20.196  0.00  0.00    +0.000 A 
ENDROOT
BRANCH   1  16
ATOM      7  C   UNL     1       7.727   7.373  17.126  0.00  0.00    +0.000 C 
ATOM      8  C   UNL     1       7.077   6.076  17.665  0.00  0.00    +0.000 C 
ATOM      9  C   UNL     1       7.886   5.630  18.904  0.00  0.00    +0.000 C 
ATOM     10  C   UNL     1       7.203   4.983  16.552  0.00  0.00    +0.000 C 
ATOM     11  C   UNL     1       5.997   4.118  16.217  0.00  0.00    +0.000 C 
ATOM     12  O   UNL     1       6.095   3.170  15.440  0.00  0.00    +0.000 OA
ATOM     13  C   UNL     1       4.743   4.469  16.821  0.00  0.00    +0.000 A 
ATOM     14  C   UNL     1       3.483   3.862  16.770  0.00  0.00    +0.000 A 
ATOM     15  N   UNL     1       2.608   4.451  17.587  0.00  0.00    +0.000 NA
ATOM     16  N   UNL     1       3.267   5.536  18.075  0.00  0.00    +0.000 N 
ATOM     17  C   UNL     1       4.587   5.541  17.663  0.00  0.00    +0.000 A 
ATOM     18  C   UNL     1       5.646   6.459  18.136  0.00  0.00    +0.000 C 
ENDBRANCH   1  16
BRANCH   4  19
ATOM     19  S   UNL     1       0.436   9.484  21.583  0.00  0.00    +0.000 S 
ATOM     20  O   UNL     1      -0.927   9.017  21.788  0.00  0.00    +0.000 OA
ATOM     21  O   UNL     1       1.297   9.793  22.701  0.00  0.00    +0.000 OA
BRANCH  19  22
ATOM     22  N   UNL     1       0.310  10.835  20.601  0.00  0.00    +0.000 N 
ATOM     23  H   UNL     1       1.061  11.517  20.641  0.00  0.00    +0.000 HD
BRANCH  22  24
ATOM     24  C   UNL     1      -0.875  11.089  19.875  0.00  0.00    +0.000 A 
ATOM     25  C   UNL     1      -1.748  12.083  20.320  0.00  0.00    +0.000 A 
ATOM     26  C   UNL     1      -2.948  12.305  19.645  0.00  0.00    +0.000 A 
ATOM     27  C   UNL     1      -3.253  11.552  18.512  0.00  0.00    +0.000 A 
ATOM     28 CL   UNL     1      -4.738  11.819  17.687  0.00  0.00    +0.000 Cl
ATOM     29  C   UNL     1      -2.366  10.580  18.048  0.00  0.00    +0.000 A 
ATOM     30  C   UNL     1      -1.172  10.345  18.735  0.00  0.00    +0.000 A 
ENDBRANCH  22  24
ENDBRANCH  19  22
ENDBRANCH   4  19
TORSDOF 4
ENDMDL
MODEL 7
REMARK VINA RESULT:      -8.7      1.627      2.209
REMARK  Name = 
REMARK  6 active torsions:
REMARK  status: ('A' for Active; 'I' for Inactive)
REMARK    1  A    between atoms: C_1  and  C_2
REMARK    2  A    between atoms: C_2  and  C_3
REMARK    3  A    between atoms: N_10  and  C_11
REMARK    4  A    between atoms: C_14  and  S_15
REMARK    5  A    between atoms: S_15  and  N_18
REMARK    6  A    between atoms: N_18  and  C_19
REMARK                            x       y       z     vdW  Elec       q    Type
REMARK                         _______ _______ _______ _____ _____    ______ ____
ROOT
ATOM      1  C   UNL     1       2.172   7.802  18.951  0.00  0.00    +0.000 A 
ATOM      2  C   UNL     1       1.826   7.791  20.308  0.00  0.00    +0.000 A 
ATOM      3  C   UNL     1       1.161   8.884  20.867  0.00  0.00    +0.000 A 
ATOM      4  C   UNL     1       0.829   9.984  20.068  0.00  0.00    +0.000 A 
ATOM      5  C   UNL     1       1.131   9.984  18.700  0.00  0.00    +0.000 A 
ATOM      6  C   UNL     1       1.806   8.893  18.149  0.00  0.00    +0.000 A 
ENDROOT
BRANCH   1  16
ATOM      7  C   UNL     1       1.759   2.779  21.179  0.00  0.00    +0.000 C 
ATOM      8  C   UNL     1       1.745   3.217  19.694  0.00  0.00    +0.000 C 
ATOM      9  C   UNL     1       0.399   2.761  19.087  0.00  0.00    +0.000 C 
ATOM     10  C   UNL     1       2.912   2.470  18.968  0.00  0.00    +0.000 C 
ATOM     11  C   UNL     1       3.820   3.246  18.025  0.00  0.00    +0.000 C 
ATOM     12  O   UNL     1       4.666   2.668  17.344  0.00  0.00    +0.000 OA
ATOM     13  C   UNL     1       3.669   4.672  17.985  0.00  0.00    +0.000 A 
ATOM     14  C   UNL     1       4.292   5.653  17.204  0.00  0.00    +0.000 A 
ATOM     15  N   UNL     1       3.763   6.862  17.402  0.00  0.00    +0.000 NA
ATOM     16  N   UNL     1       2.876   6.690  18.418  0.00  0.00    +0.000 N 
ATOM     17  C   UNL     1       2.764   5.355  18.758  0.00  0.00    +0.000 A 
ATOM     18  C   UNL     1       1.774   4.771  19.689  0.00  0.00    +0.000 C 
ENDBRANCH   1  16
BRANCH   4  19
ATOM     19  S   UNL     1      -0.049  11.347  20.798  0.00  0.00    +0.000 S 
ATOM     20  O   UNL     1      -1.158  10.795  21.561  0.00  0.00    +0.000 OA
ATOM     21  O   UNL     1       0.915  12.229  21.413  0.00  0.00    +0.000 OA
BRANCH  19  22
ATOM     22  N   UNL     1      -0.743  12.125  19.487  0.00  0.00    +0.000 N 
ATOM     23  H   UNL     1      -0.207  12.866  19.043  0.00  0.00    +0.000 HD
BRANCH  22  24
ATOM     24  C   UNL     1      -2.084  11.870  19.126  0.00  0.00    +0.000 A 
ATOM     25  C   UNL     1      -3.107  12.580  19.756  0.00  0.00    +0.000 A 
ATOM     26  C   UNL     1      -4.438  12.298  19.448  0.00  0.00    +0.000 A 
ATOM     27  C   UNL     1      -4.736  11.328  18.493  0.00  0.00    +0.000 A 
ATOM     28 CL   UNL     1      -6.378  10.973  18.123  0.00  0.00    +0.000 Cl
ATOM     29  C   UNL     1      -3.713  10.640  17.840  0.00  0.00    +0.000 A 
ATOM     30  C   UNL     1      -2.379  10.910  18.161  0.00  0.00    +0.000 A 
ENDBRANCH  22  24
ENDBRANCH  19  22
ENDBRANCH   4  19
TORSDOF 4
ENDMDL
MODEL 8
REMARK VINA RESULT:      -8.7      4.022      5.333
REMARK  Name = 
REMARK  6 active torsions:
REMARK  status: ('A' for Active; 'I' for Inactive)
REMARK    1  A    between atoms: C_1  and  C_2
REMARK    2  A    between atoms: C_2  and  C_3
REMARK    3  A    between atoms: N_10  and  C_11
REMARK    4  A    between atoms: C_14  and  S_15
REMARK    5  A    between atoms: S_15  and  N_18
REMARK    6  A    between atoms: N_18  and  C_19
REMARK                            x       y       z     vdW  Elec       q    Type
REMARK                         _______ _______ _______ _____ _____    ______ ____
ROOT
ATOM      1  C   UNL     1       2.552   6.382  18.961  0.00  0.00    +0.000 A 
ATOM      2  C   UNL     1       2.105   5.882  20.190  0.00  0.00    +0.000 A 
ATOM      3  C   UNL     1       1.466   6.731  21.097  0.00  0.00    +0.000 A 
ATOM      4  C   UNL     1       1.262   8.076  20.771  0.00  0.00    +0.000 A 
ATOM      5  C   UNL     1       1.666   8.573  19.524  0.00  0.00    +0.000 A 
ATOM      6  C   UNL     1       2.313   7.723  18.626  0.00  0.00    +0.000 A 
ENDROOT
BRANCH   1  16
ATOM      7  C   UNL     1       7.693   7.385  17.251  0.00  0.00    +0.000 C 
ATOM      8  C   UNL     1       7.040   6.065  17.728  0.00  0.00    +0.000 C 
ATOM      9  C   UNL     1       7.836   5.569  18.956  0.00  0.00    +0.000 C 
ATOM     10  C   UNL     1       7.181   5.020  16.571  0.00  0.00    +0.000 C 
ATOM     11  C   UNL     1       5.980   4.168  16.188  0.00  0.00    +0.000 C 
ATOM     12  O   UNL     1       6.088   3.254  15.372  0.00  0.00    +0.000 OA
ATOM     13  C   UNL     1       4.719   4.492  16.792  0.00  0.00    +0.000 A 
ATOM     14  C   UNL     1       3.461   3.885  16.701  0.00  0.00    +0.000 A 
ATOM     15  N   UNL     1       2.576   4.439  17.532  0.00  0.00    +0.000 NA
ATOM     16  N   UNL     1       3.227   5.503  18.072  0.00  0.00    +0.000 N 
ATOM     17  C   UNL     1       4.551   5.528  17.675  0.00  0.00    +0.000 A 
ATOM     18  C   UNL     1       5.603   6.426  18.198  0.00  0.00    +0.000 C 
ENDBRANCH   1  16
BRANCH   4  19
ATOM     19  S   UNL     1       0.415   9.126  21.929  0.00  0.00    +0.000 S 
ATOM     20  O   UNL     1      -0.785   8.424  22.359  0.00  0.00    +0.000 OA
ATOM     21  O   UNL     1       1.380   9.614  22.887  0.00  0.00    +0.000 OA
BRANCH  19  22
ATOM     22  N   UNL     1      -0.121  10.406  20.992  0.00  0.00    +0.000 N 
ATOM     23  H   UNL     1      -0.263  10.236  20.001  0.00  0.00    +0.000 HD
BRANCH  22  24
ATOM     24  C   UNL     1      -0.207  11.708  21.534  0.00  0.00    +0.000 A 
ATOM     25  C   UNL     1      -1.131  11.966  22.547  0.00  0.00    +0.000 A 
ATOM     26  C   UNL     1      -1.265  13.261  23.050  0.00  0.00    +0.000 A 
ATOM     27  C   UNL     1      -0.453  14.281  22.557  0.00  0.00    +0.000 A 
ATOM     28 CL   UNL     1      -0.627  15.878  23.171  0.00  0.00    +0.000 Cl
ATOM     29  C   UNL     1       0.493  14.016  21.567  0.00  0.00    +0.000 A 
ATOM     30  C   UNL     1       0.615  12.724  21.050  0.00  0.00    +0.000 A 
ENDBRANCH  22  24
ENDBRANCH  19  22
ENDBRANCH   4  19
TORSDOF 4
ENDMDL
MODEL 9
REMARK VINA RESULT:      -8.7      1.569      1.786
REMARK  Name = 
REMARK  6 active torsions:
REMARK  status: ('A' for Active; 'I' for Inactive)
REMARK    1  A    between atoms: C_1  and  C_2
REMARK    2  A    between atoms: C_2  and  C_3
REMARK    3  A    between atoms: N_10  and  C_11
REMARK    4  A    between atoms: C_14  and  S_15
REMARK    5  A    between atoms: S_15  and  N_18
REMARK    6  A    between atoms: N_18  and  C_19
REMARK                            x       y       z     vdW  Elec       q    Type
REMARK                         _______ _______ _______ _____ _____    ______ ____
ROOT
ATOM      1  C   UNL     1       2.281   7.680  18.801  0.00  0.00    +0.000 A 
ATOM      2  C   UNL     1       1.981   8.735  17.930  0.00  0.00    +0.000 A 
ATOM      3  C   UNL     1       1.263   9.839  18.395  0.00  0.00    +0.000 A 
ATOM      4  C   UNL     1       0.857   9.897  19.733  0.00  0.00    +0.000 A 
ATOM      5  C   UNL     1       1.193   8.867  20.621  0.00  0.00    +0.000 A 
ATOM      6  C   UNL     1       1.901   7.760  20.150  0.00  0.00    +0.000 A 
ENDROOT
BRANCH   1  16
ATOM      7  C   UNL     1       1.697   2.665  21.009  0.00  0.00    +0.000 C 
ATOM      8  C   UNL     1       1.743   3.103  19.525  0.00  0.00    +0.000 C 
ATOM      9  C   UNL     1       0.412   2.672  18.870  0.00  0.00    +0.000 C 
ATOM     10  C   UNL     1       2.922   2.335  18.840  0.00  0.00    +0.000 C 
ATOM     11  C   UNL     1       3.878   3.094  17.931  0.00  0.00    +0.000 C 
ATOM     12  O   UNL     1       4.736   2.501  17.280  0.00  0.00    +0.000 OA
ATOM     13  C   UNL     1       3.754   4.523  17.887  0.00  0.00    +0.000 A 
ATOM     14  C   UNL     1       4.422   5.492  17.130  0.00  0.00    +0.000 A 
ATOM     15  N   UNL     1       3.909   6.711  17.309  0.00  0.00    +0.000 NA
ATOM     16  N   UNL     1       2.984   6.556  18.293  0.00  0.00    +0.000 N 
ATOM     17  C   UNL     1       2.835   5.222  18.628  0.00  0.00    +0.000 A 
ATOM     18  C   UNL     1       1.802   4.656  19.522  0.00  0.00    +0.000 C 
ENDBRANCH   1  16
BRANCH   4  19
ATOM     19  S   UNL     1      -0.024  11.331  20.306  0.00  0.00    +0.000 S 
ATOM     20  O   UNL     1      -1.054  10.873  21.226  0.00  0.00    +0.000 OA
ATOM     21  O   UNL     1       0.943  12.328  20.703  0.00  0.00    +0.000 OA
BRANCH  19  22
ATOM     22  N   UNL     1      -0.838  11.871  18.946  0.00  0.00    +0.000 N 
ATOM     23  H   UNL     1      -0.329  12.467  18.300  0.00  0.00    +0.000 HD
BRANCH  22  24
ATOM     24  C   UNL     1      -2.224  11.641  18.797  0.00  0.00    +0.000 A 
ATOM     25  C   UNL     1      -2.659  10.641  17.926  0.00  0.00    +0.000 A 
ATOM     26  C   UNL     1      -4.026  10.442  17.728  0.00  0.00    +0.000 A 
ATOM     27  C   UNL     1      -4.946  11.223  18.424  0.00  0.00    +0.000 A 
ATOM     28 CL   UNL     1      -6.631  10.983  18.170  0.00  0.00    +0.000 Cl
ATOM     29  C   UNL     1      -4.511  12.201  19.319  0.00  0.00    +0.000 A 
ATOM     30  C   UNL     1      -3.142  12.413  19.504  0.00  0.00    +0.000 A 
ENDBRANCH  22  24
ENDBRANCH  19  22
ENDBRANCH   4  19
TORSDOF 4
ENDMDL
