MODEL 1
REMARK VINA RESULT:      -8.1      0.000      0.000
REMARK  Name = 
REMARK  7 active torsions:
REMARK  status: ('A' for Active; 'I' for Inactive)
REMARK    1  A    between atoms: C_1  and  C_2
REMARK    2  A    between atoms: C_5  and  S_6
REMARK    3  A    between atoms: S_6  and  N_9
REMARK    4  A    between atoms: N_9  and  C_10
REMARK    5  A    between atoms: C_14  and  S_15
REMARK    6  A    between atoms: S_15  and  N_18
REMARK    7  A    between atoms: C_25  and  C_26
REMARK                            x       y       z     vdW  Elec       q    Type
REMARK                         _______ _______ _______ _____ _____    ______ ____
ROOT
ATOM      1  C   UNL     1       2.283   7.033  19.816  0.00  0.00    +0.000 A 
ATOM      2  C   UNL     1       2.607   7.246  18.473  0.00  0.00    +0.000 A 
ATOM      3  C   UNL     1       2.188   8.411  17.826  0.00  0.00    +0.000 A 
ATOM      4  C   UNL     1       1.474   9.379  18.528  0.00  0.00    +0.000 A 
ATOM      5  C   UNL     1       1.175   9.164  19.878  0.00  0.00    +0.000 A 
ATOM      6  C   UNL     1       1.553   7.982  20.524  0.00  0.00    +0.000 A 
ENDROOT
BRANCH   5   7
ATOM      7  S   UNL     1       0.353  10.451  20.779  0.00  0.00    +0.000 S 
ATOM      8  O   UNL     1      -0.723   9.841  21.525  0.00  0.00    +0.000 OA
ATOM      9  O   UNL     1       1.361  11.258  21.441  0.00  0.00    +0.000 OA
BRANCH   7  10
ATOM     10  N   UNL     1      -0.335  11.419  19.549  0.00  0.00    +0.000 NA
ATOM     11  C   UNL     1      -0.356  12.887  19.764  0.00  0.00    +0.000 C 
ATOM     12  C   UNL     1      -1.769  13.202  20.210  0.00  0.00    +0.000 C 
ATOM     13  C   UNL     1      -2.623  12.215  19.439  0.00  0.00    +0.000 C 
ATOM     14  C   UNL     1      -1.718  11.018  19.156  0.00  0.00    +0.000 C 
ENDBRANCH   7  10
ENDBRANCH   5   7
BRANCH   1  15
ATOM     15  N   UNL     1       2.817   5.888  20.475  0.00  0.00    +0.000 N 
ATOM     16  H   UNL     1       2.574   5.775  21.461  0.00  0.00    +0.000 HD
BRANCH  15  17
ATOM     17  S   UNL     1       2.634   4.388  19.692  0.00  0.00    +0.000 S 
ATOM     18  O   UNL     1       1.377   4.369  18.976  0.00  0.00    +0.000 OA
ATOM     19  O   UNL     1       2.953   3.381  20.682  0.00  0.00    +0.000 OA
BRANCH  17  24
ATOM     20  C   UNL     1       7.161   4.542  15.648  0.00  0.00    +0.000 C 
ATOM     21  C   UNL     1       6.059   4.483  16.671  0.00  0.00    +0.000 A 
ATOM     22  C   UNL     1       4.786   4.028  16.286  0.00  0.00    +0.000 A 
ATOM     23  C   UNL     1       3.734   3.986  17.202  0.00  0.00    +0.000 A 
ATOM     24  C   UNL     1       3.960   4.391  18.516  0.00  0.00    +0.000 A 
ATOM     25  C   UNL     1       5.224   4.817  18.927  0.00  0.00    +0.000 A 
ATOM     26  C   UNL     1       6.279   4.886  18.005  0.00  0.00    +0.000 A 
ATOM     27  C   UNL     1       7.612   5.414  18.460  0.00  0.00    +0.000 C 
ENDBRANCH  17  24
ENDBRANCH  15  17
ENDBRANCH   1  15
TORSDOF 5
ENDMDL
MODEL 2
REMARK VINA RESULT:      -8.0      0.977      1.154
REMARK  Name = 
REMARK  7 active torsions:
REMARK  status: ('A' for Active; 'I' for Inactive)
REMARK    1  A    between atoms: C_1  and  C_2
REMARK    2  A    between atoms: C_5  and  S_6
REMARK    3  A    between atoms: S_6  and  N_9
REMARK    4  A    between atoms: N_9  and  C_10
REMARK    5  A    between atoms: C_14  and  S_15
REMARK    6  A    between atoms: S_15  and  N_18
REMARK    7  A    between atoms: C_25  and  C_26
REMARK                            x       y       z     vdW  Elec       q    Type
REMARK                         _______ _______ _______ _____ _____    ______ ____
ROOT
ATOM      1  C   UNL     1       2.272   7.154  19.731  0.00  0.00    +0.000 A 
ATOM      2  C   UNL     1       2.653   7.273  18.392  0.00  0.00    +0.000 A 
ATOM      3  C   UNL     1       2.298   8.408  17.659  0.00  0.00    +0.000 A 
ATOM      4  C   UNL     1       1.590   9.439  18.273  0.00  0.00    +0.000 A 
ATOM      5  C   UNL     1       1.233   9.318  19.620  0.00  0.00    +0.000 A 
ATOM      6  C   UNL     1       1.548   8.167  20.352  0.00  0.00    +0.000 A 
ENDROOT
BRANCH   5   7
ATOM      7  S   UNL     1       0.422  10.683  20.409  0.00  0.00    +0.000 S 
ATOM      8  O   UNL     1      -0.994  10.554  20.152  0.00  0.00    +0.000 OA
ATOM      9  O   UNL     1       0.932  10.795  21.762  0.00  0.00    +0.000 OA
BRANCH   7  10
ATOM     10  N   UNL     1       0.998  12.040  19.542  0.00  0.00    +0.000 NA
ATOM     11  C   UNL     1       1.771  13.057  20.298  0.00  0.00    +0.000 C 
ATOM     12  C   UNL     1       0.791  14.181  20.565  0.00  0.00    +0.000 C 
ATOM     13  C   UNL     1      -0.091  14.196  19.334  0.00  0.00    +0.000 C 
ATOM     14  C   UNL     1      -0.057  12.773  18.781  0.00  0.00    +0.000 C 
ENDBRANCH   7  10
ENDBRANCH   5   7
BRANCH   1  15
ATOM     15  N   UNL     1       2.743   6.036  20.479  0.00  0.00    +0.000 N 
ATOM     16  H   UNL     1       2.436   5.976  21.451  0.00  0.00    +0.000 HD
BRANCH  15  17
ATOM     17  S   UNL     1       2.584   4.501  19.761  0.00  0.00    +0.000 S 
ATOM     18  O   UNL     1       1.337   4.439  19.029  0.00  0.00    +0.000 OA
ATOM     19  O   UNL     1       2.897   3.541  20.799  0.00  0.00    +0.000 OA
BRANCH  17  24
ATOM     20  C   UNL     1       7.169   4.518  15.780  0.00  0.00    +0.000 C 
ATOM     21  C   UNL     1       6.053   4.494  16.788  0.00  0.00    +0.000 A 
ATOM     22  C   UNL     1       4.782   4.034  16.398  0.00  0.00    +0.000 A 
ATOM     23  C   UNL     1       3.718   4.023  17.299  0.00  0.00    +0.000 A 
ATOM     24  C   UNL     1       3.926   4.464  18.605  0.00  0.00    +0.000 A 
ATOM     25  C   UNL     1       5.187   4.896  19.021  0.00  0.00    +0.000 A 
ATOM     26  C   UNL     1       6.255   4.935  18.113  0.00  0.00    +0.000 A 
ATOM     27  C   UNL     1       7.584   5.469  18.572  0.00  0.00    +0.000 C 
ENDBRANCH  17  24
ENDBRANCH  15  17
ENDBRANCH   1  15
TORSDOF 5
ENDMDL
MODEL 3
REMARK VINA RESULT:      -8.0      2.234      9.171
REMARK  Name = 
REMARK  7 active torsions:
REMARK  status: ('A' for Active; 'I' for Inactive)
REMARK    1  A    between atoms: C_1  and  C_2
REMARK    2  A    between atoms: C_5  and  S_6
REMARK    3  A    between atoms: S_6  and  N_9
REMARK    4  A    between atoms: N_9  and  C_10
REMARK    5  A    between atoms: C_14  and  S_15
REMARK    6  A    between atoms: S_15  and  N_18
REMARK    7  A    between atoms: C_25  and  C_26
REMARK                            x       y       z     vdW  Elec       q    Type
REMARK                         _______ _______ _______ _____ _____    ______ ____
ROOT
ATOM      1  C   UNL     1       0.778   8.866  20.138  0.00  0.00    +0.000 A 
ATOM      2  C   UNL     1       1.149   9.539  18.970  0.00  0.00    +0.000 A 
ATOM      3  C   UNL     1       2.092   8.978  18.106  0.00  0.00    +0.000 A 
ATOM      4  C   UNL     1       2.641   7.729  18.390  0.00  0.00    +0.000 A 
ATOM      5  C   UNL     1       2.245   7.055  19.550  0.00  0.00    +0.000 A 
ATOM      6  C   UNL     1       1.333   7.627  20.444  0.00  0.00    +0.000 A 
ENDROOT
BRANCH   5   7
ATOM      7  S   UNL     1       2.879   5.425  19.842  0.00  0.00    +0.000 S 
ATOM      8  O   UNL     1       4.287   5.442  19.520  0.00  0.00    +0.000 OA
ATOM      9  O   UNL     1       2.411   4.981  21.141  0.00  0.00    +0.000 OA
BRANCH   7  10
ATOM     10  N   UNL     1       2.077   4.473  18.669  0.00  0.00    +0.000 NA
ATOM     11  C   UNL     1       1.194   3.385  19.157  0.00  0.00    +0.000 C 
ATOM     12  C   UNL     1       2.009   2.117  19.008  0.00  0.00    +0.000 C 
ATOM     13  C   UNL     1       2.832   2.356  17.758  0.00  0.00    +0.000 C 
ATOM     14  C   UNL     1       2.984   3.871  17.646  0.00  0.00    +0.000 C 
ENDBRANCH   7  10
ENDBRANCH   5   7
BRANCH   1  15
ATOM     15  N   UNL     1      -0.264   9.412  20.940  0.00  0.00    +0.000 N 
ATOM     16  H   UNL     1      -0.864   8.744  21.426  0.00  0.00    +0.000 HD
BRANCH  15  17
ATOM     17  S   UNL     1       0.163  10.652  22.026  0.00  0.00    +0.000 S 
ATOM     18  O   UNL     1       1.269  11.409  21.479  0.00  0.00    +0.000 OA
ATOM     19  O   UNL     1       0.248  10.027  23.329  0.00  0.00    +0.000 OA
BRANCH  17  24
ATOM     20  C   UNL     1      -4.863  14.059  22.056  0.00  0.00    +0.000 C 
ATOM     21  C   UNL     1      -3.606  13.232  22.077  0.00  0.00    +0.000 A 
ATOM     22  C   UNL     1      -2.786  13.197  20.936  0.00  0.00    +0.000 A 
ATOM     23  C   UNL     1      -1.627  12.420  20.911  0.00  0.00    +0.000 A 
ATOM     24  C   UNL     1      -1.279  11.680  22.041  0.00  0.00    +0.000 A 
ATOM     25  C   UNL     1      -2.064  11.725  23.195  0.00  0.00    +0.000 A 
ATOM     26  C   UNL     1      -3.243  12.484  23.217  0.00  0.00    +0.000 A 
ATOM     27  C   UNL     1      -4.104  12.458  24.450  0.00  0.00    +0.000 C 
ENDBRANCH  17  24
ENDBRANCH  15  17
ENDBRANCH   1  15
TORSDOF 5
ENDMDL
MODEL 4
REMARK VINA RESULT:      -7.9      0.700      1.005
REMARK  Name = 
REMARK  7 active torsions:
REMARK  status: ('A' for Active; 'I' for Inactive)
REMARK    1  A    between atoms: C_1  and  C_2
REMARK    2  A    between atoms: C_5  and  S_6
REMARK    3  A    between atoms: S_6  and  N_9
REMARK    4  A    between atoms: N_9  and  C_10
REMARK    5  A    between atoms: C_14  and  S_15
REMARK    6  A    between atoms: S_15  and  N_18
REMARK    7  A    between atoms: C_25  and  C_26
REMARK                            x       y       z     vdW  Elec       q    Type
REMARK                         _______ _______ _______ _____ _____    ______ ____
ROOT
ATOM      1  C   UNL     1       2.260   7.054  19.768  0.00  0.00    +0.000 A 
ATOM      2  C   UNL     1       2.555   7.113  18.402  0.00  0.00    +0.000 A 
ATOM      3  C   UNL     1       2.244   8.257  17.665  0.00  0.00    +0.000 A 
ATOM      4  C   UNL     1       1.670   9.358  18.297  0.00  0.00    +0.000 A 
ATOM      5  C   UNL     1       1.399   9.296  19.668  0.00  0.00    +0.000 A 
ATOM      6  C   UNL     1       1.668   8.139  20.408  0.00  0.00    +0.000 A 
ENDROOT
BRANCH   5   7
ATOM      7  S   UNL     1       0.761  10.741  20.473  0.00  0.00    +0.000 S 
ATOM      8  O   UNL     1       0.989  10.585  21.891  0.00  0.00    +0.000 OA
ATOM      9  O   UNL     1       1.241  11.908  19.760  0.00  0.00    +0.000 OA
BRANCH   7  10
ATOM     10  N   UNL     1      -0.923  10.640  20.191  0.00  0.00    +0.000 NA
ATOM     11  C   UNL     1      -1.370  10.399  18.797  0.00  0.00    +0.000 C 
ATOM     12  C   UNL     1      -1.798  11.757  18.278  0.00  0.00    +0.000 C 
ATOM     13  C   UNL     1      -2.387  12.443  19.494  0.00  0.00    +0.000 C 
ATOM     14  C   UNL     1      -1.700  11.809  20.701  0.00  0.00    +0.000 C 
ENDBRANCH   7  10
ENDBRANCH   5   7
BRANCH   1  15
ATOM     15  N   UNL     1       2.688   5.917  20.512  0.00  0.00    +0.000 N 
ATOM     16  H   UNL     1       2.337   5.839  21.468  0.00  0.00    +0.000 HD
BRANCH  15  17
ATOM     17  S   UNL     1       2.550   4.399  19.754  0.00  0.00    +0.000 S 
ATOM     18  O   UNL     1       1.310   4.344  19.010  0.00  0.00    +0.000 OA
ATOM     19  O   UNL     1       2.863   3.417  20.771  0.00  0.00    +0.000 OA
BRANCH  17  24
ATOM     20  C   UNL     1       7.168   4.559  15.814  0.00  0.00    +0.000 C 
ATOM     21  C   UNL     1       6.043   4.499  16.812  0.00  0.00    +0.000 A 
ATOM     22  C   UNL     1       4.785   4.023  16.404  0.00  0.00    +0.000 A 
ATOM     23  C   UNL     1       3.713   3.978  17.296  0.00  0.00    +0.000 A 
ATOM     24  C   UNL     1       3.903   4.404  18.610  0.00  0.00    +0.000 A 
ATOM     25  C   UNL     1       5.152   4.852  19.043  0.00  0.00    +0.000 A 
ATOM     26  C   UNL     1       6.226   4.923  18.145  0.00  0.00    +0.000 A 
ATOM     27  C   UNL     1       7.542   5.474  18.623  0.00  0.00    +0.000 C 
ENDBRANCH  17  24
ENDBRANCH  15  17
ENDBRANCH   1  15
TORSDOF 5
ENDMDL
MODEL 5
REMARK VINA RESULT:      -7.8      2.720      8.819
REMARK  Name = 
REMARK  7 active torsions:
REMARK  status: ('A' for Active; 'I' for Inactive)
REMARK    1  A    between atoms: C_1  and  C_2
REMARK    2  A    between atoms: C_5  and  S_6
REMARK    3  A    between atoms: S_6  and  N_9
REMARK    4  A    between atoms: N_9  and  C_10
REMARK    5  A    between atoms: C_14  and  S_15
REMARK    6  A    between atoms: S_15  and  N_18
REMARK    7  A    between atoms: C_25  and  C_26
REMARK                            x       y       z     vdW  Elec       q    Type
REMARK                         _______ _______ _______ _____ _____    ______ ____
ROOT
ATOM      1  C   UNL     1       1.107   8.523  20.134  0.00  0.00    +0.000 A 
ATOM      2  C   UNL     1       1.083   9.398  19.044  0.00  0.00    +0.000 A 
ATOM      3  C   UNL     1       1.849   9.126  17.908  0.00  0.00    +0.000 A 
ATOM      4  C   UNL     1       2.613   7.963  17.846  0.00  0.00    +0.000 A 
ATOM      5  C   UNL     1       2.612   7.084  18.934  0.00  0.00    +0.000 A 
ATOM      6  C   UNL     1       1.881   7.368  20.093  0.00  0.00    +0.000 A 
ENDROOT
BRANCH   5   7
ATOM      7  S   UNL     1       3.511   5.562  18.795  0.00  0.00    +0.000 S 
ATOM      8  O   UNL     1       3.611   5.243  17.389  0.00  0.00    +0.000 OA
ATOM      9  O   UNL     1       4.692   5.653  19.630  0.00  0.00    +0.000 OA
BRANCH   7  10
ATOM     10  N   UNL     1       2.469   4.419  19.526  0.00  0.00    +0.000 NA
ATOM     11  C   UNL     1       3.085   3.189  20.082  0.00  0.00    +0.000 C 
ATOM     12  C   UNL     1       2.834   2.116  19.043  0.00  0.00    +0.000 C 
ATOM     13  C   UNL     1       1.480   2.474  18.467  0.00  0.00    +0.000 C 
ATOM     14  C   UNL     1       1.335   3.982  18.658  0.00  0.00    +0.000 C 
ENDBRANCH   7  10
ENDBRANCH   5   7
BRANCH   1  15
ATOM     15  N   UNL     1       0.233   8.773  21.231  0.00  0.00    +0.000 N 
ATOM     16  H   UNL     1       0.027   7.979  21.840  0.00  0.00    +0.000 HD
BRANCH  15  17
ATOM     17  S   UNL     1       0.574  10.131  22.199  0.00  0.00    +0.000 S 
ATOM     18  O   UNL     1       1.735  10.816  21.675  0.00  0.00    +0.000 OA
ATOM     19  O   UNL     1       0.529   9.663  23.569  0.00  0.00    +0.000 OA
BRANCH  17  24
ATOM     20  C   UNL     1      -4.392  13.527  21.376  0.00  0.00    +0.000 C 
ATOM     21  C   UNL     1      -3.150  12.709  21.604  0.00  0.00    +0.000 A 
ATOM     22  C   UNL     1      -2.310  12.413  20.516  0.00  0.00    +0.000 A 
ATOM     23  C   UNL     1      -1.165  11.635  20.687  0.00  0.00    +0.000 A 
ATOM     24  C   UNL     1      -0.851  11.156  21.958  0.00  0.00    +0.000 A 
ATOM     25  C   UNL     1      -1.655  11.463  23.057  0.00  0.00    +0.000 A 
ATOM     26  C   UNL     1      -2.821  12.224  22.888  0.00  0.00    +0.000 A 
ATOM     27  C   UNL     1      -3.703  12.481  24.079  0.00  0.00    +0.000 C 
ENDBRANCH  17  24
ENDBRANCH  15  17
ENDBRANCH   1  15
TORSDOF 5
ENDMDL
MODEL 6
REMARK VINA RESULT:      -7.7      2.424      8.198
REMARK  Name = 
REMARK  7 active torsions:
REMARK  status: ('A' for Active; 'I' for Inactive)
REMARK    1  A    between atoms: C_1  and  C_2
REMARK    2  A    between atoms: C_5  and  S_6
REMARK    3  A    between atoms: S_6  and  N_9
REMARK    4  A    between atoms: N_9  and  C_10
REMARK    5  A    between atoms: C_14  and  S_15
REMARK    6  A    between atoms: S_15  and  N_18
REMARK    7  A    between atoms: C_25  and  C_26
REMARK                            x       y       z     vdW  Elec       q    Type
REMARK                         _______ _______ _______ _____ _____    ______ ____
ROOT
ATOM      1  C   UNL     1       2.340   7.994  17.677  0.00  0.00    +0.000 A 
ATOM      2  C   UNL     1       3.705   8.223  17.483  0.00  0.00    +0.000 A 
ATOM      3  C   UNL     1       4.615   7.169  17.583  0.00  0.00    +0.000 A 
ATOM      4  C   UNL     1       4.159   5.878  17.842  0.00  0.00    +0.000 A 
ATOM      5  C   UNL     1       2.788   5.657  18.012  0.00  0.00    +0.000 A 
ATOM      6  C   UNL     1       1.872   6.713  17.955  0.00  0.00    +0.000 A 
ENDROOT
BRANCH   5   7
ATOM      7  S   UNL     1       2.220   3.993  18.241  0.00  0.00    +0.000 S 
ATOM      8  O   UNL     1       1.313   3.691  17.157  0.00  0.00    +0.000 OA
ATOM      9  O   UNL     1       3.369   3.153  18.513  0.00  0.00    +0.000 OA
BRANCH   7  10
ATOM     10  N   UNL     1       1.310   4.082  19.686  0.00  0.00    +0.000 NA
ATOM     11  C   UNL     1       1.910   4.812  20.829  0.00  0.00    +0.000 C 
ATOM     12  C   UNL     1       2.458   3.735  21.744  0.00  0.00    +0.000 C 
ATOM     13  C   UNL     1       1.472   2.594  21.594  0.00  0.00    +0.000 C 
ATOM     14  C   UNL     1       0.857   2.757  20.206  0.00  0.00    +0.000 C 
ENDBRANCH   7  10
ENDBRANCH   5   7
BRANCH   1  15
ATOM     15  N   UNL     1       1.428   9.068  17.461  0.00  0.00    +0.000 N 
ATOM     16  H   UNL     1       0.550   8.834  16.997  0.00  0.00    +0.000 HD
BRANCH  15  17
ATOM     17  S   UNL     1       1.092  10.077  18.790  0.00  0.00    +0.000 S 
ATOM     18  O   UNL     1       1.925  11.258  18.720  0.00  0.00    +0.000 OA
ATOM     19  O   UNL     1       1.101   9.216  19.955  0.00  0.00    +0.000 OA
BRANCH  17  24
ATOM     20  C   UNL     1      -4.637  11.788  17.735  0.00  0.00    +0.000 C 
ATOM     21  C   UNL     1      -3.228  11.330  17.997  0.00  0.00    +0.000 A 
ATOM     22  C   UNL     1      -2.535  11.836  19.111  0.00  0.00    +0.000 A 
ATOM     23  C   UNL     1      -1.219  11.454  19.369  0.00  0.00    +0.000 A 
ATOM     24  C   UNL     1      -0.592  10.549  18.513  0.00  0.00    +0.000 A 
ATOM     25  C   UNL     1      -1.273  10.011  17.419  0.00  0.00    +0.000 A 
ATOM     26  C   UNL     1      -2.587  10.411  17.139  0.00  0.00    +0.000 A 
ATOM     27  C   UNL     1      -3.271   9.866  15.915  0.00  0.00    +0.000 C 
ENDBRANCH  17  24
ENDBRANCH  15  17
ENDBRANCH   1  15
TORSDOF 5
ENDMDL
MODEL 7
REMARK VINA RESULT:      -7.7      4.345      7.909
REMARK  Name = 
REMARK  7 active torsions:
REMARK  status: ('A' for Active; 'I' for Inactive)
REMARK    1  A    between atoms: C_1  and  C_2
REMARK    2  A    between atoms: C_5  and  S_6
REMARK    3  A    between atoms: S_6  and  N_9
REMARK    4  A    between atoms: N_9  and  C_10
REMARK    5  A    between atoms: C_14  and  S_15
REMARK    6  A    between atoms: S_15  and  N_18
REMARK    7  A    between atoms: C_25  and  C_26
REMARK                            x       y       z     vdW  Elec       q    Type
REMARK                         _______ _______ _______ _____ _____    ______ ____
ROOT
ATOM      1  C   UNL     1       4.919   3.558  18.343  0.00  0.00    +0.000 A 
ATOM      2  C   UNL     1       5.423   4.357  19.373  0.00  0.00    +0.000 A 
ATOM      3  C   UNL     1       6.273   5.426  19.080  0.00  0.00    +0.000 A 
ATOM      4  C   UNL     1       6.592   5.719  17.756  0.00  0.00    +0.000 A 
ATOM      5  C   UNL     1       6.063   4.926  16.732  0.00  0.00    +0.000 A 
ATOM      6  C   UNL     1       5.245   3.827  17.017  0.00  0.00    +0.000 A 
ENDROOT
BRANCH   5   7
ATOM      7  S   UNL     1       6.400   5.375  15.051  0.00  0.00    +0.000 S 
ATOM      8  O   UNL     1       5.360   6.285  14.627  0.00  0.00    +0.000 OA
ATOM      9  O   UNL     1       7.801   5.737  14.948  0.00  0.00    +0.000 OA
BRANCH   7  10
ATOM     10  N   UNL     1       6.199   3.905  14.200  0.00  0.00    +0.000 NA
ATOM     11  C   UNL     1       7.189   3.586  13.142  0.00  0.00    +0.000 C 
ATOM     12  C   UNL     1       6.503   3.939  11.838  0.00  0.00    +0.000 C 
ATOM     13  C   UNL     1       5.048   3.599  12.088  0.00  0.00    +0.000 C 
ATOM     14  C   UNL     1       4.845   3.729  13.595  0.00  0.00    +0.000 C 
ENDBRANCH   7  10
ENDBRANCH   5   7
BRANCH   1  15
ATOM     15  N   UNL     1       3.970   2.545  18.665  0.00  0.00    +0.000 N 
ATOM     16  H   UNL     1       4.030   2.146  19.603  0.00  0.00    +0.000 HD
BRANCH  15  17
ATOM     17  S   UNL     1       2.337   2.874  18.315  0.00  0.00    +0.000 S 
ATOM     18  O   UNL     1       1.495   1.932  19.021  0.00  0.00    +0.000 OA
ATOM     19  O   UNL     1       2.261   3.022  16.877  0.00  0.00    +0.000 OA
BRANCH  17  24
ATOM     20  C   UNL     1       1.667   8.409  20.718  0.00  0.00    +0.000 C 
ATOM     21  C   UNL     1       1.809   7.046  20.098  0.00  0.00    +0.000 A 
ATOM     22  C   UNL     1       1.565   5.904  20.880  0.00  0.00    +0.000 A 
ATOM     23  C   UNL     1       1.714   4.625  20.345  0.00  0.00    +0.000 A 
ATOM     24  C   UNL     1       2.099   4.485  19.012  0.00  0.00    +0.000 A 
ATOM     25  C   UNL     1       2.317   5.606  18.209  0.00  0.00    +0.000 A 
ATOM     26  C   UNL     1       2.195   6.895  18.749  0.00  0.00    +0.000 A 
ATOM     27  C   UNL     1       2.502   8.082  17.878  0.00  0.00    +0.000 C 
ENDBRANCH  17  24
ENDBRANCH  15  17
ENDBRANCH   1  15
TORSDOF 5
ENDMDL
MODEL 8
REMARK VINA RESULT:      -7.7      1.991      8.543
REMARK  Name = 
REMARK  7 active torsions:
REMARK  status: ('A' for Active; 'I' for Inactive)
REMARK    1  A    between atoms: C_1  and  C_2
REMARK    2  A    between atoms: C_5  and  S_6
REMARK    3  A    between atoms: S_6  and  N_9
REMARK    4  A    between atoms: N_9  and  C_10
REMARK    5  A    between atoms: C_14  and  S_15
REMARK    6  A    between atoms: S_15  and  N_18
REMARK    7  A    between atoms: C_25  and  C_26
REMARK                            x       y       z     vdW  Elec       q    Type
REMARK                         _______ _______ _______ _____ _____    ______ ____
ROOT
ATOM      1  C   UNL     1       1.344   8.787  19.861  0.00  0.00    +0.000 A 
ATOM      2  C   UNL     1       1.522   9.324  18.582  0.00  0.00    +0.000 A 
ATOM      3  C   UNL     1       2.298   8.647  17.639  0.00  0.00    +0.000 A 
ATOM      4  C   UNL     1       2.868   7.417  17.960  0.00  0.00    +0.000 A 
ATOM      5  C   UNL     1       2.665   6.879  19.235  0.00  0.00    +0.000 A 
ATOM      6  C   UNL     1       1.924   7.569  20.202  0.00  0.00    +0.000 A 
ENDROOT
BRANCH   5   7
ATOM      7  S   UNL     1       3.315   5.269  19.591  0.00  0.00    +0.000 S 
ATOM      8  O   UNL     1       4.756   5.367  19.568  0.00  0.00    +0.000 OA
ATOM      9  O   UNL     1       2.617   4.742  20.747  0.00  0.00    +0.000 OA
BRANCH   7  10
ATOM     10  N   UNL     1       2.824   4.338  18.243  0.00  0.00    +0.000 NA
ATOM     11  C   UNL     1       1.465   3.743  18.280  0.00  0.00    +0.000 C 
ATOM     12  C   UNL     1       1.678   2.293  18.663  0.00  0.00    +0.000 C 
ATOM     13  C   UNL     1       2.993   1.931  18.005  0.00  0.00    +0.000 C 
ATOM     14  C   UNL     1       3.769   3.239  17.881  0.00  0.00    +0.000 C 
ENDBRANCH   7  10
ENDBRANCH   5   7
BRANCH   1  15
ATOM     15  N   UNL     1       0.460   9.447  20.762  0.00  0.00    +0.000 N 
ATOM     16  H   UNL     1       0.563   9.219  21.752  0.00  0.00    +0.000 HD
BRANCH  15  17
ATOM     17  S   UNL     1       0.311  11.136  20.604  0.00  0.00    +0.000 S 
ATOM     18  O   UNL     1       1.350  11.630  19.726  0.00  0.00    +0.000 OA
ATOM     19  O   UNL     1       0.154  11.649  21.949  0.00  0.00    +0.000 OA
BRANCH  17  24
ATOM     20  C   UNL     1      -4.991  11.853  17.733  0.00  0.00    +0.000 C 
ATOM     21  C   UNL     1      -3.684  11.641  18.448  0.00  0.00    +0.000 A 
ATOM     22  C   UNL     1      -3.399  12.395  19.600  0.00  0.00    +0.000 A 
ATOM     23  C   UNL     1      -2.187  12.243  20.273  0.00  0.00    +0.000 A 
ATOM     24  C   UNL     1      -1.255  11.322  19.796  0.00  0.00    +0.000 A 
ATOM     25  C   UNL     1      -1.530  10.542  18.671  0.00  0.00    +0.000 A 
ATOM     26  C   UNL     1      -2.736  10.708  17.976  0.00  0.00    +0.000 A 
ATOM     27  C   UNL     1      -2.977   9.903  16.729  0.00  0.00    +0.000 C 
ENDBRANCH  17  24
ENDBRANCH  15  17
ENDBRANCH   1  15
TORSDOF 5
ENDMDL
MODEL 9
REMARK VINA RESULT:      -7.7      2.059      8.984
REMARK  Name = 
REMARK  7 active torsions:
REMARK  status: ('A' for Active; 'I' for Inactive)
REMARK    1  A    between atoms: C_1  and  C_2
REMARK    2  A    between atoms: C_5  and  S_6
REMARK    3  A    between atoms: S_6  and  N_9
REMARK    4  A    between atoms: N_9  and  C_10
REMARK    5  A    between atoms: C_14  and  S_15
REMARK    6  A    between atoms: S_15  and  N_18
REMARK    7  A    between atoms: C_25  and  C_26
REMARK                            x       y       z     vdW  Elec       q    Type
REMARK                         _______ _______ _______ _____ _____    ______ ____
ROOT
ATOM      1  C   UNL     1       1.082   8.616  20.068  0.00  0.00    +0.000 A 
ATOM      2  C   UNL     1       1.108   9.533  19.013  0.00  0.00    +0.000 A 
ATOM      3  C   UNL     1       1.884   9.278  17.880  0.00  0.00    +0.000 A 
ATOM      4  C   UNL     1       2.607   8.091  17.785  0.00  0.00    +0.000 A 
ATOM      5  C   UNL     1       2.555   7.171  18.838  0.00  0.00    +0.000 A 
ATOM      6  C   UNL     1       1.815   7.436  19.995  0.00  0.00    +0.000 A 
ENDROOT
BRANCH   5   7
ATOM      7  S   UNL     1       3.402   5.624  18.654  0.00  0.00    +0.000 S 
ATOM      8  O   UNL     1       3.709   5.137  19.980  0.00  0.00    +0.000 OA
ATOM      9  O   UNL     1       2.662   4.810  17.709  0.00  0.00    +0.000 OA
BRANCH   7  10
ATOM     10  N   UNL     1       4.870   6.063  17.896  0.00  0.00    +0.000 NA
ATOM     11  C   UNL     1       5.054   5.665  16.479  0.00  0.00    +0.000 C 
ATOM     12  C   UNL     1       5.941   4.438  16.524  0.00  0.00    +0.000 C 
ATOM     13  C   UNL     1       6.864   4.698  17.697  0.00  0.00    +0.000 C 
ATOM     14  C   UNL     1       6.094   5.627  18.632  0.00  0.00    +0.000 C 
ENDBRANCH   7  10
ENDBRANCH   5   7
BRANCH   1  15
ATOM     15  N   UNL     1       0.197   8.855  21.160  0.00  0.00    +0.000 N 
ATOM     16  H   UNL     1      -0.016   8.055  21.757  0.00  0.00    +0.000 HD
BRANCH  15  17
ATOM     17  S   UNL     1       0.532  10.200  22.148  0.00  0.00    +0.000 S 
ATOM     18  O   UNL     1       1.678  10.910  21.621  0.00  0.00    +0.000 OA
ATOM     19  O   UNL     1       0.510   9.708  23.510  0.00  0.00    +0.000 OA
BRANCH  17  24
ATOM     20  C   UNL     1      -4.488  13.543  21.447  0.00  0.00    +0.000 C 
ATOM     21  C   UNL     1      -3.233  12.738  21.645  0.00  0.00    +0.000 A 
ATOM     22  C   UNL     1      -2.402  12.474  20.542  0.00  0.00    +0.000 A 
ATOM     23  C   UNL     1      -1.244  11.709  20.685  0.00  0.00    +0.000 A 
ATOM     24  C   UNL     1      -0.909  11.210  21.943  0.00  0.00    +0.000 A 
ATOM     25  C   UNL     1      -1.704  11.486  23.057  0.00  0.00    +0.000 A 
ATOM     26  C   UNL     1      -2.882  12.233  22.915  0.00  0.00    +0.000 A 
ATOM     27  C   UNL     1      -3.754  12.455  24.121  0.00  0.00    +0.000 C 
ENDBRANCH  17  24
ENDBRANCH  15  17
ENDBRANCH   1  15
TORSDOF 5
ENDMDL
