MODEL 1
REMARK VINA RESULT:      -5.9      0.000      0.000
REMARK  Name = 
REMARK  3 active torsions:
REMARK  status: ('A' for Active; 'I' for Inactive)
REMARK    1  A    between atoms: C_1  and  C_2
REMARK    2  A    between atoms: C_6  and  C_7
REMARK    3  A    between atoms: C_11  and  C_12
REMARK                            x       y       z     vdW  Elec       q    Type
REMARK                         _______ _______ _______ _____ _____    ______ ____
ROOT
ATOM      1  C   UNL     1       7.535  11.903  22.980  0.00  0.00    +0.000 C 
ATOM      2  C   UNL     1       8.490  13.069  22.967  0.00  0.00    +0.000 C 
ATOM      3  O   UNL     1       8.722  13.667  24.025  0.00  0.00    +0.000 OA
ATOM      4  N   UNL     1       9.095  13.472  21.766  0.00  0.00    +0.000 N 
ATOM      5  C   UNL     1      10.090  14.536  21.904  0.00  0.00    +0.000 C 
ATOM      6  C   UNL     1      10.514  15.284  20.637  0.00  0.00    +0.000 C 
ATOM      7  C   UNL     1      11.649  14.612  19.857  0.00  0.00    +0.000 C 
ATOM      8  C   UNL     1       9.308  15.575  19.801  0.00  0.00    +0.000 A 
ATOM      9  S   UNL     1       8.786  17.188  19.552  0.00  0.00    +0.000 S 
ATOM     10  C   UNL     1       7.520  16.669  18.537  0.00  0.00    +0.000 A 
ATOM     11  C   UNL     1       7.535  15.295  18.394  0.00  0.00    +0.000 A 
ATOM     12  C   UNL     1       6.598  14.533  17.537  0.00  0.00    +0.000 C 
ATOM     13  N   UNL     1       8.529  14.695  19.175  0.00  0.00    +0.000 N 
ATOM     14  C   UNL     1       8.784  13.245  19.308  0.00  0.00    +0.000 A 
ATOM     15  C   UNL     1       8.915  12.492  18.139  0.00  0.00    +0.000 A 
ATOM     16  C   UNL     1       9.362  11.169  18.218  0.00  0.00    +0.000 A 
ATOM     17  C   UNL     1       9.681  10.612  19.457  0.00  0.00    +0.000 A 
ATOM     18  C   UNL     1       9.548  11.365  20.627  0.00  0.00    +0.000 A 
ATOM     19  C   UNL     1       9.106  12.690  20.572  0.00  0.00    +0.000 A 
ENDROOT
TORSDOF 0
ENDMDL
MODEL 2
REMARK VINA RESULT:      -5.7      9.561     10.984
REMARK  Name = 
REMARK  3 active torsions:
REMARK  status: ('A' for Active; 'I' for Inactive)
REMARK    1  A    between atoms: C_1  and  C_2
REMARK    2  A    between atoms: C_6  and  C_7
REMARK    3  A    between atoms: C_11  and  C_12
REMARK                            x       y       z     vdW  Elec       q    Type
REMARK                         _______ _______ _______ _____ _____    ______ ____
ROOT
ATOM      1  C   UNL     1      -0.346   8.781  21.222  0.00  0.00    +0.000 C 
ATOM      2  C   UNL     1       0.208  10.179  21.317  0.00  0.00    +0.000 C 
ATOM      3  O   UNL     1       1.128  10.408  22.113  0.00  0.00    +0.000 OA
ATOM      4  N   UNL     1      -0.326  11.206  20.522  0.00  0.00    +0.000 N 
ATOM      5  C   UNL     1       0.372  12.488  20.620  0.00  0.00    +0.000 C 
ATOM      6  C   UNL     1      -0.346  13.733  20.094  0.00  0.00    +0.000 C 
ATOM      7  C   UNL     1      -0.160  13.985  18.595  0.00  0.00    +0.000 C 
ATOM      8  C   UNL     1      -1.781  13.698  20.518  0.00  0.00    +0.000 A 
ATOM      9  S   UNL     1      -2.394  14.855  21.624  0.00  0.00    +0.000 S 
ATOM     10  C   UNL     1      -3.960  14.194  21.516  0.00  0.00    +0.000 A 
ATOM     11  C   UNL     1      -3.987  13.132  20.633  0.00  0.00    +0.000 A 
ATOM     12  C   UNL     1      -5.207  12.372  20.276  0.00  0.00    +0.000 C 
ATOM     13  N   UNL     1      -2.716  12.835  20.127  0.00  0.00    +0.000 N 
ATOM     14  C   UNL     1      -2.375  11.728  19.210  0.00  0.00    +0.000 A 
ATOM     15  C   UNL     1      -3.133  11.580  18.046  0.00  0.00    +0.000 A 
ATOM     16  C   UNL     1      -2.713  10.684  17.059  0.00  0.00    +0.000 A 
ATOM     17  C   UNL     1      -1.539   9.950  17.235  0.00  0.00    +0.000 A 
ATOM     18  C   UNL     1      -0.781  10.095  18.400  0.00  0.00    +0.000 A 
ATOM     19  C   UNL     1      -1.181  10.988  19.400  0.00  0.00    +0.000 A 
ENDROOT
TORSDOF 0
ENDMDL
MODEL 3
REMARK VINA RESULT:      -5.5      2.412      3.919
REMARK  Name = 
REMARK  3 active torsions:
REMARK  status: ('A' for Active; 'I' for Inactive)
REMARK    1  A    between atoms: C_1  and  C_2
REMARK    2  A    between atoms: C_6  and  C_7
REMARK    3  A    between atoms: C_11  and  C_12
REMARK                            x       y       z     vdW  Elec       q    Type
REMARK                         _______ _______ _______ _____ _____    ______ ____
ROOT
ATOM      1  C   UNL     1       5.878  15.416  19.190  0.00  0.00    +0.000 C 
ATOM      2  C   UNL     1       7.114  16.268  19.050  0.00  0.00    +0.000 C 
ATOM      3  O   UNL     1       7.008  17.409  18.582  0.00  0.00    +0.000 OA
ATOM      4  N   UNL     1       8.366  15.764  19.436  0.00  0.00    +0.000 N 
ATOM      5  C   UNL     1       9.467  16.724  19.362  0.00  0.00    +0.000 C 
ATOM      6  C   UNL     1      10.896  16.176  19.398  0.00  0.00    +0.000 C 
ATOM      7  C   UNL     1      11.455  15.962  20.808  0.00  0.00    +0.000 C 
ATOM      8  C   UNL     1      10.986  14.960  18.531  0.00  0.00    +0.000 A 
ATOM      9  S   UNL     1      11.937  14.972  17.105  0.00  0.00    +0.000 S 
ATOM     10  C   UNL     1      11.570  13.339  16.793  0.00  0.00    +0.000 A 
ATOM     11  C   UNL     1      10.757  12.818  17.781  0.00  0.00    +0.000 A 
ATOM     12  C   UNL     1      10.298  11.411  17.832  0.00  0.00    +0.000 C 
ATOM     13  N   UNL     1      10.393  13.784  18.726  0.00  0.00    +0.000 N 
ATOM     14  C   UNL     1       9.487  13.586  19.878  0.00  0.00    +0.000 A 
ATOM     15  C   UNL     1       9.732  12.505  20.727  0.00  0.00    +0.000 A 
ATOM     16  C   UNL     1       9.034  12.406  21.935  0.00  0.00    +0.000 A 
ATOM     17  C   UNL     1       8.107  13.387  22.289  0.00  0.00    +0.000 A 
ATOM     18  C   UNL     1       7.859  14.468  21.437  0.00  0.00    +0.000 A 
ATOM     19  C   UNL     1       8.549  14.589  20.226  0.00  0.00    +0.000 A 
ENDROOT
TORSDOF 0
ENDMDL
MODEL 4
REMARK VINA RESULT:      -5.5      8.143      9.954
REMARK  Name = 
REMARK  3 active torsions:
REMARK  status: ('A' for Active; 'I' for Inactive)
REMARK    1  A    between atoms: C_1  and  C_2
REMARK    2  A    between atoms: C_6  and  C_7
REMARK    3  A    between atoms: C_11  and  C_12
REMARK                            x       y       z     vdW  Elec       q    Type
REMARK                         _______ _______ _______ _____ _____    ______ ____
ROOT
ATOM      1  C   UNL     1       3.125  13.787  19.438  0.00  0.00    +0.000 C 
ATOM      2  C   UNL     1       1.662  14.116  19.281  0.00  0.00    +0.000 C 
ATOM      3  O   UNL     1       1.325  15.296  19.125  0.00  0.00    +0.000 OA
ATOM      4  N   UNL     1       0.701  13.094  19.326  0.00  0.00    +0.000 N 
ATOM      5  C   UNL     1      -0.669  13.523  19.044  0.00  0.00    +0.000 C 
ATOM      6  C   UNL     1      -1.808  12.576  19.432  0.00  0.00    +0.000 C 
ATOM      7  C   UNL     1      -2.143  11.523  18.371  0.00  0.00    +0.000 C 
ATOM      8  C   UNL     1      -1.534  11.994  20.783  0.00  0.00    +0.000 A 
ATOM      9  S   UNL     1      -2.539  12.376  22.118  0.00  0.00    +0.000 S 
ATOM     10  C   UNL     1      -1.648  11.345  23.140  0.00  0.00    +0.000 A 
ATOM     11  C   UNL     1      -0.630  10.721  22.445  0.00  0.00    +0.000 A 
ATOM     12  C   UNL     1       0.295   9.725  23.032  0.00  0.00    +0.000 C 
ATOM     13  N   UNL     1      -0.554  11.159  21.118  0.00  0.00    +0.000 N 
ATOM     14  C   UNL     1       0.452  10.747  20.116  0.00  0.00    +0.000 A 
ATOM     15  C   UNL     1       0.670   9.380  19.927  0.00  0.00    +0.000 A 
ATOM     16  C   UNL     1       1.451   8.949  18.851  0.00  0.00    +0.000 A 
ATOM     17  C   UNL     1       2.001   9.880  17.969  0.00  0.00    +0.000 A 
ATOM     18  C   UNL     1       1.786  11.249  18.158  0.00  0.00    +0.000 A 
ATOM     19  C   UNL     1       1.004  11.702  19.226  0.00  0.00    +0.000 A 
ENDROOT
TORSDOF 0
ENDMDL
MODEL 5
REMARK VINA RESULT:      -5.5      2.335      4.126
REMARK  Name = 
REMARK  3 active torsions:
REMARK  status: ('A' for Active; 'I' for Inactive)
REMARK    1  A    between atoms: C_1  and  C_2
REMARK    2  A    between atoms: C_6  and  C_7
REMARK    3  A    between atoms: C_11  and  C_12
REMARK                            x       y       z     vdW  Elec       q    Type
REMARK                         _______ _______ _______ _____ _____    ______ ____
ROOT
ATOM      1  C   UNL     1       5.490  15.088  19.664  0.00  0.00    +0.000 C 
ATOM      2  C   UNL     1       6.782  15.693  19.175  0.00  0.00    +0.000 C 
ATOM      3  O   UNL     1       6.738  16.640  18.379  0.00  0.00    +0.000 OA
ATOM      4  N   UNL     1       8.012  15.176  19.610  0.00  0.00    +0.000 N 
ATOM      5  C   UNL     1       9.188  15.921  19.159  0.00  0.00    +0.000 C 
ATOM      6  C   UNL     1      10.552  15.234  19.265  0.00  0.00    +0.000 C 
ATOM      7  C   UNL     1      11.235  15.391  20.626  0.00  0.00    +0.000 C 
ATOM      8  C   UNL     1      10.429  13.809  18.822  0.00  0.00    +0.000 A 
ATOM      9  S   UNL     1      11.218  13.265  17.401  0.00  0.00    +0.000 S 
ATOM     10  C   UNL     1      10.662  11.675  17.647  0.00  0.00    +0.000 A 
ATOM     11  C   UNL     1       9.913  11.588  18.805  0.00  0.00    +0.000 A 
ATOM     12  C   UNL     1       9.326  10.334  19.330  0.00  0.00    +0.000 C 
ATOM     13  N   UNL     1       9.748  12.835  19.420  0.00  0.00    +0.000 N 
ATOM     14  C   UNL     1       8.956  13.114  20.636  0.00  0.00    +0.000 A 
ATOM     15  C   UNL     1       9.183  12.322  21.764  0.00  0.00    +0.000 A 
ATOM     16  C   UNL     1       8.611  12.686  22.987  0.00  0.00    +0.000 A 
ATOM     17  C   UNL     1       7.828  13.837  23.078  0.00  0.00    +0.000 A 
ATOM     18  C   UNL     1       7.598  14.629  21.949  0.00  0.00    +0.000 A 
ATOM     19  C   UNL     1       8.162  14.286  20.716  0.00  0.00    +0.000 A 
ENDROOT
TORSDOF 0
ENDMDL
MODEL 6
REMARK VINA RESULT:      -5.4      2.377      3.403
REMARK  Name = 
REMARK  3 active torsions:
REMARK  status: ('A' for Active; 'I' for Inactive)
REMARK    1  A    between atoms: C_1  and  C_2
REMARK    2  A    between atoms: C_6  and  C_7
REMARK    3  A    between atoms: C_11  and  C_12
REMARK                            x       y       z     vdW  Elec       q    Type
REMARK                         _______ _______ _______ _____ _____    ______ ____
ROOT
ATOM      1  C   UNL     1      10.074  11.107  20.218  0.00  0.00    +0.000 C 
ATOM      2  C   UNL     1      11.138  12.063  19.744  0.00  0.00    +0.000 C 
ATOM      3  O   UNL     1      12.329  11.767  19.908  0.00  0.00    +0.000 OA
ATOM      4  N   UNL     1      10.777  13.276  19.137  0.00  0.00    +0.000 N 
ATOM      5  C   UNL     1      11.896  14.062  18.615  0.00  0.00    +0.000 C 
ATOM      6  C   UNL     1      11.640  15.535  18.285  0.00  0.00    +0.000 C 
ATOM      7  C   UNL     1      11.086  15.780  16.878  0.00  0.00    +0.000 C 
ATOM      8  C   UNL     1      10.812  16.153  19.367  0.00  0.00    +0.000 A 
ATOM      9  S   UNL     1      11.466  17.375  20.376  0.00  0.00    +0.000 S 
ATOM     10  C   UNL     1       9.985  17.547  21.200  0.00  0.00    +0.000 A 
ATOM     11  C   UNL     1       9.029  16.696  20.682  0.00  0.00    +0.000 A 
ATOM     12  C   UNL     1       7.623  16.635  21.143  0.00  0.00    +0.000 C 
ATOM     13  N   UNL     1       9.549  15.870  19.677  0.00  0.00    +0.000 N 
ATOM     14  C   UNL     1       8.822  14.806  18.954  0.00  0.00    +0.000 A 
ATOM     15  C   UNL     1       7.588  15.125  18.383  0.00  0.00    +0.000 A 
ATOM     16  C   UNL     1       6.973  14.214  17.519  0.00  0.00    +0.000 A 
ATOM     17  C   UNL     1       7.595  13.000  17.225  0.00  0.00    +0.000 A 
ATOM     18  C   UNL     1       8.829  12.679  17.798  0.00  0.00    +0.000 A 
ATOM     19  C   UNL     1       9.464  13.576  18.663  0.00  0.00    +0.000 A 
ENDROOT
TORSDOF 0
ENDMDL
MODEL 7
REMARK VINA RESULT:      -5.4      9.285     10.701
REMARK  Name = 
REMARK  3 active torsions:
REMARK  status: ('A' for Active; 'I' for Inactive)
REMARK    1  A    between atoms: C_1  and  C_2
REMARK    2  A    between atoms: C_6  and  C_7
REMARK    3  A    between atoms: C_11  and  C_12
REMARK                            x       y       z     vdW  Elec       q    Type
REMARK                         _______ _______ _______ _____ _____    ______ ____
ROOT
ATOM      1  C   UNL     1       0.736   9.248  21.761  0.00  0.00    +0.000 C 
ATOM      2  C   UNL     1      -0.105  10.220  22.549  0.00  0.00    +0.000 C 
ATOM      3  O   UNL     1      -0.384   9.957  23.726  0.00  0.00    +0.000 OA
ATOM      4  N   UNL     1      -0.573  11.398  21.946  0.00  0.00    +0.000 N 
ATOM      5  C   UNL     1      -1.277  12.313  22.844  0.00  0.00    +0.000 C 
ATOM      6  C   UNL     1      -2.131  13.416  22.214  0.00  0.00    +0.000 C 
ATOM      7  C   UNL     1      -1.357  14.690  21.862  0.00  0.00    +0.000 C 
ATOM      8  C   UNL     1      -2.904  12.853  21.063  0.00  0.00    +0.000 A 
ATOM      9  S   UNL     1      -4.613  12.745  21.128  0.00  0.00    +0.000 S 
ATOM     10  C   UNL     1      -4.678  12.117  19.546  0.00  0.00    +0.000 A 
ATOM     11  C   UNL     1      -3.412  12.023  19.000  0.00  0.00    +0.000 A 
ATOM     12  C   UNL     1      -3.128  11.562  17.622  0.00  0.00    +0.000 C 
ATOM     13  N   UNL     1      -2.417  12.394  19.912  0.00  0.00    +0.000 N 
ATOM     14  C   UNL     1      -0.958  12.354  19.681  0.00  0.00    +0.000 A 
ATOM     15  C   UNL     1      -0.459  12.962  18.526  0.00  0.00    +0.000 A 
ATOM     16  C   UNL     1       0.921  13.129  18.377  0.00  0.00    +0.000 A 
ATOM     17  C   UNL     1       1.790  12.699  19.380  0.00  0.00    +0.000 A 
ATOM     18  C   UNL     1       1.292  12.087  20.535  0.00  0.00    +0.000 A 
ATOM     19  C   UNL     1      -0.085  11.913  20.707  0.00  0.00    +0.000 A 
ENDROOT
TORSDOF 0
ENDMDL
MODEL 8
REMARK VINA RESULT:      -5.3      2.166      3.981
REMARK  Name = 
REMARK  3 active torsions:
REMARK  status: ('A' for Active; 'I' for Inactive)
REMARK    1  A    between atoms: C_1  and  C_2
REMARK    2  A    between atoms: C_6  and  C_7
REMARK    3  A    between atoms: C_11  and  C_12
REMARK                            x       y       z     vdW  Elec       q    Type
REMARK                         _______ _______ _______ _____ _____    ______ ____
ROOT
ATOM      1  C   UNL     1       9.023  14.406  22.733  0.00  0.00    +0.000 C 
ATOM      2  C   UNL     1       9.254  13.324  21.710  0.00  0.00    +0.000 C 
ATOM      3  O   UNL     1       9.677  12.223  22.084  0.00  0.00    +0.000 OA
ATOM      4  N   UNL     1       9.003  13.573  20.351  0.00  0.00    +0.000 N 
ATOM      5  C   UNL     1       9.153  12.412  19.474  0.00  0.00    +0.000 C 
ATOM      6  C   UNL     1       9.268  12.665  17.968  0.00  0.00    +0.000 C 
ATOM      7  C   UNL     1       7.923  12.777  17.242  0.00  0.00    +0.000 C 
ATOM      8  C   UNL     1      10.174  13.831  17.725  0.00  0.00    +0.000 A 
ATOM      9  S   UNL     1      11.683  13.615  16.941  0.00  0.00    +0.000 S 
ATOM     10  C   UNL     1      12.005  15.286  17.008  0.00  0.00    +0.000 A 
ATOM     11  C   UNL     1      10.960  15.968  17.600  0.00  0.00    +0.000 A 
ATOM     12  C   UNL     1      10.906  17.438  17.765  0.00  0.00    +0.000 C 
ATOM     13  N   UNL     1       9.957  15.102  18.053  0.00  0.00    +0.000 N 
ATOM     14  C   UNL     1       8.732  15.487  18.784  0.00  0.00    +0.000 A 
ATOM     15  C   UNL     1       7.941  16.506  18.249  0.00  0.00    +0.000 A 
ATOM     16  C   UNL     1       6.676  16.754  18.792  0.00  0.00    +0.000 A 
ATOM     17  C   UNL     1       6.208  15.981  19.855  0.00  0.00    +0.000 A 
ATOM     18  C   UNL     1       7.000  14.962  20.393  0.00  0.00    +0.000 A 
ATOM     19  C   UNL     1       8.267  14.695  19.864  0.00  0.00    +0.000 A 
ENDROOT
TORSDOF 0
ENDMDL
MODEL 9
REMARK VINA RESULT:      -5.3      2.463      4.184
REMARK  Name = 
REMARK  3 active torsions:
REMARK  status: ('A' for Active; 'I' for Inactive)
REMARK    1  A    between atoms: C_1  and  C_2
REMARK    2  A    between atoms: C_6  and  C_7
REMARK    3  A    between atoms: C_11  and  C_12
REMARK                            x       y       z     vdW  Elec       q    Type
REMARK                         _______ _______ _______ _____ _____    ______ ____
ROOT
ATOM      1  C   UNL     1      12.284  16.420  19.546  0.00  0.00    +0.000 C 
ATOM      2  C   UNL     1      11.028  16.458  18.714  0.00  0.00    +0.000 C 
ATOM      3  O   UNL     1      10.810  17.444  18.000  0.00  0.00    +0.000 OA
ATOM      4  N   UNL     1      10.116  15.391  18.765  0.00  0.00    +0.000 N 
ATOM      5  C   UNL     1       8.997  15.491  17.827  0.00  0.00    +0.000 C 
ATOM      6  C   UNL     1       7.782  14.591  18.067  0.00  0.00    +0.000 C 
ATOM      7  C   UNL     1       7.900  13.194  17.452  0.00  0.00    +0.000 C 
ATOM      8  C   UNL     1       7.455  14.573  19.527  0.00  0.00    +0.000 A 
ATOM      9  S   UNL     1       5.993  15.257  20.103  0.00  0.00    +0.000 S 
ATOM     10  C   UNL     1       6.355  14.794  21.702  0.00  0.00    +0.000 A 
ATOM     11  C   UNL     1       7.558  14.118  21.760  0.00  0.00    +0.000 A 
ATOM     12  C   UNL     1       8.134  13.539  22.995  0.00  0.00    +0.000 C 
ATOM     13  N   UNL     1       8.190  14.061  20.512  0.00  0.00    +0.000 N 
ATOM     14  C   UNL     1       9.514  13.469  20.226  0.00  0.00    +0.000 A 
ATOM     15  C   UNL     1       9.764  12.171  20.677  0.00  0.00    +0.000 A 
ATOM     16  C   UNL     1      10.915  11.502  20.249  0.00  0.00    +0.000 A 
ATOM     17  C   UNL     1      11.801  12.128  19.371  0.00  0.00    +0.000 A 
ATOM     18  C   UNL     1      11.553  13.428  18.921  0.00  0.00    +0.000 A 
ATOM     19  C   UNL     1      10.406  14.115  19.334  0.00  0.00    +0.000 A 
ENDROOT
TORSDOF 0
ENDMDL
