MODEL 1
REMARK VINA RESULT:      -6.3      0.000      0.000
REMARK  Name = 
REMARK  6 active torsions:
REMARK  status: ('A' for Active; 'I' for Inactive)
REMARK    1  A    between atoms: C_4  and  C_5
REMARK    2  A    between atoms: C_8  and  N_9
REMARK    3  A    between atoms: N_16  and  C_17
REMARK    4  A    between atoms: C_17  and  C_18
REMARK    5  A    between atoms: N_27  and  C_28
REMARK    6  A    between atoms: C_28  and  C_29
REMARK                            x       y       z     vdW  Elec       q    Type
REMARK                         _______ _______ _______ _____ _____    ______ ____
ROOT
ATOM      1  O   UNL     1       0.319  13.175  22.284  0.00  0.00    +0.000 OA
ATOM      2  C   UNL     1      -0.851  13.474  22.481  0.00  0.00    +0.000 C 
ATOM      3  C   UNL     1      -1.791  12.581  23.193  0.00  0.00    +0.000 C 
ATOM      4  C   UNL     1      -1.721  11.237  23.162  0.00  0.00    +0.000 C 
ATOM      5  C   UNL     1      -3.053  13.082  23.760  0.00  0.00    +0.000 C 
ATOM      6  O   UNL     1      -3.629  12.527  24.687  0.00  0.00    +0.000 OA
ATOM      7  N   UNL     1      -3.640  14.106  23.001  0.00  0.00    +0.000 N 
ATOM      8  S   UNL     1      -2.660  15.419  22.678  0.00  0.00    +0.000 S 
ATOM      9  O   UNL     1      -2.152  15.875  23.948  0.00  0.00    +0.000 OA
ATOM     10  O   UNL     1      -3.343  16.303  21.763  0.00  0.00    +0.000 OA
ATOM     11  N   UNL     1      -1.435  14.612  21.889  0.00  0.00    +0.000 N 
ENDROOT
BRANCH   4  12
ATOM     12  C   UNL     1      -0.755  10.419  22.433  0.00  0.00    +0.000 A 
ATOM     13  C   UNL     1       0.147   9.615  23.130  0.00  0.00    +0.000 A 
ATOM     14  C   UNL     1       0.990   8.749  22.435  0.00  0.00    +0.000 A 
ATOM     15  C   UNL     1       0.920   8.688  21.036  0.00  0.00    +0.000 A 
ATOM     16  C   UNL     1       0.041   9.519  20.327  0.00  0.00    +0.000 A 
ATOM     17  C   UNL     1      -0.795  10.388  21.029  0.00  0.00    +0.000 A 
BRANCH  15  18
ATOM     18  N   UNL     1       1.744   7.715  20.311  0.00  0.00    +0.000 N 
ATOM     19  O   UNL     1       1.896   6.594  20.818  0.00  0.00    +0.000 OA
ATOM     20  O   UNL     1       2.222   8.064  19.222  0.00  0.00    +0.000 OA
ENDBRANCH  15  18
ENDBRANCH   4  12
BRANCH   7  21
ATOM     21  C   UNL     1      -5.085  14.365  23.111  0.00  0.00    +0.000 C 
BRANCH  21  22
ATOM     22  C   UNL     1      -5.850  13.834  21.911  0.00  0.00    +0.000 A 
ATOM     23  C   UNL     1      -6.129  12.465  21.781  0.00  0.00    +0.000 A 
ATOM     24  C   UNL     1      -6.922  11.997  20.728  0.00  0.00    +0.000 A 
ATOM     25  C   UNL     1      -7.430  12.890  19.784  0.00  0.00    +0.000 A 
ATOM     26  C   UNL     1      -7.114  14.243  19.871  0.00  0.00    +0.000 A 
ATOM     27  C   UNL     1      -6.314  14.712  20.920  0.00  0.00    +0.000 A 
ENDBRANCH  21  22
ENDBRANCH   7  21
BRANCH  11  28
ATOM     28  C   UNL     1      -1.335  14.810  20.428  0.00  0.00    +0.000 C 
BRANCH  28  29
ATOM     29  C   UNL     1      -1.732  13.618  19.595  0.00  0.00    +0.000 A 
ATOM     30  C   UNL     1      -2.991  13.019  19.756  0.00  0.00    +0.000 A 
ATOM     31  C   UNL     1      -3.391  11.968  18.929  0.00  0.00    +0.000 A 
ATOM     32  C   UNL     1      -2.541  11.504  17.929  0.00  0.00    +0.000 A 
ATOM     33  C   UNL     1      -1.282  12.079  17.767  0.00  0.00    +0.000 A 
ATOM     34  C   UNL     1      -0.878  13.129  18.596  0.00  0.00    +0.000 A 
ENDBRANCH  28  29
ENDBRANCH  11  28
TORSDOF 6
ENDMDL
MODEL 2
REMARK VINA RESULT:      -6.3      0.187      1.184
REMARK  Name = 
REMARK  6 active torsions:
REMARK  status: ('A' for Active; 'I' for Inactive)
REMARK    1  A    between atoms: C_4  and  C_5
REMARK    2  A    between atoms: C_8  and  N_9
REMARK    3  A    between atoms: N_16  and  C_17
REMARK    4  A    between atoms: C_17  and  C_18
REMARK    5  A    between atoms: N_27  and  C_28
REMARK    6  A    between atoms: C_28  and  C_29
REMARK                            x       y       z     vdW  Elec       q    Type
REMARK                         _______ _______ _______ _____ _____    ______ ____
ROOT
ATOM      1  O   UNL     1       0.389  13.179  22.406  0.00  0.00    +0.000 OA
ATOM      2  C   UNL     1      -0.778  13.502  22.580  0.00  0.00    +0.000 C 
ATOM      3  C   UNL     1      -1.760  12.609  23.233  0.00  0.00    +0.000 C 
ATOM      4  C   UNL     1      -1.722  11.265  23.157  0.00  0.00    +0.000 C 
ATOM      5  C   UNL     1      -3.026  13.122  23.781  0.00  0.00    +0.000 C 
ATOM      6  O   UNL     1      -3.643  12.551  24.671  0.00  0.00    +0.000 OA
ATOM      7  N   UNL     1      -3.565  14.186  23.042  0.00  0.00    +0.000 N 
ATOM      8  S   UNL     1      -2.544  15.484  22.793  0.00  0.00    +0.000 S 
ATOM      9  O   UNL     1      -2.063  15.883  24.092  0.00  0.00    +0.000 OA
ATOM     10  O   UNL     1      -3.177  16.416  21.890  0.00  0.00    +0.000 OA
ATOM     11  N   UNL     1      -1.316  14.673  22.011  0.00  0.00    +0.000 N 
ENDROOT
BRANCH   4  12
ATOM     12  C   UNL     1      -0.756  10.448  22.428  0.00  0.00    +0.000 A 
ATOM     13  C   UNL     1       0.152   9.652  23.125  0.00  0.00    +0.000 A 
ATOM     14  C   UNL     1       0.996   8.786  22.431  0.00  0.00    +0.000 A 
ATOM     15  C   UNL     1       0.921   8.719  21.032  0.00  0.00    +0.000 A 
ATOM     16  C   UNL     1       0.036   9.543  20.323  0.00  0.00    +0.000 A 
ATOM     17  C   UNL     1      -0.802  10.411  21.025  0.00  0.00    +0.000 A 
BRANCH  15  18
ATOM     18  N   UNL     1       1.746   7.745  20.308  0.00  0.00    +0.000 N 
ATOM     19  O   UNL     1       1.878   6.617  20.804  0.00  0.00    +0.000 OA
ATOM     20  O   UNL     1       2.246   8.103  19.231  0.00  0.00    +0.000 OA
ENDBRANCH  15  18
ENDBRANCH   4  12
BRANCH   7  21
ATOM     21  C   UNL     1      -5.006  14.479  23.119  0.00  0.00    +0.000 C 
BRANCH  21  22
ATOM     22  C   UNL     1      -5.758  13.950  21.910  0.00  0.00    +0.000 A 
ATOM     23  C   UNL     1      -6.095  14.797  20.842  0.00  0.00    +0.000 A 
ATOM     24  C   UNL     1      -6.696  14.282  19.688  0.00  0.00    +0.000 A 
ATOM     25  C   UNL     1      -6.981  12.919  19.596  0.00  0.00    +0.000 A 
ATOM     26  C   UNL     1      -6.701  12.079  20.670  0.00  0.00    +0.000 A 
ATOM     27  C   UNL     1      -6.107  12.594  21.829  0.00  0.00    +0.000 A 
ENDBRANCH  21  22
ENDBRANCH   7  21
BRANCH  11  28
ATOM     28  C   UNL     1      -1.168  14.919  20.562  0.00  0.00    +0.000 C 
BRANCH  28  29
ATOM     29  C   UNL     1      -1.634  13.792  19.674  0.00  0.00    +0.000 A 
ATOM     30  C   UNL     1      -0.789  13.264  18.686  0.00  0.00    +0.000 A 
ATOM     31  C   UNL     1      -1.187  12.168  17.919  0.00  0.00    +0.000 A 
ATOM     32  C   UNL     1      -2.432  11.584  18.131  0.00  0.00    +0.000 A 
ATOM     33  C   UNL     1      -3.288  12.106  19.098  0.00  0.00    +0.000 A 
ATOM     34  C   UNL     1      -2.893  13.206  19.865  0.00  0.00    +0.000 A 
ENDBRANCH  28  29
ENDBRANCH  11  28
TORSDOF 6
ENDMDL
MODEL 3
REMARK VINA RESULT:      -6.3      0.364      1.041
REMARK  Name = 
REMARK  6 active torsions:
REMARK  status: ('A' for Active; 'I' for Inactive)
REMARK    1  A    between atoms: C_4  and  C_5
REMARK    2  A    between atoms: C_8  and  N_9
REMARK    3  A    between atoms: N_16  and  C_17
REMARK    4  A    between atoms: C_17  and  C_18
REMARK    5  A    between atoms: N_27  and  C_28
REMARK    6  A    between atoms: C_28  and  C_29
REMARK                            x       y       z     vdW  Elec       q    Type
REMARK                         _______ _______ _______ _____ _____    ______ ____
ROOT
ATOM      1  O   UNL     1       0.587  13.122  22.009  0.00  0.00    +0.000 OA
ATOM      2  C   UNL     1      -0.564  13.482  22.217  0.00  0.00    +0.000 C 
ATOM      3  C   UNL     1      -1.521  12.671  22.999  0.00  0.00    +0.000 C 
ATOM      4  C   UNL     1      -1.508  11.325  23.042  0.00  0.00    +0.000 C 
ATOM      5  C   UNL     1      -2.746  13.255  23.569  0.00  0.00    +0.000 C 
ATOM      6  O   UNL     1      -3.320  12.778  24.538  0.00  0.00    +0.000 OA
ATOM      7  N   UNL     1      -3.309  14.261  22.768  0.00  0.00    +0.000 N 
ATOM      8  S   UNL     1      -2.284  15.511  22.349  0.00  0.00    +0.000 S 
ATOM      9  O   UNL     1      -1.725  16.013  23.579  0.00  0.00    +0.000 OA
ATOM     10  O   UNL     1      -2.953  16.372  21.403  0.00  0.00    +0.000 OA
ATOM     11  N   UNL     1      -1.115  14.610  21.577  0.00  0.00    +0.000 N 
ENDROOT
BRANCH   4  12
ATOM     12  C   UNL     1      -0.596  10.427  22.336  0.00  0.00    +0.000 A 
ATOM     13  C   UNL     1       0.327   9.666  23.052  0.00  0.00    +0.000 A 
ATOM     14  C   UNL     1       1.117   8.726  22.391  0.00  0.00    +0.000 A 
ATOM     15  C   UNL     1       0.971   8.549  21.008  0.00  0.00    +0.000 A 
ATOM     16  C   UNL     1       0.070   9.336  20.277  0.00  0.00    +0.000 A 
ATOM     17  C   UNL     1      -0.713  10.279  20.945  0.00  0.00    +0.000 A 
BRANCH  15  18
ATOM     18  N   UNL     1       1.739   7.500  20.327  0.00  0.00    +0.000 N 
ATOM     19  O   UNL     1       2.401   7.823  19.331  0.00  0.00    +0.000 OA
ATOM     20  O   UNL     1       1.696   6.356  20.803  0.00  0.00    +0.000 OA
ENDBRANCH  15  18
ENDBRANCH   4  12
BRANCH   7  21
ATOM     21  C   UNL     1      -4.739  14.588  22.898  0.00  0.00    +0.000 C 
BRANCH  21  22
ATOM     22  C   UNL     1      -5.567  13.962  21.789  0.00  0.00    +0.000 A 
ATOM     23  C   UNL     1      -5.926  14.702  20.651  0.00  0.00    +0.000 A 
ATOM     24  C   UNL     1      -6.599  14.090  19.588  0.00  0.00    +0.000 A 
ATOM     25  C   UNL     1      -6.937  12.738  19.659  0.00  0.00    +0.000 A 
ATOM     26  C   UNL     1      -6.636  12.008  20.806  0.00  0.00    +0.000 A 
ATOM     27  C   UNL     1      -5.968  12.621  21.873  0.00  0.00    +0.000 A 
ENDBRANCH  21  22
ENDBRANCH   7  21
BRANCH  11  28
ATOM     28  C   UNL     1      -1.046  14.724  20.106  0.00  0.00    +0.000 C 
BRANCH  28  29
ATOM     29  C   UNL     1      -1.528  13.512  19.349  0.00  0.00    +0.000 A 
ATOM     30  C   UNL     1      -2.794  12.964  19.607  0.00  0.00    +0.000 A 
ATOM     31  C   UNL     1      -3.275  11.893  18.852  0.00  0.00    +0.000 A 
ATOM     32  C   UNL     1      -2.499  11.359  17.827  0.00  0.00    +0.000 A 
ATOM     33  C   UNL     1      -1.235  11.883  17.568  0.00  0.00    +0.000 A 
ATOM     34  C   UNL     1      -0.750  12.952  18.326  0.00  0.00    +0.000 A 
ENDBRANCH  28  29
ENDBRANCH  11  28
TORSDOF 6
ENDMDL
MODEL 4
REMARK VINA RESULT:      -6.2      3.338      4.857
REMARK  Name = 
REMARK  6 active torsions:
REMARK  status: ('A' for Active; 'I' for Inactive)
REMARK    1  A    between atoms: C_4  and  C_5
REMARK    2  A    between atoms: C_8  and  N_9
REMARK    3  A    between atoms: N_16  and  C_17
REMARK    4  A    between atoms: C_17  and  C_18
REMARK    5  A    between atoms: N_27  and  C_28
REMARK    6  A    between atoms: C_28  and  C_29
REMARK                            x       y       z     vdW  Elec       q    Type
REMARK                         _______ _______ _______ _____ _____    ______ ____
ROOT
ATOM      1  O   UNL     1       0.320  13.272  18.602  0.00  0.00    +0.000 OA
ATOM      2  C   UNL     1      -0.006  13.462  19.766  0.00  0.00    +0.000 C 
ATOM      3  C   UNL     1      -0.536  12.384  20.628  0.00  0.00    +0.000 C 
ATOM      4  C   UNL     1      -1.259  11.342  20.173  0.00  0.00    +0.000 C 
ATOM      5  C   UNL     1      -0.562  12.508  22.094  0.00  0.00    +0.000 C 
ATOM      6  O   UNL     1      -0.574  11.540  22.842  0.00  0.00    +0.000 OA
ATOM      7  N   UNL     1      -0.800  13.819  22.539  0.00  0.00    +0.000 N 
ATOM      8  S   UNL     1       0.233  14.985  21.937  0.00  0.00    +0.000 S 
ATOM      9  O   UNL     1       1.572  14.528  22.211  0.00  0.00    +0.000 OA
ATOM     10  O   UNL     1      -0.233  16.287  22.353  0.00  0.00    +0.000 OA
ATOM     11  N   UNL     1      -0.072  14.758  20.315  0.00  0.00    +0.000 N 
ENDROOT
BRANCH   4  12
ATOM     12  C   UNL     1      -1.668  11.086  18.794  0.00  0.00    +0.000 A 
ATOM     13  C   UNL     1      -1.016  10.111  18.042  0.00  0.00    +0.000 A 
ATOM     14  C   UNL     1      -1.480   9.787  16.767  0.00  0.00    +0.000 A 
ATOM     15  C   UNL     1      -2.608  10.443  16.254  0.00  0.00    +0.000 A 
ATOM     16  C   UNL     1      -3.247  11.450  16.991  0.00  0.00    +0.000 A 
ATOM     17  C   UNL     1      -2.772  11.772  18.263  0.00  0.00    +0.000 A 
BRANCH  15  18
ATOM     18  N   UNL     1      -3.149  10.041  14.951  0.00  0.00    +0.000 N 
ATOM     19  O   UNL     1      -2.344   9.818  14.035  0.00  0.00    +0.000 OA
ATOM     20  O   UNL     1      -4.379   9.927  14.849  0.00  0.00    +0.000 OA
ENDBRANCH  15  18
ENDBRANCH   4  12
BRANCH   7  21
ATOM     21  C   UNL     1      -1.351  14.049  23.884  0.00  0.00    +0.000 C 
BRANCH  21  22
ATOM     22  C   UNL     1      -2.870  14.070  23.879  0.00  0.00    +0.000 A 
ATOM     23  C   UNL     1      -3.609  12.885  24.019  0.00  0.00    +0.000 A 
ATOM     24  C   UNL     1      -5.004  12.924  24.118  0.00  0.00    +0.000 A 
ATOM     25  C   UNL     1      -5.676  14.146  24.060  0.00  0.00    +0.000 A 
ATOM     26  C   UNL     1      -4.957  15.323  23.866  0.00  0.00    +0.000 A 
ATOM     27  C   UNL     1      -3.562  15.284  23.760  0.00  0.00    +0.000 A 
ENDBRANCH  21  22
ENDBRANCH   7  21
BRANCH  11  28
ATOM     28  C   UNL     1      -0.853  15.806  19.628  0.00  0.00    +0.000 C 
BRANCH  28  29
ATOM     29  C   UNL     1      -0.082  16.612  18.612  0.00  0.00    +0.000 A 
ATOM     30  C   UNL     1      -0.747  17.486  17.739  0.00  0.00    +0.000 A 
ATOM     31  C   UNL     1      -0.029  18.292  16.854  0.00  0.00    +0.000 A 
ATOM     32  C   UNL     1       1.362  18.238  16.833  0.00  0.00    +0.000 A 
ATOM     33  C   UNL     1       2.035  17.364  17.683  0.00  0.00    +0.000 A 
ATOM     34  C   UNL     1       1.318  16.553  18.567  0.00  0.00    +0.000 A 
ENDBRANCH  28  29
ENDBRANCH  11  28
TORSDOF 6
ENDMDL
MODEL 5
REMARK VINA RESULT:      -6.2      3.357      4.872
REMARK  Name = 
REMARK  6 active torsions:
REMARK  status: ('A' for Active; 'I' for Inactive)
REMARK    1  A    between atoms: C_4  and  C_5
REMARK    2  A    between atoms: C_8  and  N_9
REMARK    3  A    between atoms: N_16  and  C_17
REMARK    4  A    between atoms: C_17  and  C_18
REMARK    5  A    between atoms: N_27  and  C_28
REMARK    6  A    between atoms: C_28  and  C_29
REMARK                            x       y       z     vdW  Elec       q    Type
REMARK                         _______ _______ _______ _____ _____    ______ ____
ROOT
ATOM      1  O   UNL     1       0.138  13.169  18.522  0.00  0.00    +0.000 OA
ATOM      2  C   UNL     1      -0.223  13.352  19.676  0.00  0.00    +0.000 C 
ATOM      3  C   UNL     1      -0.803  12.276  20.507  0.00  0.00    +0.000 C 
ATOM      4  C   UNL     1      -1.533  11.256  20.016  0.00  0.00    +0.000 C 
ATOM      5  C   UNL     1      -0.875  12.384  21.973  0.00  0.00    +0.000 C 
ATOM      6  O   UNL     1      -0.933  11.407  22.708  0.00  0.00    +0.000 OA
ATOM      7  N   UNL     1      -1.100  13.693  22.426  0.00  0.00    +0.000 N 
ATOM      8  S   UNL     1      -0.023  14.844  21.873  0.00  0.00    +0.000 S 
ATOM      9  O   UNL     1       1.297  14.355  22.185  0.00  0.00    +0.000 OA
ATOM     10  O   UNL     1      -0.475  16.151  22.290  0.00  0.00    +0.000 OA
ATOM     11  N   UNL     1      -0.279  14.643  20.240  0.00  0.00    +0.000 N 
ENDROOT
BRANCH   4  12
ATOM     12  C   UNL     1      -1.901  11.025  18.621  0.00  0.00    +0.000 A 
ATOM     13  C   UNL     1      -1.213  10.078  17.864  0.00  0.00    +0.000 A 
ATOM     14  C   UNL     1      -1.638   9.776  16.571  0.00  0.00    +0.000 A 
ATOM     15  C   UNL     1      -2.763  10.424  16.043  0.00  0.00    +0.000 A 
ATOM     16  C   UNL     1      -3.439  11.403  16.785  0.00  0.00    +0.000 A 
ATOM     17  C   UNL     1      -3.003  11.704  18.077  0.00  0.00    +0.000 A 
BRANCH  15  18
ATOM     18  N   UNL     1      -3.263  10.044  14.717  0.00  0.00    +0.000 N 
ATOM     19  O   UNL     1      -4.491   9.978  14.560  0.00  0.00    +0.000 OA
ATOM     20  O   UNL     1      -2.427   9.831  13.827  0.00  0.00    +0.000 OA
ENDBRANCH  15  18
ENDBRANCH   4  12
BRANCH   7  21
ATOM     21  C   UNL     1      -1.690  13.920  23.756  0.00  0.00    +0.000 C 
BRANCH  21  22
ATOM     22  C   UNL     1      -3.200  13.748  23.743  0.00  0.00    +0.000 A 
ATOM     23  C   UNL     1      -3.808  12.668  24.401  0.00  0.00    +0.000 A 
ATOM     24  C   UNL     1      -5.202  12.573  24.473  0.00  0.00    +0.000 A 
ATOM     25  C   UNL     1      -6.002  13.547  23.873  0.00  0.00    +0.000 A 
ATOM     26  C   UNL     1      -5.409  14.593  23.171  0.00  0.00    +0.000 A 
ATOM     27  C   UNL     1      -4.015  14.685  23.092  0.00  0.00    +0.000 A 
ENDBRANCH  21  22
ENDBRANCH   7  21
BRANCH  11  28
ATOM     28  C   UNL     1      -1.014  15.716  19.540  0.00  0.00    +0.000 C 
BRANCH  28  29
ATOM     29  C   UNL     1      -0.165  16.607  18.668  0.00  0.00    +0.000 A 
ATOM     30  C   UNL     1       1.234  16.504  18.689  0.00  0.00    +0.000 A 
ATOM     31  C   UNL     1       2.018  17.270  17.824  0.00  0.00    +0.000 A 
ATOM     32  C   UNL     1       1.413  18.144  16.925  0.00  0.00    +0.000 A 
ATOM     33  C   UNL     1       0.026  18.268  16.903  0.00  0.00    +0.000 A 
ATOM     34  C   UNL     1      -0.760  17.505  17.772  0.00  0.00    +0.000 A 
ENDBRANCH  28  29
ENDBRANCH  11  28
TORSDOF 6
ENDMDL
MODEL 6
REMARK VINA RESULT:      -6.2      3.352      4.954
REMARK  Name = 
REMARK  6 active torsions:
REMARK  status: ('A' for Active; 'I' for Inactive)
REMARK    1  A    between atoms: C_4  and  C_5
REMARK    2  A    between atoms: C_8  and  N_9
REMARK    3  A    between atoms: N_16  and  C_17
REMARK    4  A    between atoms: C_17  and  C_18
REMARK    5  A    between atoms: N_27  and  C_28
REMARK    6  A    between atoms: C_28  and  C_29
REMARK                            x       y       z     vdW  Elec       q    Type
REMARK                         _______ _______ _______ _____ _____    ______ ____
ROOT
ATOM      1  O   UNL     1       0.100  13.219  18.748  0.00  0.00    +0.000 OA
ATOM      2  C   UNL     1      -0.160  13.483  19.914  0.00  0.00    +0.000 C 
ATOM      3  C   UNL     1      -0.678  12.472  20.861  0.00  0.00    +0.000 C 
ATOM      4  C   UNL     1      -1.457  11.433  20.501  0.00  0.00    +0.000 C 
ATOM      5  C   UNL     1      -0.624  12.677  22.317  0.00  0.00    +0.000 C 
ATOM      6  O   UNL     1      -0.628  11.751  23.118  0.00  0.00    +0.000 OA
ATOM      7  N   UNL     1      -0.796  14.016  22.699  0.00  0.00    +0.000 N 
ATOM      8  S   UNL     1       0.241  15.112  21.982  0.00  0.00    +0.000 S 
ATOM      9  O   UNL     1       1.577  14.623  22.213  0.00  0.00    +0.000 OA
ATOM     10  O   UNL     1      -0.161  16.450  22.348  0.00  0.00    +0.000 OA
ATOM     11  N   UNL     1      -0.155  14.808  20.393  0.00  0.00    +0.000 N 
ENDROOT
BRANCH   4  12
ATOM     12  C   UNL     1      -1.945  11.118  19.161  0.00  0.00    +0.000 A 
ATOM     13  C   UNL     1      -3.063  11.777  18.652  0.00  0.00    +0.000 A 
ATOM     14  C   UNL     1      -3.460  11.560  17.333  0.00  0.00    +0.000 A 
ATOM     15  C   UNL     1      -2.725  10.682  16.524  0.00  0.00    +0.000 A 
ATOM     16  C   UNL     1      -1.621   9.989  17.040  0.00  0.00    +0.000 A 
ATOM     17  C   UNL     1      -1.234  10.207  18.363  0.00  0.00    +0.000 A 
BRANCH  15  18
ATOM     18  N   UNL     1      -3.090  10.521  15.112  0.00  0.00    +0.000 N 
ATOM     19  O   UNL     1      -4.099  11.113  14.705  0.00  0.00    +0.000 OA
ATOM     20  O   UNL     1      -2.352   9.818  14.405  0.00  0.00    +0.000 OA
ENDBRANCH  15  18
ENDBRANCH   4  12
BRANCH   7  21
ATOM     21  C   UNL     1      -1.269  14.338  24.056  0.00  0.00    +0.000 C 
BRANCH  21  22
ATOM     22  C   UNL     1      -2.738  14.724  24.068  0.00  0.00    +0.000 A 
ATOM     23  C   UNL     1      -3.159  15.945  24.618  0.00  0.00    +0.000 A 
ATOM     24  C   UNL     1      -4.498  16.340  24.533  0.00  0.00    +0.000 A 
ATOM     25  C   UNL     1      -5.434  15.510  23.914  0.00  0.00    +0.000 A 
ATOM     26  C   UNL     1      -5.039  14.272  23.414  0.00  0.00    +0.000 A 
ATOM     27  C   UNL     1      -3.700  13.873  23.505  0.00  0.00    +0.000 A 
ENDBRANCH  21  22
ENDBRANCH   7  21
BRANCH  11  28
ATOM     28  C   UNL     1      -0.937  15.845  19.689  0.00  0.00    +0.000 C 
BRANCH  28  29
ATOM     29  C   UNL     1      -0.165  16.636  18.662  0.00  0.00    +0.000 A 
ATOM     30  C   UNL     1      -0.827  17.516  17.793  0.00  0.00    +0.000 A 
ATOM     31  C   UNL     1      -0.106  18.310  16.898  0.00  0.00    +0.000 A 
ATOM     32  C   UNL     1       1.283  18.237  16.864  0.00  0.00    +0.000 A 
ATOM     33  C   UNL     1       1.953  17.357  17.710  0.00  0.00    +0.000 A 
ATOM     34  C   UNL     1       1.233  16.558  18.604  0.00  0.00    +0.000 A 
ENDBRANCH  28  29
ENDBRANCH  11  28
TORSDOF 6
ENDMDL
MODEL 7
REMARK VINA RESULT:      -6.0      3.148      5.936
REMARK  Name = 
REMARK  6 active torsions:
REMARK  status: ('A' for Active; 'I' for Inactive)
REMARK    1  A    between atoms: C_4  and  C_5
REMARK    2  A    between atoms: C_8  and  N_9
REMARK    3  A    between atoms: N_16  and  C_17
REMARK    4  A    between atoms: C_17  and  C_18
REMARK    5  A    between atoms: N_27  and  C_28
REMARK    6  A    between atoms: C_28  and  C_29
REMARK                            x       y       z     vdW  Elec       q    Type
REMARK                         _______ _______ _______ _____ _____    ______ ____
ROOT
ATOM      1  O   UNL     1      -3.629  13.094  23.417  0.00  0.00    +0.000 OA
ATOM      2  C   UNL     1      -2.986  14.098  23.142  0.00  0.00    +0.000 C 
ATOM      3  C   UNL     1      -3.592  15.273  22.479  0.00  0.00    +0.000 C 
ATOM      4  C   UNL     1      -4.615  15.201  21.607  0.00  0.00    +0.000 C 
ATOM      5  C   UNL     1      -2.941  16.593  22.499  0.00  0.00    +0.000 C 
ATOM      6  O   UNL     1      -3.560  17.640  22.362  0.00  0.00    +0.000 OA
ATOM      7  N   UNL     1      -1.539  16.525  22.459  0.00  0.00    +0.000 N 
ATOM      8  S   UNL     1      -0.829  15.578  23.638  0.00  0.00    +0.000 S 
ATOM      9  O   UNL     1      -1.338  16.045  24.902  0.00  0.00    +0.000 OA
ATOM     10  O   UNL     1       0.587  15.478  23.371  0.00  0.00    +0.000 OA
ATOM     11  N   UNL     1      -1.584  14.139  23.273  0.00  0.00    +0.000 N 
ENDROOT
BRANCH   4  12
ATOM     12  C   UNL     1      -5.294  13.995  21.139  0.00  0.00    +0.000 A 
ATOM     13  C   UNL     1      -4.772  13.269  20.070  0.00  0.00    +0.000 A 
ATOM     14  C   UNL     1      -5.354  12.057  19.699  0.00  0.00    +0.000 A 
ATOM     15  C   UNL     1      -6.461  11.574  20.411  0.00  0.00    +0.000 A 
ATOM     16  C   UNL     1      -7.013  12.316  21.464  0.00  0.00    +0.000 A 
ATOM     17  C   UNL     1      -6.428  13.531  21.826  0.00  0.00    +0.000 A 
BRANCH  15  18
ATOM     18  N   UNL     1      -7.019  10.259  20.077  0.00  0.00    +0.000 N 
ATOM     19  O   UNL     1      -6.960   9.889  18.895  0.00  0.00    +0.000 OA
ATOM     20  O   UNL     1      -7.497   9.586  21.002  0.00  0.00    +0.000 OA
ENDBRANCH  15  18
ENDBRANCH   4  12
BRANCH   7  21
ATOM     21  C   UNL     1      -0.762  17.675  21.972  0.00  0.00    +0.000 C 
BRANCH  21  22
ATOM     22  C   UNL     1      -0.360  17.513  20.516  0.00  0.00    +0.000 A 
ATOM     23  C   UNL     1      -1.321  17.545  19.494  0.00  0.00    +0.000 A 
ATOM     24  C   UNL     1      -0.934  17.500  18.151  0.00  0.00    +0.000 A 
ATOM     25  C   UNL     1       0.418  17.403  17.815  0.00  0.00    +0.000 A 
ATOM     26  C   UNL     1       1.376  17.315  18.821  0.00  0.00    +0.000 A 
ATOM     27  C   UNL     1       0.989  17.353  20.166  0.00  0.00    +0.000 A 
ENDBRANCH  21  22
ENDBRANCH   7  21
BRANCH  11  28
ATOM     28  C   UNL     1      -0.758  13.092  22.638  0.00  0.00    +0.000 C 
BRANCH  28  29
ATOM     29  C   UNL     1      -0.959  12.936  21.151  0.00  0.00    +0.000 A 
ATOM     30  C   UNL     1      -0.555  13.945  20.265  0.00  0.00    +0.000 A 
ATOM     31  C   UNL     1      -0.666  13.768  18.884  0.00  0.00    +0.000 A 
ATOM     32  C   UNL     1      -1.177  12.579  18.373  0.00  0.00    +0.000 A 
ATOM     33  C   UNL     1      -1.596  11.573  19.241  0.00  0.00    +0.000 A 
ATOM     34  C   UNL     1      -1.490  11.750  20.623  0.00  0.00    +0.000 A 
ENDBRANCH  28  29
ENDBRANCH  11  28
TORSDOF 6
ENDMDL
MODEL 8
REMARK VINA RESULT:      -6.0      0.506      1.107
REMARK  Name = 
REMARK  6 active torsions:
REMARK  status: ('A' for Active; 'I' for Inactive)
REMARK    1  A    between atoms: C_4  and  C_5
REMARK    2  A    between atoms: C_8  and  N_9
REMARK    3  A    between atoms: N_16  and  C_17
REMARK    4  A    between atoms: C_17  and  C_18
REMARK    5  A    between atoms: N_27  and  C_28
REMARK    6  A    between atoms: C_28  and  C_29
REMARK                            x       y       z     vdW  Elec       q    Type
REMARK                         _______ _______ _______ _____ _____    ______ ____
ROOT
ATOM      1  O   UNL     1       0.658  12.929  21.862  0.00  0.00    +0.000 OA
ATOM      2  C   UNL     1      -0.444  13.370  22.159  0.00  0.00    +0.000 C 
ATOM      3  C   UNL     1      -1.391  12.627  23.018  0.00  0.00    +0.000 C 
ATOM      4  C   UNL     1      -1.469  11.284  23.067  0.00  0.00    +0.000 C 
ATOM      5  C   UNL     1      -2.523  13.296  23.679  0.00  0.00    +0.000 C 
ATOM      6  O   UNL     1      -3.051  12.861  24.693  0.00  0.00    +0.000 OA
ATOM      7  N   UNL     1      -3.076  14.339  22.919  0.00  0.00    +0.000 N 
ATOM      8  S   UNL     1      -2.002  15.514  22.414  0.00  0.00    +0.000 S 
ATOM      9  O   UNL     1      -1.314  15.976  23.593  0.00  0.00    +0.000 OA
ATOM     10  O   UNL     1      -2.682  16.420  21.518  0.00  0.00    +0.000 OA
ATOM     11  N   UNL     1      -0.964  14.533  21.557  0.00  0.00    +0.000 N 
ENDROOT
BRANCH   4  12
ATOM     12  C   UNL     1      -0.681  10.324  22.297  0.00  0.00    +0.000 A 
ATOM     13  C   UNL     1      -0.889  10.192  20.925  0.00  0.00    +0.000 A 
ATOM     14  C   UNL     1      -0.060   9.362  20.171  0.00  0.00    +0.000 A 
ATOM     15  C   UNL     1       0.984   8.669  20.801  0.00  0.00    +0.000 A 
ATOM     16  C   UNL     1       1.176   8.770  22.187  0.00  0.00    +0.000 A 
ATOM     17  C   UNL     1       0.338   9.598  22.935  0.00  0.00    +0.000 A 
BRANCH  15  18
ATOM     18  N   UNL     1       1.910   7.865  19.996  0.00  0.00    +0.000 N 
ATOM     19  O   UNL     1       2.342   8.360  18.946  0.00  0.00    +0.000 OA
ATOM     20  O   UNL     1       2.221   6.744  20.426  0.00  0.00    +0.000 OA
ENDBRANCH  15  18
ENDBRANCH   4  12
BRANCH   7  21
ATOM     21  C   UNL     1      -4.464  14.766  23.159  0.00  0.00    +0.000 C 
BRANCH  21  22
ATOM     22  C   UNL     1      -5.423  14.185  22.133  0.00  0.00    +0.000 A 
ATOM     23  C   UNL     1      -5.802  12.835  22.184  0.00  0.00    +0.000 A 
ATOM     24  C   UNL     1      -6.764  12.333  21.301  0.00  0.00    +0.000 A 
ATOM     25  C   UNL     1      -7.342  13.170  20.346  0.00  0.00    +0.000 A 
ATOM     26  C   UNL     1      -6.933  14.498  20.250  0.00  0.00    +0.000 A 
ATOM     27  C   UNL     1      -5.966  15.000  21.129  0.00  0.00    +0.000 A 
ENDBRANCH  21  22
ENDBRANCH   7  21
BRANCH  11  28
ATOM     28  C   UNL     1      -1.003  14.642  20.085  0.00  0.00    +0.000 C 
BRANCH  28  29
ATOM     29  C   UNL     1      -1.612  13.459  19.374  0.00  0.00    +0.000 A 
ATOM     30  C   UNL     1      -2.895  13.005  19.712  0.00  0.00    +0.000 A 
ATOM     31  C   UNL     1      -3.493  11.963  19.001  0.00  0.00    +0.000 A 
ATOM     32  C   UNL     1      -2.818  11.365  17.940  0.00  0.00    +0.000 A 
ATOM     33  C   UNL     1      -1.537  11.795  17.603  0.00  0.00    +0.000 A 
ATOM     34  C   UNL     1      -0.935  12.836  18.316  0.00  0.00    +0.000 A 
ENDBRANCH  28  29
ENDBRANCH  11  28
TORSDOF 6
ENDMDL
MODEL 9
REMARK VINA RESULT:      -5.9      9.795     13.045
REMARK  Name = 
REMARK  6 active torsions:
REMARK  status: ('A' for Active; 'I' for Inactive)
REMARK    1  A    between atoms: C_4  and  C_5
REMARK    2  A    between atoms: C_8  and  N_9
REMARK    3  A    between atoms: N_16  and  C_17
REMARK    4  A    between atoms: C_17  and  C_18
REMARK    5  A    between atoms: N_27  and  C_28
REMARK    6  A    between atoms: C_28  and  C_29
REMARK                            x       y       z     vdW  Elec       q    Type
REMARK                         _______ _______ _______ _____ _____    ______ ____
ROOT
ATOM      1  O   UNL     1       7.635  17.876  21.128  0.00  0.00    +0.000 OA
ATOM      2  C   UNL     1       8.574  17.363  20.535  0.00  0.00    +0.000 C 
ATOM      3  C   UNL     1       8.442  16.798  19.176  0.00  0.00    +0.000 C 
ATOM      4  C   UNL     1       7.314  16.238  18.700  0.00  0.00    +0.000 C 
ATOM      5  C   UNL     1       9.617  16.541  18.328  0.00  0.00    +0.000 C 
ATOM      6  O   UNL     1       9.556  16.493  17.106  0.00  0.00    +0.000 OA
ATOM      7  N   UNL     1      10.750  16.134  19.051  0.00  0.00    +0.000 N 
ATOM      8  S   UNL     1      11.218  17.150  20.292  0.00  0.00    +0.000 S 
ATOM      9  O   UNL     1      11.354  18.464  19.717  0.00  0.00    +0.000 OA
ATOM     10  O   UNL     1      12.285  16.523  21.036  0.00  0.00    +0.000 OA
ATOM     11  N   UNL     1       9.805  17.112  21.174  0.00  0.00    +0.000 N 
ENDROOT
BRANCH   4  12
ATOM     12  C   UNL     1       6.048  16.063  19.407  0.00  0.00    +0.000 A 
ATOM     13  C   UNL     1       5.874  14.983  20.272  0.00  0.00    +0.000 A 
ATOM     14  C   UNL     1       4.711  14.879  21.034  0.00  0.00    +0.000 A 
ATOM     15  C   UNL     1       3.724  15.870  20.928  0.00  0.00    +0.000 A 
ATOM     16  C   UNL     1       3.876  16.939  20.034  0.00  0.00    +0.000 A 
ATOM     17  C   UNL     1       5.041  17.032  19.271  0.00  0.00    +0.000 A 
BRANCH  15  18
ATOM     18  N   UNL     1       2.540  15.808  21.793  0.00  0.00    +0.000 N 
ATOM     19  O   UNL     1       1.491  16.315  21.373  0.00  0.00    +0.000 OA
ATOM     20  O   UNL     1       2.656  15.232  22.885  0.00  0.00    +0.000 OA
ENDBRANCH  15  18
ENDBRANCH   4  12
BRANCH   7  21
ATOM     21  C   UNL     1      11.814  15.370  18.380  0.00  0.00    +0.000 C 
BRANCH  21  22
ATOM     22  C   UNL     1      11.600  13.871  18.503  0.00  0.00    +0.000 A 
ATOM     23  C   UNL     1      12.333  13.111  19.428  0.00  0.00    +0.000 A 
ATOM     24  C   UNL     1      12.057  11.751  19.608  0.00  0.00    +0.000 A 
ATOM     25  C   UNL     1      11.059  11.133  18.853  0.00  0.00    +0.000 A 
ATOM     26  C   UNL     1      10.364  11.864  17.893  0.00  0.00    +0.000 A 
ATOM     27  C   UNL     1      10.644  13.223  17.707  0.00  0.00    +0.000 A 
ENDBRANCH  21  22
ENDBRANCH   7  21
BRANCH  11  28
ATOM     28  C   UNL     1       9.831  16.362  22.446  0.00  0.00    +0.000 C 
BRANCH  28  29
ATOM     29  C   UNL     1       9.145  15.019  22.409  0.00  0.00    +0.000 A 
ATOM     30  C   UNL     1       9.623  13.995  21.578  0.00  0.00    +0.000 A 
ATOM     31  C   UNL     1       9.039  12.727  21.603  0.00  0.00    +0.000 A 
ATOM     32  C   UNL     1       7.974  12.466  22.461  0.00  0.00    +0.000 A 
ATOM     33  C   UNL     1       7.480  13.477  23.280  0.00  0.00    +0.000 A 
ATOM     34  C   UNL     1       8.059  14.749  23.254  0.00  0.00    +0.000 A 
ENDBRANCH  28  29
ENDBRANCH  11  28
TORSDOF 6
ENDMDL
