MODEL 1
REMARK VINA RESULT:      -6.8      0.000      0.000
REMARK  Name = 
REMARK  14 active torsions:
REMARK  status: ('A' for Active; 'I' for Inactive)
REMARK    1  A    between atoms: C_1  and  C_2
REMARK    2  A    between atoms: C_7  and  O_8
REMARK    3  A    between atoms: O_8  and  C_9
REMARK    4  A    between atoms: C_9  and  C_10
REMARK    5  A    between atoms: C_10  and  N_11
REMARK    6  A    between atoms: N_11  and  C_12
REMARK    7  A    between atoms: C_12  and  C_13
REMARK    8  A    between atoms: C_12  and  C_14
REMARK    9  A    between atoms: C_14  and  C_15
REMARK   10  A    between atoms: C_19  and  C_20
REMARK   11  A    between atoms: N_24  and  C_25
REMARK   12  A    between atoms: C_25  and  C_26
REMARK   13  A    between atoms: C_26  and  C_27
REMARK   14  A    between atoms: C_27  and  O_28
REMARK                            x       y       z     vdW  Elec       q    Type
REMARK                         _______ _______ _______ _____ _____    ______ ____
ROOT
ATOM      1  C   UNL     1       2.402   7.603  18.589  0.00  0.00    +0.000 A 
ATOM      2  C   UNL     1       2.325   8.738  17.777  0.00  0.00    +0.000 A 
ATOM      3  C   UNL     1       1.591   9.837  18.232  0.00  0.00    +0.000 A 
ATOM      4  C   UNL     1       0.738   9.819  19.345  0.00  0.00    +0.000 A 
ATOM      5  C   UNL     1       1.005   8.774  20.251  0.00  0.00    +0.000 A 
ATOM      6  C   UNL     1       1.730   7.631  19.826  0.00  0.00    +0.000 A 
ATOM      7  N   UNL     1       0.220  11.145  19.673  0.00  0.00    +0.000 N 
ATOM      8  C   UNL     1       1.485  11.884  19.315  0.00  0.00    +0.000 C 
ATOM      9  C   UNL     1       2.008  11.263  17.997  0.00  0.00    +0.000 C 
ENDROOT
BRANCH   5  10
ATOM     10  C   UNL     1       1.059   9.011  21.740  0.00  0.00    +0.000 C 
ATOM     11  N   UNL     1      -0.106   8.938  22.446  0.00  0.00    +0.000 N 
ATOM     12  O   UNL     1       2.083   9.419  22.294  0.00  0.00    +0.000 OA
ATOM     13  H   UNL     1      -0.968   8.850  21.910  0.00  0.00    +0.000 HD
ATOM     14  H   UNL     1      -0.134   9.468  23.309  0.00  0.00    +0.000 HD
ENDBRANCH   5  10
BRANCH   1  15
ATOM     15  C   UNL     1       3.480   6.560  18.335  0.00  0.00    +0.000 C 
BRANCH  15  16
ATOM     16  C   UNL     1       4.792   6.936  17.599  0.00  0.00    +0.000 C 
ATOM     17  C   UNL     1       4.626   6.881  16.080  0.00  0.00    +0.000 C 
BRANCH  16  18
ATOM     18  N   UNL     1       5.934   6.152  18.090  0.00  0.00    +0.000 NA
ATOM     19  H   UNL     1       6.760   6.367  17.530  0.00  0.00    +0.000 HD
BRANCH  18  20
ATOM     20  C   UNL     1       5.741   4.690  18.112  0.00  0.00    +0.000 C 
BRANCH  20  21
ATOM     21  C   UNL     1       5.783   4.015  19.500  0.00  0.00    +0.000 C 
BRANCH  21  22
ATOM     22  O   UNL     1       4.827   2.964  19.542  0.00  0.00    +0.000 OA
BRANCH  22  29
ATOM     23  C   UNL     1       2.677   2.549  17.235  0.00  0.00    +0.000 C 
ATOM     24  C   UNL     1       2.482   3.073  18.627  0.00  0.00    +0.000 A 
ATOM     25  C   UNL     1       1.158   3.438  18.961  0.00  0.00    +0.000 A 
ATOM     26  C   UNL     1       0.830   3.943  20.220  0.00  0.00    +0.000 A 
ATOM     27  C   UNL     1       1.820   4.100  21.173  0.00  0.00    +0.000 A 
ATOM     28  C   UNL     1       3.132   3.742  20.868  0.00  0.00    +0.000 A 
ATOM     29  C   UNL     1       3.485   3.234  19.604  0.00  0.00    +0.000 A 
ENDBRANCH  22  29
ENDBRANCH  21  22
ENDBRANCH  20  21
ENDBRANCH  18  20
ENDBRANCH  16  18
ENDBRANCH  15  16
ENDBRANCH   1  15
BRANCH   7  30
ATOM     30  C   UNL     1      -0.866  11.717  18.796  0.00  0.00    +0.000 C 
BRANCH  30  31
ATOM     31  C   UNL     1      -2.084  10.911  18.368  0.00  0.00    +0.000 C 
BRANCH  31  32
ATOM     32  C   UNL     1      -2.107  10.372  16.950  0.00  0.00    +0.000 C 
BRANCH  32  33
ATOM     33  O   UNL     1      -2.320  11.467  16.049  0.00  0.00    +0.000 OA
ATOM     34  H   UNL     1      -3.134  11.930  16.309  0.00  0.00    +0.000 HD
ENDBRANCH  32  33
ENDBRANCH  31  32
ENDBRANCH  30  31
ENDBRANCH   7  30
TORSDOF 12
ENDMDL
MODEL 2
REMARK VINA RESULT:      -6.6      4.409      8.106
REMARK  Name = 
REMARK  14 active torsions:
REMARK  status: ('A' for Active; 'I' for Inactive)
REMARK    1  A    between atoms: C_1  and  C_2
REMARK    2  A    between atoms: C_7  and  O_8
REMARK    3  A    between atoms: O_8  and  C_9
REMARK    4  A    between atoms: C_9  and  C_10
REMARK    5  A    between atoms: C_10  and  N_11
REMARK    6  A    between atoms: N_11  and  C_12
REMARK    7  A    between atoms: C_12  and  C_13
REMARK    8  A    between atoms: C_12  and  C_14
REMARK    9  A    between atoms: C_14  and  C_15
REMARK   10  A    between atoms: C_19  and  C_20
REMARK   11  A    between atoms: N_24  and  C_25
REMARK   12  A    between atoms: C_25  and  C_26
REMARK   13  A    between atoms: C_26  and  C_27
REMARK   14  A    between atoms: C_27  and  O_28
REMARK                            x       y       z     vdW  Elec       q    Type
REMARK                         _______ _______ _______ _____ _____    ______ ____
ROOT
ATOM      1  C   UNL     1       5.459   5.046  18.614  0.00  0.00    +0.000 A 
ATOM      2  C   UNL     1       4.868   3.855  18.187  0.00  0.00    +0.000 A 
ATOM      3  C   UNL     1       3.497   3.676  18.396  0.00  0.00    +0.000 A 
ATOM      4  C   UNL     1       2.699   4.506  19.198  0.00  0.00    +0.000 A 
ATOM      5  C   UNL     1       3.246   5.784  19.416  0.00  0.00    +0.000 A 
ATOM      6  C   UNL     1       4.636   6.005  19.236  0.00  0.00    +0.000 A 
ATOM      7  N   UNL     1       1.280   4.168  19.111  0.00  0.00    +0.000 N 
ATOM      8  C   UNL     1       1.307   3.814  17.646  0.00  0.00    +0.000 C 
ATOM      9  C   UNL     1       2.595   2.987  17.409  0.00  0.00    +0.000 C 
ENDROOT
BRANCH   5  10
ATOM     10  C   UNL     1       2.410   7.034  19.297  0.00  0.00    +0.000 C 
ATOM     11  N   UNL     1       2.349   7.655  18.084  0.00  0.00    +0.000 N 
ATOM     12  O   UNL     1       1.922   7.584  20.288  0.00  0.00    +0.000 OA
ATOM     13  H   UNL     1       2.972   7.310  17.355  0.00  0.00    +0.000 HD
ATOM     14  H   UNL     1       2.144   8.647  18.105  0.00  0.00    +0.000 HD
ENDBRANCH   5  10
BRANCH   1  15
ATOM     15  C   UNL     1       6.822   5.453  18.074  0.00  0.00    +0.000 C 
BRANCH  15  16
ATOM     16  C   UNL     1       6.956   6.140  16.691  0.00  0.00    +0.000 C 
ATOM     17  C   UNL     1       7.207   5.127  15.574  0.00  0.00    +0.000 C 
BRANCH  16  18
ATOM     18  N   UNL     1       7.940   7.232  16.720  0.00  0.00    +0.000 NA
ATOM     19  H   UNL     1       8.845   6.867  17.018  0.00  0.00    +0.000 HD
BRANCH  18  20
ATOM     20  C   UNL     1       7.587   8.385  17.570  0.00  0.00    +0.000 C 
BRANCH  20  21
ATOM     21  C   UNL     1       8.703   8.923  18.491  0.00  0.00    +0.000 C 
BRANCH  21  22
ATOM     22  O   UNL     1       8.451  10.291  18.786  0.00  0.00    +0.000 OA
BRANCH  22  29
ATOM     23  C   UNL     1       7.742  12.960  17.210  0.00  0.00    +0.000 C 
ATOM     24  C   UNL     1       9.077  12.472  17.690  0.00  0.00    +0.000 A 
ATOM     25  C   UNL     1      10.174  13.313  17.399  0.00  0.00    +0.000 A 
ATOM     26  C   UNL     1      11.474  12.983  17.783  0.00  0.00    +0.000 A 
ATOM     27  C   UNL     1      11.708  11.802  18.465  0.00  0.00    +0.000 A 
ATOM     28  C   UNL     1      10.640  10.959  18.767  0.00  0.00    +0.000 A 
ATOM     29  C   UNL     1       9.322  11.271  18.385  0.00  0.00    +0.000 A 
ENDBRANCH  22  29
ENDBRANCH  21  22
ENDBRANCH  20  21
ENDBRANCH  18  20
ENDBRANCH  16  18
ENDBRANCH  15  16
ENDBRANCH   1  15
BRANCH   7  30
ATOM     30  C   UNL     1       0.802   2.934  19.836  0.00  0.00    +0.000 C 
BRANCH  30  31
ATOM     31  C   UNL     1       0.966   2.749  21.337  0.00  0.00    +0.000 C 
BRANCH  31  32
ATOM     32  C   UNL     1       2.251   3.249  21.970  0.00  0.00    +0.000 C 
BRANCH  32  33
ATOM     33  O   UNL     1       3.235   2.208  21.890  0.00  0.00    +0.000 OA
ATOM     34  H   UNL     1       3.043   1.659  21.112  0.00  0.00    +0.000 HD
ENDBRANCH  32  33
ENDBRANCH  31  32
ENDBRANCH  30  31
ENDBRANCH   7  30
TORSDOF 12
ENDMDL
MODEL 3
REMARK VINA RESULT:      -6.6      1.565      3.102
REMARK  Name = 
REMARK  14 active torsions:
REMARK  status: ('A' for Active; 'I' for Inactive)
REMARK    1  A    between atoms: C_1  and  C_2
REMARK    2  A    between atoms: C_7  and  O_8
REMARK    3  A    between atoms: O_8  and  C_9
REMARK    4  A    between atoms: C_9  and  C_10
REMARK    5  A    between atoms: C_10  and  N_11
REMARK    6  A    between atoms: N_11  and  C_12
REMARK    7  A    between atoms: C_12  and  C_13
REMARK    8  A    between atoms: C_12  and  C_14
REMARK    9  A    between atoms: C_14  and  C_15
REMARK   10  A    between atoms: C_19  and  C_20
REMARK   11  A    between atoms: N_24  and  C_25
REMARK   12  A    between atoms: C_25  and  C_26
REMARK   13  A    between atoms: C_26  and  C_27
REMARK   14  A    between atoms: C_27  and  O_28
REMARK                            x       y       z     vdW  Elec       q    Type
REMARK                         _______ _______ _______ _____ _____    ______ ____
ROOT
ATOM      1  C   UNL     1       2.135   7.917  18.823  0.00  0.00    +0.000 A 
ATOM      2  C   UNL     1       2.019   9.085  18.065  0.00  0.00    +0.000 A 
ATOM      3  C   UNL     1       1.302  10.160  18.597  0.00  0.00    +0.000 A 
ATOM      4  C   UNL     1       0.500  10.090  19.746  0.00  0.00    +0.000 A 
ATOM      5  C   UNL     1       0.810   9.010  20.594  0.00  0.00    +0.000 A 
ATOM      6  C   UNL     1       1.518   7.889  20.088  0.00  0.00    +0.000 A 
ATOM      7  N   UNL     1      -0.007  11.399  20.153  0.00  0.00    +0.000 N 
ATOM      8  C   UNL     1       1.238  12.159  19.771  0.00  0.00    +0.000 C 
ATOM      9  C   UNL     1       1.704  11.597  18.406  0.00  0.00    +0.000 C 
ENDROOT
BRANCH   5  10
ATOM     10  C   UNL     1       0.929   9.183  22.087  0.00  0.00    +0.000 C 
ATOM     11  N   UNL     1       2.159   9.036  22.656  0.00  0.00    +0.000 N 
ATOM     12  O   UNL     1      -0.067   9.295  22.808  0.00  0.00    +0.000 OA
ATOM     13  H   UNL     1       2.909   8.693  22.058  0.00  0.00    +0.000 HD
ATOM     14  H   UNL     1       2.165   8.760  23.632  0.00  0.00    +0.000 HD
ENDBRANCH   5  10
BRANCH   1  15
ATOM     15  C   UNL     1       3.204   6.891  18.477  0.00  0.00    +0.000 C 
BRANCH  15  16
ATOM     16  C   UNL     1       2.894   5.373  18.528  0.00  0.00    +0.000 C 
ATOM     17  C   UNL     1       1.596   5.033  17.796  0.00  0.00    +0.000 C 
BRANCH  16  18
ATOM     18  N   UNL     1       2.943   4.854  19.902  0.00  0.00    +0.000 NA
ATOM     19  H   UNL     1       3.487   5.489  20.487  0.00  0.00    +0.000 HD
BRANCH  18  20
ATOM     20  C   UNL     1       3.483   3.489  20.049  0.00  0.00    +0.000 C 
BRANCH  20  21
ATOM     21  C   UNL     1       4.503   3.039  18.980  0.00  0.00    +0.000 C 
BRANCH  21  22
ATOM     22  O   UNL     1       5.762   3.642  19.248  0.00  0.00    +0.000 OA
BRANCH  22  29
ATOM     23  C   UNL     1       5.332   3.924  16.110  0.00  0.00    +0.000 C 
ATOM     24  C   UNL     1       6.111   4.806  17.040  0.00  0.00    +0.000 A 
ATOM     25  C   UNL     1       6.748   5.915  16.439  0.00  0.00    +0.000 A 
ATOM     26  C   UNL     1       7.508   6.817  17.183  0.00  0.00    +0.000 A 
ATOM     27  C   UNL     1       7.654   6.629  18.546  0.00  0.00    +0.000 A 
ATOM     28  C   UNL     1       7.031   5.544  19.161  0.00  0.00    +0.000 A 
ATOM     29  C   UNL     1       6.263   4.620  18.429  0.00  0.00    +0.000 A 
ENDBRANCH  22  29
ENDBRANCH  21  22
ENDBRANCH  20  21
ENDBRANCH  18  20
ENDBRANCH  16  18
ENDBRANCH  15  16
ENDBRANCH   1  15
BRANCH   7  30
ATOM     30  C   UNL     1      -1.133  12.002  19.349  0.00  0.00    +0.000 C 
BRANCH  30  31
ATOM     31  C   UNL     1      -2.149  11.155  18.597  0.00  0.00    +0.000 C 
BRANCH  31  32
ATOM     32  C   UNL     1      -3.554  11.709  18.449  0.00  0.00    +0.000 C 
BRANCH  32  33
ATOM     33  O   UNL     1      -3.796  11.974  17.061  0.00  0.00    +0.000 OA
ATOM     34  H   UNL     1      -3.637  12.918  16.891  0.00  0.00    +0.000 HD
ENDBRANCH  32  33
ENDBRANCH  31  32
ENDBRANCH  30  31
ENDBRANCH   7  30
TORSDOF 12
ENDMDL
MODEL 4
REMARK VINA RESULT:      -6.6      1.620      3.474
REMARK  Name = 
REMARK  14 active torsions:
REMARK  status: ('A' for Active; 'I' for Inactive)
REMARK    1  A    between atoms: C_1  and  C_2
REMARK    2  A    between atoms: C_7  and  O_8
REMARK    3  A    between atoms: O_8  and  C_9
REMARK    4  A    between atoms: C_9  and  C_10
REMARK    5  A    between atoms: C_10  and  N_11
REMARK    6  A    between atoms: N_11  and  C_12
REMARK    7  A    between atoms: C_12  and  C_13
REMARK    8  A    between atoms: C_12  and  C_14
REMARK    9  A    between atoms: C_14  and  C_15
REMARK   10  A    between atoms: C_19  and  C_20
REMARK   11  A    between atoms: N_24  and  C_25
REMARK   12  A    between atoms: C_25  and  C_26
REMARK   13  A    between atoms: C_26  and  C_27
REMARK   14  A    between atoms: C_27  and  O_28
REMARK                            x       y       z     vdW  Elec       q    Type
REMARK                         _______ _______ _______ _____ _____    ______ ____
ROOT
ATOM      1  C   UNL     1       2.019   7.337  19.301  0.00  0.00    +0.000 A 
ATOM      2  C   UNL     1       2.017   8.257  18.250  0.00  0.00    +0.000 A 
ATOM      3  C   UNL     1       1.450   9.516  18.465  0.00  0.00    +0.000 A 
ATOM      4  C   UNL     1       0.684   9.863  19.588  0.00  0.00    +0.000 A 
ATOM      5  C   UNL     1       0.892   9.027  20.701  0.00  0.00    +0.000 A 
ATOM      6  C   UNL     1       1.446   7.732  20.525  0.00  0.00    +0.000 A 
ATOM      7  N   UNL     1       0.349  11.285  19.617  0.00  0.00    +0.000 N 
ATOM      8  C   UNL     1       1.662  11.752  19.042  0.00  0.00    +0.000 C 
ATOM      9  C   UNL     1       2.012  10.785  17.885  0.00  0.00    +0.000 C 
ENDROOT
BRANCH   5  10
ATOM     10  C   UNL     1       1.080   9.587  22.089  0.00  0.00    +0.000 C 
ATOM     11  N   UNL     1       2.080   9.071  22.861  0.00  0.00    +0.000 N 
ATOM     12  O   UNL     1       0.267  10.370  22.587  0.00  0.00    +0.000 OA
ATOM     13  H   UNL     1       2.565   8.250  22.504  0.00  0.00    +0.000 HD
ATOM     14  H   UNL     1       1.949   9.149  23.863  0.00  0.00    +0.000 HD
ENDBRANCH   5  10
BRANCH   1  15
ATOM     15  C   UNL     1       2.948   6.132  19.253  0.00  0.00    +0.000 C 
BRANCH  15  16
ATOM     16  C   UNL     1       2.381   4.698  19.102  0.00  0.00    +0.000 C 
ATOM     17  C   UNL     1       2.214   4.007  20.456  0.00  0.00    +0.000 C 
BRANCH  16  18
ATOM     18  N   UNL     1       3.156   3.906  18.135  0.00  0.00    +0.000 NA
ATOM     19  H   UNL     1       2.528   3.290  17.618  0.00  0.00    +0.000 HD
BRANCH  18  20
ATOM     20  C   UNL     1       4.253   3.101  18.705  0.00  0.00    +0.000 C 
BRANCH  20  21
ATOM     21  C   UNL     1       5.416   3.886  19.349  0.00  0.00    +0.000 C 
BRANCH  21  22
ATOM     22  O   UNL     1       6.395   4.172  18.359  0.00  0.00    +0.000 OA
BRANCH  22  29
ATOM     23  C   UNL     1       5.074   6.054  16.162  0.00  0.00    +0.000 C 
ATOM     24  C   UNL     1       6.199   6.351  17.109  0.00  0.00    +0.000 A 
ATOM     25  C   UNL     1       6.754   7.647  17.008  0.00  0.00    +0.000 A 
ATOM     26  C   UNL     1       7.808   8.060  17.825  0.00  0.00    +0.000 A 
ATOM     27  C   UNL     1       8.335   7.184  18.757  0.00  0.00    +0.000 A 
ATOM     28  C   UNL     1       7.800   5.903  18.876  0.00  0.00    +0.000 A 
ATOM     29  C   UNL     1       6.740   5.465  18.061  0.00  0.00    +0.000 A 
ENDBRANCH  22  29
ENDBRANCH  21  22
ENDBRANCH  20  21
ENDBRANCH  18  20
ENDBRANCH  16  18
ENDBRANCH  15  16
ENDBRANCH   1  15
BRANCH   7  30
ATOM     30  C   UNL     1      -0.725  11.778  18.678  0.00  0.00    +0.000 C 
BRANCH  30  31
ATOM     31  C   UNL     1      -1.763  10.853  18.061  0.00  0.00    +0.000 C 
BRANCH  31  32
ATOM     32  C   UNL     1      -2.853  11.485  17.216  0.00  0.00    +0.000 C 
BRANCH  32  33
ATOM     33  O   UNL     1      -2.436  11.468  15.844  0.00  0.00    +0.000 OA
ATOM     34  H   UNL     1      -1.464  11.450  15.815  0.00  0.00    +0.000 HD
ENDBRANCH  32  33
ENDBRANCH  31  32
ENDBRANCH  30  31
ENDBRANCH   7  30
TORSDOF 12
ENDMDL
MODEL 5
REMARK VINA RESULT:      -6.6      1.123      1.300
REMARK  Name = 
REMARK  14 active torsions:
REMARK  status: ('A' for Active; 'I' for Inactive)
REMARK    1  A    between atoms: C_1  and  C_2
REMARK    2  A    between atoms: C_7  and  O_8
REMARK    3  A    between atoms: O_8  and  C_9
REMARK    4  A    between atoms: C_9  and  C_10
REMARK    5  A    between atoms: C_10  and  N_11
REMARK    6  A    between atoms: N_11  and  C_12
REMARK    7  A    between atoms: C_12  and  C_13
REMARK    8  A    between atoms: C_12  and  C_14
REMARK    9  A    between atoms: C_14  and  C_15
REMARK   10  A    between atoms: C_19  and  C_20
REMARK   11  A    between atoms: N_24  and  C_25
REMARK   12  A    between atoms: C_25  and  C_26
REMARK   13  A    between atoms: C_26  and  C_27
REMARK   14  A    between atoms: C_27  and  O_28
REMARK                            x       y       z     vdW  Elec       q    Type
REMARK                         _______ _______ _______ _____ _____    ______ ____
ROOT
ATOM      1  C   UNL     1       2.018   8.655  18.576  0.00  0.00    +0.000 A 
ATOM      2  C   UNL     1       1.646   9.856  17.966  0.00  0.00    +0.000 A 
ATOM      3  C   UNL     1       0.728  10.681  18.620  0.00  0.00    +0.000 A 
ATOM      4  C   UNL     1      -0.024  10.304  19.742  0.00  0.00    +0.000 A 
ATOM      5  C   UNL     1       0.520   9.217  20.453  0.00  0.00    +0.000 A 
ATOM      6  C   UNL     1       1.441   8.342  19.821  0.00  0.00    +0.000 A 
ATOM      7  N   UNL     1      -0.789  11.416  20.302  0.00  0.00    +0.000 N 
ATOM      8  C   UNL     1       0.263  12.462  20.030  0.00  0.00    +0.000 C 
ATOM      9  C   UNL     1       0.815  12.183  18.611  0.00  0.00    +0.000 C 
ENDROOT
BRANCH   5  10
ATOM     10  C   UNL     1       0.624   9.227  21.958  0.00  0.00    +0.000 C 
ATOM     11  N   UNL     1      -0.497   8.945  22.682  0.00  0.00    +0.000 N 
ATOM     12  O   UNL     1       1.637   9.633  22.535  0.00  0.00    +0.000 OA
ATOM     13  H   UNL     1      -1.373   8.866  22.169  0.00  0.00    +0.000 HD
ATOM     14  H   UNL     1      -0.528   9.333  23.619  0.00  0.00    +0.000 HD
ENDBRANCH   5  10
BRANCH   1  15
ATOM     15  C   UNL     1       3.274   7.928  18.118  0.00  0.00    +0.000 C 
BRANCH  15  16
ATOM     16  C   UNL     1       3.392   6.388  18.246  0.00  0.00    +0.000 C 
ATOM     17  C   UNL     1       2.054   5.691  17.996  0.00  0.00    +0.000 C 
BRANCH  16  18
ATOM     18  N   UNL     1       4.026   5.995  19.513  0.00  0.00    +0.000 NA
ATOM     19  H   UNL     1       4.123   6.815  20.113  0.00  0.00    +0.000 HD
BRANCH  18  20
ATOM     20  C   UNL     1       5.340   5.336  19.390  0.00  0.00    +0.000 C 
BRANCH  20  21
ATOM     21  C   UNL     1       5.346   3.941  18.728  0.00  0.00    +0.000 C 
BRANCH  21  22
ATOM     22  O   UNL     1       4.838   2.982  19.647  0.00  0.00    +0.000 OA
BRANCH  22  29
ATOM     23  C   UNL     1       2.724   2.102  17.440  0.00  0.00    +0.000 C 
ATOM     24  C   UNL     1       2.501   2.426  18.888  0.00  0.00    +0.000 A 
ATOM     25  C   UNL     1       1.163   2.331  19.334  0.00  0.00    +0.000 A 
ATOM     26  C   UNL     1       0.809   2.605  20.656  0.00  0.00    +0.000 A 
ATOM     27  C   UNL     1       1.783   2.986  21.561  0.00  0.00    +0.000 A 
ATOM     28  C   UNL     1       3.109   3.082  21.144  0.00  0.00    +0.000 A 
ATOM     29  C   UNL     1       3.488   2.813  19.816  0.00  0.00    +0.000 A 
ENDBRANCH  22  29
ENDBRANCH  21  22
ENDBRANCH  20  21
ENDBRANCH  18  20
ENDBRANCH  16  18
ENDBRANCH  15  16
ENDBRANCH   1  15
BRANCH   7  30
ATOM     30  C   UNL     1      -2.029  11.862  19.567  0.00  0.00    +0.000 C 
BRANCH  30  31
ATOM     31  C   UNL     1      -2.792  10.950  18.618  0.00  0.00    +0.000 C 
BRANCH  31  32
ATOM     32  C   UNL     1      -3.185  11.515  17.266  0.00  0.00    +0.000 C 
BRANCH  32  33
ATOM     33  O   UNL     1      -1.993  11.750  16.504  0.00  0.00    +0.000 OA
ATOM     34  H   UNL     1      -1.707  12.668  16.649  0.00  0.00    +0.000 HD
ENDBRANCH  32  33
ENDBRANCH  31  32
ENDBRANCH  30  31
ENDBRANCH   7  30
TORSDOF 12
ENDMDL
MODEL 6
REMARK VINA RESULT:      -6.5      1.720      3.708
REMARK  Name = 
REMARK  14 active torsions:
REMARK  status: ('A' for Active; 'I' for Inactive)
REMARK    1  A    between atoms: C_1  and  C_2
REMARK    2  A    between atoms: C_7  and  O_8
REMARK    3  A    between atoms: O_8  and  C_9
REMARK    4  A    between atoms: C_9  and  C_10
REMARK    5  A    between atoms: C_10  and  N_11
REMARK    6  A    between atoms: N_11  and  C_12
REMARK    7  A    between atoms: C_12  and  C_13
REMARK    8  A    between atoms: C_12  and  C_14
REMARK    9  A    between atoms: C_14  and  C_15
REMARK   10  A    between atoms: C_19  and  C_20
REMARK   11  A    between atoms: N_24  and  C_25
REMARK   12  A    between atoms: C_25  and  C_26
REMARK   13  A    between atoms: C_26  and  C_27
REMARK   14  A    between atoms: C_27  and  O_28
REMARK                            x       y       z     vdW  Elec       q    Type
REMARK                         _______ _______ _______ _____ _____    ______ ____
ROOT
ATOM      1  C   UNL     1       1.946   6.579  20.039  0.00  0.00    +0.000 A 
ATOM      2  C   UNL     1       2.098   7.308  18.858  0.00  0.00    +0.000 A 
ATOM      3  C   UNL     1       1.561   8.597  18.793  0.00  0.00    +0.000 A 
ATOM      4  C   UNL     1       0.688   9.144  19.744  0.00  0.00    +0.000 A 
ATOM      5  C   UNL     1       0.736   8.504  20.997  0.00  0.00    +0.000 A 
ATOM      6  C   UNL     1       1.254   7.187  21.105  0.00  0.00    +0.000 A 
ATOM      7  N   UNL     1       0.408  10.557  19.498  0.00  0.00    +0.000 N 
ATOM      8  C   UNL     1       1.795  10.893  19.012  0.00  0.00    +0.000 C 
ATOM      9  C   UNL     1       2.235   9.737  18.080  0.00  0.00    +0.000 C 
ENDROOT
BRANCH   5  10
ATOM     10  C   UNL     1       0.789   9.286  22.285  0.00  0.00    +0.000 C 
ATOM     11  N   UNL     1      -0.383   9.758  22.801  0.00  0.00    +0.000 N 
ATOM     12  O   UNL     1       1.861   9.639  22.786  0.00  0.00    +0.000 OA
ATOM     13  H   UNL     1      -1.216   9.662  22.222  0.00  0.00    +0.000 HD
ATOM     14  H   UNL     1      -0.307  10.575  23.395  0.00  0.00    +0.000 HD
ENDBRANCH   5  10
BRANCH   1  15
ATOM     15  C   UNL     1       2.825   5.365  20.301  0.00  0.00    +0.000 C 
BRANCH  15  16
ATOM     16  C   UNL     1       2.325   3.935  19.972  0.00  0.00    +0.000 C 
ATOM     17  C   UNL     1       1.321   3.431  21.010  0.00  0.00    +0.000 C 
BRANCH  16  18
ATOM     18  N   UNL     1       3.442   3.008  19.742  0.00  0.00    +0.000 NA
ATOM     19  H   UNL     1       4.318   3.458  20.011  0.00  0.00    +0.000 HD
BRANCH  18  20
ATOM     20  C   UNL     1       3.571   2.496  18.366  0.00  0.00    +0.000 C 
BRANCH  20  21
ATOM     21  C   UNL     1       2.931   3.354  17.253  0.00  0.00    +0.000 C 
BRANCH  21  22
ATOM     22  O   UNL     1       3.608   4.602  17.174  0.00  0.00    +0.000 OA
BRANCH  22  29
ATOM     23  C   UNL     1       6.162   5.336  18.921  0.00  0.00    +0.000 C 
ATOM     24  C   UNL     1       6.081   4.987  17.464  0.00  0.00    +0.000 A 
ATOM     25  C   UNL     1       7.311   4.988  16.769  0.00  0.00    +0.000 A 
ATOM     26  C   UNL     1       7.386   4.685  15.409  0.00  0.00    +0.000 A 
ATOM     27  C   UNL     1       6.231   4.377  14.711  0.00  0.00    +0.000 A 
ATOM     28  C   UNL     1       5.008   4.366  15.379  0.00  0.00    +0.000 A 
ATOM     29  C   UNL     1       4.909   4.672  16.748  0.00  0.00    +0.000 A 
ENDBRANCH  22  29
ENDBRANCH  21  22
ENDBRANCH  20  21
ENDBRANCH  18  20
ENDBRANCH  16  18
ENDBRANCH  15  16
ENDBRANCH   1  15
BRANCH   7  30
ATOM     30  C   UNL     1      -0.532  10.906  18.370  0.00  0.00    +0.000 C 
BRANCH  30  31
ATOM     31  C   UNL     1      -2.024  10.614  18.427  0.00  0.00    +0.000 C 
BRANCH  31  32
ATOM     32  C   UNL     1      -2.969  11.799  18.494  0.00  0.00    +0.000 C 
BRANCH  32  33
ATOM     33  O   UNL     1      -3.657  11.906  17.240  0.00  0.00    +0.000 OA
ATOM     34  H   UNL     1      -4.597  12.081  17.415  0.00  0.00    +0.000 HD
ENDBRANCH  32  33
ENDBRANCH  31  32
ENDBRANCH  30  31
ENDBRANCH   7  30
TORSDOF 12
ENDMDL
MODEL 7
REMARK VINA RESULT:      -6.4      1.740      3.665
REMARK  Name = 
REMARK  14 active torsions:
REMARK  status: ('A' for Active; 'I' for Inactive)
REMARK    1  A    between atoms: C_1  and  C_2
REMARK    2  A    between atoms: C_7  and  O_8
REMARK    3  A    between atoms: O_8  and  C_9
REMARK    4  A    between atoms: C_9  and  C_10
REMARK    5  A    between atoms: C_10  and  N_11
REMARK    6  A    between atoms: N_11  and  C_12
REMARK    7  A    between atoms: C_12  and  C_13
REMARK    8  A    between atoms: C_12  and  C_14
REMARK    9  A    between atoms: C_14  and  C_15
REMARK   10  A    between atoms: C_19  and  C_20
REMARK   11  A    between atoms: N_24  and  C_25
REMARK   12  A    between atoms: C_25  and  C_26
REMARK   13  A    between atoms: C_26  and  C_27
REMARK   14  A    between atoms: C_27  and  O_28
REMARK                            x       y       z     vdW  Elec       q    Type
REMARK                         _______ _______ _______ _____ _____    ______ ____
ROOT
ATOM      1  C   UNL     1       1.259   7.222  20.185  0.00  0.00    +0.000 A 
ATOM      2  C   UNL     1       1.482   8.132  19.149  0.00  0.00    +0.000 A 
ATOM      3  C   UNL     1       0.980   9.430  19.279  0.00  0.00    +0.000 A 
ATOM      4  C   UNL     1       0.079   9.839  20.273  0.00  0.00    +0.000 A 
ATOM      5  C   UNL     1       0.055   8.998  21.402  0.00  0.00    +0.000 A 
ATOM      6  C   UNL     1       0.536   7.666  21.308  0.00  0.00    +0.000 A 
ATOM      7  N   UNL     1      -0.155  11.281  20.256  0.00  0.00    +0.000 N 
ATOM      8  C   UNL     1       1.260  11.650  19.889  0.00  0.00    +0.000 C 
ATOM      9  C   UNL     1       1.713  10.652  18.795  0.00  0.00    +0.000 C 
ENDROOT
BRANCH   5  10
ATOM     10  C   UNL     1       0.070   9.554  22.804  0.00  0.00    +0.000 C 
ATOM     11  N   UNL     1      -1.098  10.036  23.318  0.00  0.00    +0.000 N 
ATOM     12  O   UNL     1       1.125   9.725  23.422  0.00  0.00    +0.000 OA
ATOM     13  H   UNL     1      -1.890  10.108  22.681  0.00  0.00    +0.000 HD
ATOM     14  H   UNL     1      -1.006  10.736  24.045  0.00  0.00    +0.000 HD
ENDBRANCH   5  10
BRANCH   1  15
ATOM     15  C   UNL     1       2.096   5.954  20.274  0.00  0.00    +0.000 C 
BRANCH  15  16
ATOM     16  C   UNL     1       1.449   4.600  20.660  0.00  0.00    +0.000 C 
ATOM     17  C   UNL     1       2.349   3.781  21.585  0.00  0.00    +0.000 C 
BRANCH  16  18
ATOM     18  N   UNL     1       0.999   3.856  19.474  0.00  0.00    +0.000 NA
ATOM     19  H   UNL     1       1.047   2.854  19.663  0.00  0.00    +0.000 HD
BRANCH  18  20
ATOM     20  C   UNL     1       1.734   4.141  18.227  0.00  0.00    +0.000 C 
BRANCH  20  21
ATOM     21  C   UNL     1       2.894   3.183  17.882  0.00  0.00    +0.000 C 
BRANCH  21  22
ATOM     22  O   UNL     1       4.131   3.864  18.042  0.00  0.00    +0.000 OA
BRANCH  22  29
ATOM     23  C   UNL     1       4.208   6.972  17.372  0.00  0.00    +0.000 C 
ATOM     24  C   UNL     1       4.823   5.827  16.622  0.00  0.00    +0.000 A 
ATOM     25  C   UNL     1       5.533   6.177  15.451  0.00  0.00    +0.000 A 
ATOM     26  C   UNL     1       6.155   5.214  14.654  0.00  0.00    +0.000 A 
ATOM     27  C   UNL     1       6.077   3.879  15.007  0.00  0.00    +0.000 A 
ATOM     28  C   UNL     1       5.385   3.512  16.160  0.00  0.00    +0.000 A 
ATOM     29  C   UNL     1       4.749   4.465  16.976  0.00  0.00    +0.000 A 
ENDBRANCH  22  29
ENDBRANCH  21  22
ENDBRANCH  20  21
ENDBRANCH  18  20
ENDBRANCH  16  18
ENDBRANCH  15  16
ENDBRANCH   1  15
BRANCH   7  30
ATOM     30  C   UNL     1      -1.035  11.842  19.166  0.00  0.00    +0.000 C 
BRANCH  30  31
ATOM     31  C   UNL     1      -2.232  11.086  18.608  0.00  0.00    +0.000 C 
BRANCH  31  32
ATOM     32  C   UNL     1      -2.077  10.432  17.248  0.00  0.00    +0.000 C 
BRANCH  32  33
ATOM     33  O   UNL     1      -3.322   9.815  16.894  0.00  0.00    +0.000 OA
ATOM     34  H   UNL     1      -3.137   8.957  16.477  0.00  0.00    +0.000 HD
ENDBRANCH  32  33
ENDBRANCH  31  32
ENDBRANCH  30  31
ENDBRANCH   7  30
TORSDOF 12
ENDMDL
MODEL 8
REMARK VINA RESULT:      -6.4      2.056      3.013
REMARK  Name = 
REMARK  14 active torsions:
REMARK  status: ('A' for Active; 'I' for Inactive)
REMARK    1  A    between atoms: C_1  and  C_2
REMARK    2  A    between atoms: C_7  and  O_8
REMARK    3  A    between atoms: O_8  and  C_9
REMARK    4  A    between atoms: C_9  and  C_10
REMARK    5  A    between atoms: C_10  and  N_11
REMARK    6  A    between atoms: N_11  and  C_12
REMARK    7  A    between atoms: C_12  and  C_13
REMARK    8  A    between atoms: C_12  and  C_14
REMARK    9  A    between atoms: C_14  and  C_15
REMARK   10  A    between atoms: C_19  and  C_20
REMARK   11  A    between atoms: N_24  and  C_25
REMARK   12  A    between atoms: C_25  and  C_26
REMARK   13  A    between atoms: C_26  and  C_27
REMARK   14  A    between atoms: C_27  and  O_28
REMARK                            x       y       z     vdW  Elec       q    Type
REMARK                         _______ _______ _______ _____ _____    ______ ____
ROOT
ATOM      1  C   UNL     1       1.628   9.259  18.252  0.00  0.00    +0.000 A 
ATOM      2  C   UNL     1       0.253   9.059  18.108  0.00  0.00    +0.000 A 
ATOM      3  C   UNL     1      -0.609  10.126  18.376  0.00  0.00    +0.000 A 
ATOM      4  C   UNL     1      -0.223  11.327  18.990  0.00  0.00    +0.000 A 
ATOM      5  C   UNL     1       1.158  11.589  18.912  0.00  0.00    +0.000 A 
ATOM      6  C   UNL     1       2.070  10.531  18.662  0.00  0.00    +0.000 A 
ATOM      7  N   UNL     1      -1.299  12.316  19.005  0.00  0.00    +0.000 N 
ATOM      8  C   UNL     1      -1.853  11.945  17.653  0.00  0.00    +0.000 C 
ATOM      9  C   UNL     1      -1.857  10.398  17.582  0.00  0.00    +0.000 C 
ENDROOT
BRANCH   5  10
ATOM     10  C   UNL     1       1.685  12.951  18.535  0.00  0.00    +0.000 C 
ATOM     11  N   UNL     1       2.368  13.075  17.360  0.00  0.00    +0.000 N 
ATOM     12  O   UNL     1       1.653  13.899  19.325  0.00  0.00    +0.000 OA
ATOM     13  H   UNL     1       2.591  12.215  16.861  0.00  0.00    +0.000 HD
ATOM     14  H   UNL     1       3.031  13.840  17.313  0.00  0.00    +0.000 HD
ENDBRANCH   5  10
BRANCH   1  15
ATOM     15  C   UNL     1       2.608   8.286  17.612  0.00  0.00    +0.000 C 
BRANCH  15  16
ATOM     16  C   UNL     1       2.832   6.874  18.211  0.00  0.00    +0.000 C 
ATOM     17  C   UNL     1       2.474   6.823  19.696  0.00  0.00    +0.000 C 
BRANCH  16  18
ATOM     18  N   UNL     1       4.181   6.368  17.918  0.00  0.00    +0.000 NA
ATOM     19  H   UNL     1       4.152   5.791  17.077  0.00  0.00    +0.000 HD
BRANCH  18  20
ATOM     20  C   UNL     1       4.821   5.600  19.002  0.00  0.00    +0.000 C 
BRANCH  20  21
ATOM     21  C   UNL     1       5.339   4.193  18.631  0.00  0.00    +0.000 C 
BRANCH  21  22
ATOM     22  O   UNL     1       4.238   3.362  18.289  0.00  0.00    +0.000 OA
BRANCH  22  29
ATOM     23  C   UNL     1       1.190   3.922  17.575  0.00  0.00    +0.000 C 
ATOM     24  C   UNL     1       1.789   3.473  18.875  0.00  0.00    +0.000 A 
ATOM     25  C   UNL     1       0.873   3.274  19.932  0.00  0.00    +0.000 A 
ATOM     26  C   UNL     1       1.291   2.858  21.197  0.00  0.00    +0.000 A 
ATOM     27  C   UNL     1       2.635   2.637  21.436  0.00  0.00    +0.000 A 
ATOM     28  C   UNL     1       3.556   2.822  20.406  0.00  0.00    +0.000 A 
ATOM     29  C   UNL     1       3.157   3.244  19.124  0.00  0.00    +0.000 A 
ENDBRANCH  22  29
ENDBRANCH  21  22
ENDBRANCH  20  21
ENDBRANCH  18  20
ENDBRANCH  16  18
ENDBRANCH  15  16
ENDBRANCH   1  15
BRANCH   7  30
ATOM     30  C   UNL     1      -2.423  12.123  19.992  0.00  0.00    +0.000 C 
BRANCH  30  31
ATOM     31  C   UNL     1      -3.630  13.048  20.052  0.00  0.00    +0.000 C 
BRANCH  31  32
ATOM     32  C   UNL     1      -4.976  12.473  19.654  0.00  0.00    +0.000 C 
BRANCH  32  33
ATOM     33  O   UNL     1      -5.331  12.993  18.365  0.00  0.00    +0.000 OA
ATOM     34  H   UNL     1      -4.855  12.488  17.684  0.00  0.00    +0.000 HD
ENDBRANCH  32  33
ENDBRANCH  31  32
ENDBRANCH  30  31
ENDBRANCH   7  30
TORSDOF 12
ENDMDL
MODEL 9
REMARK VINA RESULT:      -6.4      1.750      2.001
REMARK  Name = 
REMARK  14 active torsions:
REMARK  status: ('A' for Active; 'I' for Inactive)
REMARK    1  A    between atoms: C_1  and  C_2
REMARK    2  A    between atoms: C_7  and  O_8
REMARK    3  A    between atoms: O_8  and  C_9
REMARK    4  A    between atoms: C_9  and  C_10
REMARK    5  A    between atoms: C_10  and  N_11
REMARK    6  A    between atoms: N_11  and  C_12
REMARK    7  A    between atoms: C_12  and  C_13
REMARK    8  A    between atoms: C_12  and  C_14
REMARK    9  A    between atoms: C_14  and  C_15
REMARK   10  A    between atoms: C_19  and  C_20
REMARK   11  A    between atoms: N_24  and  C_25
REMARK   12  A    between atoms: C_25  and  C_26
REMARK   13  A    between atoms: C_26  and  C_27
REMARK   14  A    between atoms: C_27  and  O_28
REMARK                            x       y       z     vdW  Elec       q    Type
REMARK                         _______ _______ _______ _____ _____    ______ ____
ROOT
ATOM      1  C   UNL     1       1.823   7.940  19.601  0.00  0.00    +0.000 A 
ATOM      2  C   UNL     1       1.651   9.024  18.738  0.00  0.00    +0.000 A 
ATOM      3  C   UNL     1       0.817  10.072  19.138  0.00  0.00    +0.000 A 
ATOM      4  C   UNL     1      -0.038  10.028  20.249  0.00  0.00    +0.000 A 
ATOM      5  C   UNL     1       0.315   9.055  21.203  0.00  0.00    +0.000 A 
ATOM      6  C   UNL     1       1.143   7.963  20.833  0.00  0.00    +0.000 A 
ATOM      7  N   UNL     1      -0.675  11.317  20.514  0.00  0.00    +0.000 N 
ATOM      8  C   UNL     1       0.521  12.149  20.126  0.00  0.00    +0.000 C 
ATOM      9  C   UNL     1       1.106  11.518  18.839  0.00  0.00    +0.000 C 
ENDROOT
BRANCH   5  10
ATOM     10  C   UNL     1       0.337   9.364  22.679  0.00  0.00    +0.000 C 
ATOM     11  N   UNL     1      -0.856   9.526  23.321  0.00  0.00    +0.000 N 
ATOM     12  O   UNL     1       1.388   9.626  23.271  0.00  0.00    +0.000 OA
ATOM     13  H   UNL     1      -1.693   9.553  22.742  0.00  0.00    +0.000 HD
ATOM     14  H   UNL     1      -0.834  10.101  24.155  0.00  0.00    +0.000 HD
ENDBRANCH   5  10
BRANCH   1  15
ATOM     15  C   UNL     1       2.993   6.987  19.399  0.00  0.00    +0.000 C 
BRANCH  15  16
ATOM     16  C   UNL     1       3.382   6.496  17.981  0.00  0.00    +0.000 C 
ATOM     17  C   UNL     1       2.459   5.380  17.492  0.00  0.00    +0.000 C 
BRANCH  16  18
ATOM     18  N   UNL     1       4.809   6.152  17.898  0.00  0.00    +0.000 NA
ATOM     19  H   UNL     1       4.965   5.538  17.099  0.00  0.00    +0.000 HD
BRANCH  18  20
ATOM     20  C   UNL     1       5.383   5.523  19.102  0.00  0.00    +0.000 C 
BRANCH  20  21
ATOM     21  C   UNL     1       5.570   3.991  19.051  0.00  0.00    +0.000 C 
BRANCH  21  22
ATOM     22  O   UNL     1       4.817   3.390  20.095  0.00  0.00    +0.000 OA
BRANCH  22  29
ATOM     23  C   UNL     1       3.503   1.337  18.053  0.00  0.00    +0.000 C 
ATOM     24  C   UNL     1       2.836   2.228  19.059  0.00  0.00    +0.000 A 
ATOM     25  C   UNL     1       1.426   2.148  19.105  0.00  0.00    +0.000 A 
ATOM     26  C   UNL     1       0.674   2.921  19.991  0.00  0.00    +0.000 A 
ATOM     27  C   UNL     1       1.316   3.796  20.849  0.00  0.00    +0.000 A 
ATOM     28  C   UNL     1       2.706   3.888  20.825  0.00  0.00    +0.000 A 
ATOM     29  C   UNL     1       3.482   3.121  19.937  0.00  0.00    +0.000 A 
ENDBRANCH  22  29
ENDBRANCH  21  22
ENDBRANCH  20  21
ENDBRANCH  18  20
ENDBRANCH  16  18
ENDBRANCH  15  16
ENDBRANCH   1  15
BRANCH   7  30
ATOM     30  C   UNL     1      -1.803  11.747  19.608  0.00  0.00    +0.000 C 
BRANCH  30  31
ATOM     31  C   UNL     1      -2.986  12.564  20.103  0.00  0.00    +0.000 C 
BRANCH  31  32
ATOM     32  C   UNL     1      -3.114  12.779  21.600  0.00  0.00    +0.000 C 
BRANCH  32  33
ATOM     33  O   UNL     1      -2.393  13.968  21.954  0.00  0.00    +0.000 OA
ATOM     34  H   UNL     1      -2.997  14.727  21.892  0.00  0.00    +0.000 HD
ENDBRANCH  32  33
ENDBRANCH  31  32
ENDBRANCH  30  31
ENDBRANCH   7  30
TORSDOF 12
ENDMDL
