MODEL 1
REMARK VINA RESULT:      -7.7      0.000      0.000
REMARK  Name = 
REMARK  5 active torsions:
REMARK  status: ('A' for Active; 'I' for Inactive)
REMARK    1  A    between atoms: C_1  and  C_2
REMARK    2  A    between atoms: C_4  and  C_5
REMARK    3  A    between atoms: C_8  and  C_10
REMARK    4  A    between atoms: C_10  and  C_18
REMARK    5  A    between atoms: C_11  and  C_12
REMARK                            x       y       z     vdW  Elec       q    Type
REMARK                         _______ _______ _______ _____ _____    ______ ____
ROOT
ATOM      1  C   UNL     1       6.252   4.505  16.081  0.00  0.00    +0.000 C 
ATOM      2  C   UNL     1       6.594   4.680  14.787  0.00  0.00    +0.000 C 
ENDROOT
BRANCH   1  10
ATOM      3  C   UNL     1       2.071   3.090  19.560  0.00  0.00    +0.000 C 
ATOM      4  C   UNL     1       1.686   3.683  18.202  0.00  0.00    +0.000 C 
ATOM      5  C   UNL     1       1.420   5.187  18.289  0.00  0.00    +0.000 C 
ATOM      6  C   UNL     1       2.712   5.966  18.514  0.00  0.00    +0.000 C 
ATOM      7  C   UNL     1       2.453   7.475  18.477  0.00  0.00    +0.000 C 
ATOM      8  C   UNL     1       3.773   5.596  17.472  0.00  0.00    +0.000 C 
ATOM      9  N   UNL     1       3.971   4.172  17.216  0.00  0.00    +0.000 N 
ATOM     10  C   UNL     1       5.117   3.620  16.594  0.00  0.00    +0.000 C 
ATOM     11  O   UNL     1       5.187   2.402  16.399  0.00  0.00    +0.000 OA
ATOM     12  C   UNL     1       2.745   3.368  17.133  0.00  0.00    +0.000 C 
ENDBRANCH   1  10
BRANCH   2  13
ATOM     13  C   UNL     1       6.195   4.104  13.489  0.00  0.00    +0.000 A 
ATOM     14  C   UNL     1       7.212   3.540  12.691  0.00  0.00    +0.000 A 
ATOM     15  C   UNL     1       6.914   2.798  11.547  0.00  0.00    +0.000 A 
ATOM     16  C   UNL     1       5.587   2.609  11.179  0.00  0.00    +0.000 A 
ATOM     17  C   UNL     1       4.568   3.183  11.938  0.00  0.00    +0.000 A 
ATOM     18  C   UNL     1       4.869   3.923  13.093  0.00  0.00    +0.000 A 
ENDBRANCH   2  13
BRANCH   1  19
ATOM     19  C   UNL     1       6.958   5.461  16.965  0.00  0.00    +0.000 A 
ATOM     20  C   UNL     1       7.101   6.798  16.574  0.00  0.00    +0.000 A 
ATOM     21  C   UNL     1       7.720   7.713  17.428  0.00  0.00    +0.000 A 
ATOM     22  C   UNL     1       8.185   7.299  18.676  0.00  0.00    +0.000 A 
ATOM     23  C   UNL     1       8.085   5.961  19.055  0.00  0.00    +0.000 A 
ATOM     24  C   UNL     1       7.512   5.037  18.183  0.00  0.00    +0.000 A 
ENDBRANCH   1  19
TORSDOF 3
ENDMDL
MODEL 2
REMARK VINA RESULT:      -7.5      6.443     10.127
REMARK  Name = 
REMARK  5 active torsions:
REMARK  status: ('A' for Active; 'I' for Inactive)
REMARK    1  A    between atoms: C_1  and  C_2
REMARK    2  A    between atoms: C_4  and  C_5
REMARK    3  A    between atoms: C_8  and  C_10
REMARK    4  A    between atoms: C_10  and  C_18
REMARK    5  A    between atoms: C_11  and  C_12
REMARK                            x       y       z     vdW  Elec       q    Type
REMARK                         _______ _______ _______ _____ _____    ______ ____
ROOT
ATOM      1  C   UNL     1       0.224  10.345  18.720  0.00  0.00    +0.000 C 
ATOM      2  C   UNL     1      -0.885   9.982  18.040  0.00  0.00    +0.000 C 
ENDROOT
BRANCH   1  10
ATOM      3  C   UNL     1      -0.682  15.398  21.006  0.00  0.00    +0.000 C 
ATOM      4  C   UNL     1       0.153  14.401  21.813  0.00  0.00    +0.000 C 
ATOM      5  C   UNL     1      -0.693  13.644  22.839  0.00  0.00    +0.000 C 
ATOM      6  C   UNL     1      -1.631  12.651  22.159  0.00  0.00    +0.000 C 
ATOM      7  C   UNL     1      -2.384  11.812  23.196  0.00  0.00    +0.000 C 
ATOM      8  C   UNL     1      -0.866  11.728  21.203  0.00  0.00    +0.000 C 
ATOM      9  N   UNL     1       0.085  12.368  20.299  0.00  0.00    +0.000 N 
ATOM     10  C   UNL     1       0.599  11.771  19.122  0.00  0.00    +0.000 C 
ATOM     11  O   UNL     1       1.420  12.381  18.428  0.00  0.00    +0.000 OA
ATOM     12  C   UNL     1       0.908  13.428  20.892  0.00  0.00    +0.000 C 
ENDBRANCH   1  10
BRANCH   2  13
ATOM     13  C   UNL     1      -2.112  10.648  17.563  0.00  0.00    +0.000 A 
ATOM     14  C   UNL     1      -2.482  10.436  16.219  0.00  0.00    +0.000 A 
ATOM     15  C   UNL     1      -3.720  10.855  15.729  0.00  0.00    +0.000 A 
ATOM     16  C   UNL     1      -4.610  11.501  16.579  0.00  0.00    +0.000 A 
ATOM     17  C   UNL     1      -4.251  11.746  17.903  0.00  0.00    +0.000 A 
ATOM     18  C   UNL     1      -3.009  11.317  18.396  0.00  0.00    +0.000 A 
ENDBRANCH   2  13
BRANCH   1  19
ATOM     19  C   UNL     1       1.182   9.222  18.838  0.00  0.00    +0.000 A 
ATOM     20  C   UNL     1       1.253   8.486  20.027  0.00  0.00    +0.000 A 
ATOM     21  C   UNL     1       2.118   7.395  20.123  0.00  0.00    +0.000 A 
ATOM     22  C   UNL     1       2.903   7.028  19.030  0.00  0.00    +0.000 A 
ATOM     23  C   UNL     1       2.871   7.782  17.857  0.00  0.00    +0.000 A 
ATOM     24  C   UNL     1       2.044   8.901  17.777  0.00  0.00    +0.000 A 
ENDBRANCH   1  19
TORSDOF 3
ENDMDL
MODEL 3
REMARK VINA RESULT:      -7.3      0.318      1.027
REMARK  Name = 
REMARK  5 active torsions:
REMARK  status: ('A' for Active; 'I' for Inactive)
REMARK    1  A    between atoms: C_1  and  C_2
REMARK    2  A    between atoms: C_4  and  C_5
REMARK    3  A    between atoms: C_8  and  C_10
REMARK    4  A    between atoms: C_10  and  C_18
REMARK    5  A    between atoms: C_11  and  C_12
REMARK                            x       y       z     vdW  Elec       q    Type
REMARK                         _______ _______ _______ _____ _____    ______ ____
ROOT
ATOM      1  C   UNL     1       6.297   4.550  16.261  0.00  0.00    +0.000 C 
ATOM      2  C   UNL     1       6.698   4.617  14.973  0.00  0.00    +0.000 C 
ENDROOT
BRANCH   1  10
ATOM      3  C   UNL     1       1.880   3.585  19.599  0.00  0.00    +0.000 C 
ATOM      4  C   UNL     1       1.593   4.056  18.171  0.00  0.00    +0.000 C 
ATOM      5  C   UNL     1       1.372   5.569  18.101  0.00  0.00    +0.000 C 
ATOM      6  C   UNL     1       2.674   6.331  18.329  0.00  0.00    +0.000 C 
ATOM      7  C   UNL     1       2.466   7.836  18.135  0.00  0.00    +0.000 C 
ATOM      8  C   UNL     1       3.780   5.835  17.391  0.00  0.00    +0.000 C 
ATOM      9  N   UNL     1       3.945   4.388  17.282  0.00  0.00    +0.000 N 
ATOM     10  C   UNL     1       5.106   3.749  16.785  0.00  0.00    +0.000 C 
ATOM     11  O   UNL     1       5.148   2.516  16.709  0.00  0.00    +0.000 OA
ATOM     12  C   UNL     1       2.701   3.613  17.202  0.00  0.00    +0.000 C 
ENDBRANCH   1  10
BRANCH   2  13
ATOM     13  C   UNL     1       6.328   3.964  13.703  0.00  0.00    +0.000 A 
ATOM     14  C   UNL     1       4.953   3.831  13.421  0.00  0.00    +0.000 A 
ATOM     15  C   UNL     1       4.503   3.412  12.168  0.00  0.00    +0.000 A 
ATOM     16  C   UNL     1       5.427   3.114  11.172  0.00  0.00    +0.000 A 
ATOM     17  C   UNL     1       6.791   3.212  11.441  0.00  0.00    +0.000 A 
ATOM     18  C   UNL     1       7.242   3.640  12.699  0.00  0.00    +0.000 A 
ENDBRANCH   2  13
BRANCH   1  19
ATOM     19  C   UNL     1       7.006   5.539  17.104  0.00  0.00    +0.000 A 
ATOM     20  C   UNL     1       7.136   6.864  16.667  0.00  0.00    +0.000 A 
ATOM     21  C   UNL     1       7.758   7.810  17.483  0.00  0.00    +0.000 A 
ATOM     22  C   UNL     1       8.239   7.441  18.740  0.00  0.00    +0.000 A 
ATOM     23  C   UNL     1       8.151   6.116  19.164  0.00  0.00    +0.000 A 
ATOM     24  C   UNL     1       7.576   5.160  18.330  0.00  0.00    +0.000 A 
ENDBRANCH   1  19
TORSDOF 3
ENDMDL
MODEL 4
REMARK VINA RESULT:      -7.3      3.803      6.280
REMARK  Name = 
REMARK  5 active torsions:
REMARK  status: ('A' for Active; 'I' for Inactive)
REMARK    1  A    between atoms: C_1  and  C_2
REMARK    2  A    between atoms: C_4  and  C_5
REMARK    3  A    between atoms: C_8  and  C_10
REMARK    4  A    between atoms: C_10  and  C_18
REMARK    5  A    between atoms: C_11  and  C_12
REMARK                            x       y       z     vdW  Elec       q    Type
REMARK                         _______ _______ _______ _____ _____    ______ ____
ROOT
ATOM      1  C   UNL     1       3.332   5.575  18.799  0.00  0.00    +0.000 C 
ATOM      2  C   UNL     1       4.640   5.324  19.021  0.00  0.00    +0.000 C 
ENDROOT
BRANCH   1  10
ATOM      3  C   UNL     1      -0.296   9.794  18.009  0.00  0.00    +0.000 C 
ATOM      4  C   UNL     1       1.064  10.141  18.621  0.00  0.00    +0.000 C 
ATOM      5  C   UNL     1       1.005  10.207  20.148  0.00  0.00    +0.000 C 
ATOM      6  C   UNL     1       0.834   8.818  20.756  0.00  0.00    +0.000 C 
ATOM      7  C   UNL     1       0.899   8.880  22.285  0.00  0.00    +0.000 C 
ATOM      8  C   UNL     1       1.898   7.847  20.232  0.00  0.00    +0.000 C 
ATOM      9  N   UNL     1       2.126   7.844  18.789  0.00  0.00    +0.000 N 
ATOM     10  C   UNL     1       2.766   6.799  18.081  0.00  0.00    +0.000 C 
ATOM     11  O   UNL     1       2.935   6.894  16.860  0.00  0.00    +0.000 OA
ATOM     12  C   UNL     1       2.155   9.166  18.150  0.00  0.00    +0.000 C 
ENDBRANCH   1  10
BRANCH   2  13
ATOM     13  C   UNL     1       5.926   5.931  18.631  0.00  0.00    +0.000 A 
ATOM     14  C   UNL     1       5.904   6.873  17.581  0.00  0.00    +0.000 A 
ATOM     15  C   UNL     1       7.025   7.646  17.272  0.00  0.00    +0.000 A 
ATOM     16  C   UNL     1       8.192   7.487  18.010  0.00  0.00    +0.000 A 
ATOM     17  C   UNL     1       8.243   6.541  19.032  0.00  0.00    +0.000 A 
ATOM     18  C   UNL     1       7.113   5.769  19.347  0.00  0.00    +0.000 A 
ENDBRANCH   2  13
BRANCH   1  19
ATOM     19  C   UNL     1       2.463   4.636  19.545  0.00  0.00    +0.000 A 
ATOM     20  C   UNL     1       1.444   3.946  18.877  0.00  0.00    +0.000 A 
ATOM     21  C   UNL     1       0.657   3.023  19.566  0.00  0.00    +0.000 A 
ATOM     22  C   UNL     1       0.894   2.776  20.919  0.00  0.00    +0.000 A 
ATOM     23  C   UNL     1       1.877   3.490  21.602  0.00  0.00    +0.000 A 
ATOM     24  C   UNL     1       2.630   4.448  20.927  0.00  0.00    +0.000 A 
ENDBRANCH   1  19
TORSDOF 3
ENDMDL
MODEL 5
REMARK VINA RESULT:      -7.2      0.791      4.935
REMARK  Name = 
REMARK  5 active torsions:
REMARK  status: ('A' for Active; 'I' for Inactive)
REMARK    1  A    between atoms: C_1  and  C_2
REMARK    2  A    between atoms: C_4  and  C_5
REMARK    3  A    between atoms: C_8  and  C_10
REMARK    4  A    between atoms: C_10  and  C_18
REMARK    5  A    between atoms: C_11  and  C_12
REMARK                            x       y       z     vdW  Elec       q    Type
REMARK                         _______ _______ _______ _____ _____    ______ ____
ROOT
ATOM      1  C   UNL     1       5.805   4.647  15.490  0.00  0.00    +0.000 C 
ATOM      2  C   UNL     1       6.772   5.540  15.794  0.00  0.00    +0.000 C 
ENDROOT
BRANCH   1  10
ATOM      3  C   UNL     1       2.747   4.304  20.192  0.00  0.00    +0.000 C 
ATOM      4  C   UNL     1       1.997   4.559  18.881  0.00  0.00    +0.000 C 
ATOM      5  C   UNL     1       1.722   6.048  18.660  0.00  0.00    +0.000 C 
ATOM      6  C   UNL     1       3.006   6.805  18.334  0.00  0.00    +0.000 C 
ATOM      7  C   UNL     1       2.705   8.268  17.993  0.00  0.00    +0.000 C 
ATOM      8  C   UNL     1       3.759   6.148  17.172  0.00  0.00    +0.000 C 
ATOM      9  N   UNL     1       3.920   4.698  17.235  0.00  0.00    +0.000 N 
ATOM     10  C   UNL     1       4.873   3.963  16.488  0.00  0.00    +0.000 C 
ATOM     11  O   UNL     1       4.922   2.733  16.590  0.00  0.00    +0.000 OA
ATOM     12  C   UNL     1       2.740   3.949  17.682  0.00  0.00    +0.000 C 
ENDBRANCH   1  10
BRANCH   2  13
ATOM     13  C   UNL     1       7.223   6.255  17.003  0.00  0.00    +0.000 A 
ATOM     14  C   UNL     1       7.518   5.478  18.142  0.00  0.00    +0.000 A 
ATOM     15  C   UNL     1       8.138   6.033  19.263  0.00  0.00    +0.000 A 
ATOM     16  C   UNL     1       8.470   7.383  19.264  0.00  0.00    +0.000 A 
ATOM     17  C   UNL     1       8.161   8.174  18.159  0.00  0.00    +0.000 A 
ATOM     18  C   UNL     1       7.544   7.613  17.030  0.00  0.00    +0.000 A 
ENDBRANCH   2  13
BRANCH   1  19
ATOM     19  C   UNL     1       5.894   4.210  14.077  0.00  0.00    +0.000 A 
ATOM     20  C   UNL     1       7.101   4.339  13.380  0.00  0.00    +0.000 A 
ATOM     21  C   UNL     1       7.201   3.880  12.066  0.00  0.00    +0.000 A 
ATOM     22  C   UNL     1       6.102   3.282  11.449  0.00  0.00    +0.000 A 
ATOM     23  C   UNL     1       4.884   3.190  12.121  0.00  0.00    +0.000 A 
ATOM     24  C   UNL     1       4.769   3.692  13.415  0.00  0.00    +0.000 A 
ENDBRANCH   1  19
TORSDOF 3
ENDMDL
MODEL 6
REMARK VINA RESULT:      -7.2      2.166      5.753
REMARK  Name = 
REMARK  5 active torsions:
REMARK  status: ('A' for Active; 'I' for Inactive)
REMARK    1  A    between atoms: C_1  and  C_2
REMARK    2  A    between atoms: C_4  and  C_5
REMARK    3  A    between atoms: C_8  and  C_10
REMARK    4  A    between atoms: C_10  and  C_18
REMARK    5  A    between atoms: C_11  and  C_12
REMARK                            x       y       z     vdW  Elec       q    Type
REMARK                         _______ _______ _______ _____ _____    ______ ____
ROOT
ATOM      1  C   UNL     1       4.355   5.807  17.664  0.00  0.00    +0.000 C 
ATOM      2  C   UNL     1       3.633   6.916  17.394  0.00  0.00    +0.000 C 
ENDROOT
BRANCH   1  10
ATOM      3  C   UNL     1       2.251   3.263  22.212  0.00  0.00    +0.000 C 
ATOM      4  C   UNL     1       2.866   2.372  21.129  0.00  0.00    +0.000 C 
ATOM      5  C   UNL     1       1.807   1.819  20.173  0.00  0.00    +0.000 C 
ATOM      6  C   UNL     1       1.249   2.916  19.270  0.00  0.00    +0.000 C 
ATOM      7  C   UNL     1       0.282   2.332  18.236  0.00  0.00    +0.000 C 
ATOM      8  C   UNL     1       2.374   3.674  18.557  0.00  0.00    +0.000 C 
ATOM      9  N   UNL     1       3.503   4.096  19.382  0.00  0.00    +0.000 N 
ATOM     10  C   UNL     1       4.434   5.098  19.016  0.00  0.00    +0.000 C 
ATOM     11  O   UNL     1       5.373   5.374  19.770  0.00  0.00    +0.000 OA
ATOM     12  C   UNL     1       3.975   3.109  20.361  0.00  0.00    +0.000 C 
ENDBRANCH   1  10
BRANCH   2  13
ATOM     13  C   UNL     1       2.647   7.748  18.108  0.00  0.00    +0.000 A 
ATOM     14  C   UNL     1       2.325   7.379  19.431  0.00  0.00    +0.000 A 
ATOM     15  C   UNL     1       1.562   8.208  20.254  0.00  0.00    +0.000 A 
ATOM     16  C   UNL     1       1.102   9.425  19.764  0.00  0.00    +0.000 A 
ATOM     17  C   UNL     1       1.385   9.796  18.451  0.00  0.00    +0.000 A 
ATOM     18  C   UNL     1       2.159   8.964  17.626  0.00  0.00    +0.000 A 
ENDBRANCH   2  13
BRANCH   1  19
ATOM     19  C   UNL     1       5.270   5.469  16.550  0.00  0.00    +0.000 A 
ATOM     20  C   UNL     1       6.589   5.939  16.563  0.00  0.00    +0.000 A 
ATOM     21  C   UNL     1       7.469   5.579  15.541  0.00  0.00    +0.000 A 
ATOM     22  C   UNL     1       7.039   4.741  14.512  0.00  0.00    +0.000 A 
ATOM     23  C   UNL     1       5.715   4.304  14.469  0.00  0.00    +0.000 A 
ATOM     24  C   UNL     1       4.823   4.702  15.462  0.00  0.00    +0.000 A 
ENDBRANCH   1  19
TORSDOF 3
ENDMDL
MODEL 7
REMARK VINA RESULT:      -7.1      2.149      5.705
REMARK  Name = 
REMARK  5 active torsions:
REMARK  status: ('A' for Active; 'I' for Inactive)
REMARK    1  A    between atoms: C_1  and  C_2
REMARK    2  A    between atoms: C_4  and  C_5
REMARK    3  A    between atoms: C_8  and  C_10
REMARK    4  A    between atoms: C_10  and  C_18
REMARK    5  A    between atoms: C_11  and  C_12
REMARK                            x       y       z     vdW  Elec       q    Type
REMARK                         _______ _______ _______ _____ _____    ______ ____
ROOT
ATOM      1  C   UNL     1       4.459   5.777  17.684  0.00  0.00    +0.000 C 
ATOM      2  C   UNL     1       3.819   6.943  17.450  0.00  0.00    +0.000 C 
ENDROOT
BRANCH   1  10
ATOM      3  C   UNL     1       2.297   3.262  22.221  0.00  0.00    +0.000 C 
ATOM      4  C   UNL     1       2.856   2.361  21.116  0.00  0.00    +0.000 C 
ATOM      5  C   UNL     1       1.761   1.873  20.167  0.00  0.00    +0.000 C 
ATOM      6  C   UNL     1       1.243   3.008  19.288  0.00  0.00    +0.000 C 
ATOM      7  C   UNL     1       0.237   2.485  18.258  0.00  0.00    +0.000 C 
ATOM      8  C   UNL     1       2.393   3.724  18.571  0.00  0.00    +0.000 C 
ATOM      9  N   UNL     1       3.551   4.080  19.387  0.00  0.00    +0.000 N 
ATOM     10  C   UNL     1       4.522   5.045  19.023  0.00  0.00    +0.000 C 
ATOM     11  O   UNL     1       5.483   5.265  19.769  0.00  0.00    +0.000 OA
ATOM     12  C   UNL     1       3.988   3.058  20.345  0.00  0.00    +0.000 C 
ENDBRANCH   1  10
BRANCH   2  13
ATOM     13  C   UNL     1       2.925   7.841  18.205  0.00  0.00    +0.000 A 
ATOM     14  C   UNL     1       2.446   8.988  17.538  0.00  0.00    +0.000 A 
ATOM     15  C   UNL     1       1.445   9.788  18.091  0.00  0.00    +0.000 A 
ATOM     16  C   UNL     1       0.907   9.454  19.329  0.00  0.00    +0.000 A 
ATOM     17  C   UNL     1       1.387   8.341  20.017  0.00  0.00    +0.000 A 
ATOM     18  C   UNL     1       2.388   7.533  19.456  0.00  0.00    +0.000 A 
ENDBRANCH   2  13
BRANCH   1  19
ATOM     19  C   UNL     1       5.311   5.384  16.538  0.00  0.00    +0.000 A 
ATOM     20  C   UNL     1       4.800   4.539  15.545  0.00  0.00    +0.000 A 
ATOM     21  C   UNL     1       5.583   4.209  14.438  0.00  0.00    +0.000 A 
ATOM     22  C   UNL     1       6.871   4.732  14.312  0.00  0.00    +0.000 A 
ATOM     23  C   UNL     1       7.402   5.539  15.317  0.00  0.00    +0.000 A 
ATOM     24  C   UNL     1       6.640   5.829  16.446  0.00  0.00    +0.000 A 
ENDBRANCH   1  19
TORSDOF 3
ENDMDL
MODEL 8
REMARK VINA RESULT:      -7.1      0.834      1.320
REMARK  Name = 
REMARK  5 active torsions:
REMARK  status: ('A' for Active; 'I' for Inactive)
REMARK    1  A    between atoms: C_1  and  C_2
REMARK    2  A    between atoms: C_4  and  C_5
REMARK    3  A    between atoms: C_8  and  C_10
REMARK    4  A    between atoms: C_10  and  C_18
REMARK    5  A    between atoms: C_11  and  C_12
REMARK                            x       y       z     vdW  Elec       q    Type
REMARK                         _______ _______ _______ _____ _____    ______ ____
ROOT
ATOM      1  C   UNL     1       6.514   5.224  16.506  0.00  0.00    +0.000 C 
ATOM      2  C   UNL     1       6.852   5.350  15.205  0.00  0.00    +0.000 C 
ENDROOT
BRANCH   1  10
ATOM      3  C   UNL     1       2.108   4.029  19.784  0.00  0.00    +0.000 C 
ATOM      4  C   UNL     1       1.825   4.355  18.315  0.00  0.00    +0.000 C 
ATOM      5  C   UNL     1       1.441   5.823  18.117  0.00  0.00    +0.000 C 
ATOM      6  C   UNL     1       2.643   6.741  18.321  0.00  0.00    +0.000 C 
ATOM      7  C   UNL     1       2.279   8.194  18.001  0.00  0.00    +0.000 C 
ATOM      8  C   UNL     1       3.831   6.302  17.458  0.00  0.00    +0.000 C 
ATOM      9  N   UNL     1       4.158   4.879  17.470  0.00  0.00    +0.000 N 
ATOM     10  C   UNL     1       5.400   4.338  17.059  0.00  0.00    +0.000 C 
ATOM     11  O   UNL     1       5.579   3.115  17.083  0.00  0.00    +0.000 OA
ATOM     12  C   UNL     1       3.010   3.966  17.416  0.00  0.00    +0.000 C 
ENDBRANCH   1  10
BRANCH   2  13
ATOM     13  C   UNL     1       6.466   4.708  13.934  0.00  0.00    +0.000 A 
ATOM     14  C   UNL     1       7.453   4.614  12.931  0.00  0.00    +0.000 A 
ATOM     15  C   UNL     1       7.250   3.853  11.778  0.00  0.00    +0.000 A 
ATOM     16  C   UNL     1       6.048   3.175  11.608  0.00  0.00    +0.000 A 
ATOM     17  C   UNL     1       5.049   3.279  12.574  0.00  0.00    +0.000 A 
ATOM     18  C   UNL     1       5.258   4.038  13.736  0.00  0.00    +0.000 A 
ENDBRANCH   2  13
BRANCH   1  19
ATOM     19  C   UNL     1       7.198   6.235  17.346  0.00  0.00    +0.000 A 
ATOM     20  C   UNL     1       7.723   5.868  18.592  0.00  0.00    +0.000 A 
ATOM     21  C   UNL     1       8.413   6.806  19.362  0.00  0.00    +0.000 A 
ATOM     22  C   UNL     1       8.592   8.105  18.886  0.00  0.00    +0.000 A 
ATOM     23  C   UNL     1       8.036   8.490  17.667  0.00  0.00    +0.000 A 
ATOM     24  C   UNL     1       7.304   7.569  16.920  0.00  0.00    +0.000 A 
ENDBRANCH   1  19
TORSDOF 3
ENDMDL
MODEL 9
REMARK VINA RESULT:      -7.1      2.350      6.974
REMARK  Name = 
REMARK  5 active torsions:
REMARK  status: ('A' for Active; 'I' for Inactive)
REMARK    1  A    between atoms: C_1  and  C_2
REMARK    2  A    between atoms: C_4  and  C_5
REMARK    3  A    between atoms: C_8  and  C_10
REMARK    4  A    between atoms: C_10  and  C_18
REMARK    5  A    between atoms: C_11  and  C_12
REMARK                            x       y       z     vdW  Elec       q    Type
REMARK                         _______ _______ _______ _____ _____    ______ ____
ROOT
ATOM      1  C   UNL     1       2.653   5.021  19.408  0.00  0.00    +0.000 C 
ATOM      2  C   UNL     1       2.177   6.167  19.941  0.00  0.00    +0.000 C 
ENDROOT
BRANCH   1  10
ATOM      3  C   UNL     1       5.928   5.946  14.936  0.00  0.00    +0.000 C 
ATOM      4  C   UNL     1       6.162   4.654  15.724  0.00  0.00    +0.000 C 
ATOM      5  C   UNL     1       7.294   4.804  16.743  0.00  0.00    +0.000 C 
ATOM      6  C   UNL     1       6.879   5.702  17.905  0.00  0.00    +0.000 C 
ATOM      7  C   UNL     1       7.971   5.746  18.978  0.00  0.00    +0.000 C 
ATOM      8  C   UNL     1       5.560   5.232  18.527  0.00  0.00    +0.000 C 
ATOM      9  N   UNL     1       4.476   4.914  17.601  0.00  0.00    +0.000 N 
ATOM     10  C   UNL     1       3.110   4.828  17.963  0.00  0.00    +0.000 C 
ATOM     11  O   UNL     1       2.263   4.530  17.114  0.00  0.00    +0.000 OA
ATOM     12  C   UNL     1       4.870   4.168  16.400  0.00  0.00    +0.000 C 
ENDBRANCH   1  10
BRANCH   2  13
ATOM     13  C   UNL     1       2.023   7.566  19.500  0.00  0.00    +0.000 A 
ATOM     14  C   UNL     1       2.438   7.881  18.189  0.00  0.00    +0.000 A 
ATOM     15  C   UNL     1       2.153   9.119  17.612  0.00  0.00    +0.000 A 
ATOM     16  C   UNL     1       1.448  10.070  18.342  0.00  0.00    +0.000 A 
ATOM     17  C   UNL     1       1.054   9.789  19.649  0.00  0.00    +0.000 A 
ATOM     18  C   UNL     1       1.335   8.540  20.225  0.00  0.00    +0.000 A 
ENDBRANCH   2  13
BRANCH   1  19
ATOM     19  C   UNL     1       2.466   3.875  20.328  0.00  0.00    +0.000 A 
ATOM     20  C   UNL     1       3.505   2.955  20.519  0.00  0.00    +0.000 A 
ATOM     21  C   UNL     1       3.350   1.904  21.424  0.00  0.00    +0.000 A 
ATOM     22  C   UNL     1       2.165   1.777  22.149  0.00  0.00    +0.000 A 
ATOM     23  C   UNL     1       1.110   2.663  21.934  0.00  0.00    +0.000 A 
ATOM     24  C   UNL     1       1.245   3.683  20.995  0.00  0.00    +0.000 A 
ENDBRANCH   1  19
TORSDOF 3
ENDMDL
