MODEL 1
REMARK VINA RESULT:      -8.8      0.000      0.000
REMARK  Name = 
REMARK  11 active torsions:
REMARK  status: ('A' for Active; 'I' for Inactive)
REMARK    1  A    between atoms: C_1  and  O_2
REMARK    2  A    between atoms: O_2  and  C_3
REMARK    3  A    between atoms: C_6  and  N_7
REMARK    4  A    between atoms: C_9  and  C_10
REMARK    5  A    between atoms: C_12  and  C_13
REMARK    6  A    between atoms: C_16  and  N_17
REMARK    7  A    between atoms: N_17  and  S_18
REMARK    8  A    between atoms: S_18  and  C_21
REMARK    9  A    between atoms: C_24  and  O_25
REMARK   10  A    between atoms: O_25  and  C_26
REMARK   11  A    between atoms: C_26  and  C_27
REMARK                            x       y       z     vdW  Elec       q    Type
REMARK                         _______ _______ _______ _____ _____    ______ ____
ROOT
ATOM      1  N   UNL     1       4.081   4.860  17.557  0.00  0.00    +0.000 N 
ATOM      2  H   UNL     1       4.012   5.617  16.878  0.00  0.00    +0.000 HD
ENDROOT
BRANCH   1   8
ATOM      3  C   UNL     1       2.726   3.970  19.468  0.00  0.00    +0.000 A 
ATOM      4  C   UNL     1       1.794   4.256  20.470  0.00  0.00    +0.000 A 
ATOM      5  C   UNL     1       1.449   5.575  20.763  0.00  0.00    +0.000 A 
ATOM      6  C   UNL     1       1.997   6.649  20.059  0.00  0.00    +0.000 A 
ATOM      7  C   UNL     1       2.878   6.348  19.018  0.00  0.00    +0.000 A 
ATOM      8  C   UNL     1       3.225   5.034  18.698  0.00  0.00    +0.000 A 
BRANCH   6   9
ATOM      9  N   UNL     1       1.650   7.941  20.362  0.00  0.00    +0.000 N 
ATOM     10  C   UNL     1       1.629   9.018  19.368  0.00  0.00    +0.000 C 
ATOM     11  C   UNL     1       0.276   9.775  19.476  0.00  0.00    +0.000 C 
ATOM     12  C   UNL     1       0.248  10.952  18.508  0.00  0.00    +0.000 C 
ATOM     13  N   UNL     1      -0.008  10.261  20.850  0.00  0.00    +0.000 NA
ATOM     14  C   UNL     1       0.069   9.137  21.813  0.00  0.00    +0.000 C 
ATOM     15  C   UNL     1      -0.148   9.666  23.226  0.00  0.00    +0.000 C 
ATOM     16  C   UNL     1       1.419   8.382  21.739  0.00  0.00    +0.000 C 
ATOM     17  H   UNL     1      -0.946  10.661  20.875  0.00  0.00    +0.000 HD
ENDBRANCH   6   9
BRANCH   3  19
ATOM     18  C   UNL     1       2.293   1.846  18.524  0.00  0.00    +0.000 C 
ATOM     19  O   UNL     1       3.200   2.702  19.231  0.00  0.00    +0.000 OA
ENDBRANCH   3  19
ENDBRANCH   1   8
BRANCH   1  20
ATOM     20  S   UNL     1       5.730   4.544  17.824  0.00  0.00    +0.000 S 
ATOM     21  O   UNL     1       5.823   4.116  19.204  0.00  0.00    +0.000 OA
ATOM     22  O   UNL     1       6.228   3.688  16.760  0.00  0.00    +0.000 OA
BRANCH  20  23
ATOM     23  C   UNL     1       6.609   6.096  17.696  0.00  0.00    +0.000 A 
ATOM     24  C   UNL     1       6.064   7.170  16.977  0.00  0.00    +0.000 A 
ATOM     25  C   UNL     1       6.662   8.439  17.046  0.00  0.00    +0.000 A 
ATOM     26  C   UNL     1       7.790   8.640  17.843  0.00  0.00    +0.000 A 
ATOM     27  C   UNL     1       8.355   7.564  18.526  0.00  0.00    +0.000 A 
ATOM     28  C   UNL     1       7.747   6.305  18.481  0.00  0.00    +0.000 A 
BRANCH  26  29
ATOM     29  O   UNL     1       8.416   9.845  18.028  0.00  0.00    +0.000 OA
BRANCH  29  30
ATOM     30  C   UNL     1       9.144   9.962  19.255  0.00  0.00    +0.000 C 
BRANCH  30  31
ATOM     31  C   UNL     1      10.176  11.057  19.124  0.00  0.00    +0.000 A 
ATOM     32  C   UNL     1      10.671  11.432  17.868  0.00  0.00    +0.000 A 
ATOM     33  C   UNL     1      11.610  12.459  17.757  0.00  0.00    +0.000 A 
ATOM     34  C   UNL     1      12.056  13.126  18.897  0.00  0.00    +0.000 A 
ATOM     35  C   UNL     1      11.557  12.773  20.149  0.00  0.00    +0.000 A 
ATOM     36  C   UNL     1      10.620  11.746  20.262  0.00  0.00    +0.000 A 
ENDBRANCH  30  31
ENDBRANCH  29  30
ENDBRANCH  26  29
ENDBRANCH  20  23
ENDBRANCH   1  20
TORSDOF 8
ENDMDL
MODEL 2
REMARK VINA RESULT:      -8.7      4.811      8.014
REMARK  Name = 
REMARK  11 active torsions:
REMARK  status: ('A' for Active; 'I' for Inactive)
REMARK    1  A    between atoms: C_1  and  O_2
REMARK    2  A    between atoms: O_2  and  C_3
REMARK    3  A    between atoms: C_6  and  N_7
REMARK    4  A    between atoms: C_9  and  C_10
REMARK    5  A    between atoms: C_12  and  C_13
REMARK    6  A    between atoms: C_16  and  N_17
REMARK    7  A    between atoms: N_17  and  S_18
REMARK    8  A    between atoms: S_18  and  C_21
REMARK    9  A    between atoms: C_24  and  O_25
REMARK   10  A    between atoms: O_25  and  C_26
REMARK   11  A    between atoms: C_26  and  C_27
REMARK                            x       y       z     vdW  Elec       q    Type
REMARK                         _______ _______ _______ _____ _____    ______ ____
ROOT
ATOM      1  N   UNL     1       1.089  10.462  20.373  0.00  0.00    +0.000 N 
ATOM      2  H   UNL     1       1.956  10.944  20.607  0.00  0.00    +0.000 HD
ENDROOT
BRANCH   1   8
ATOM      3  C   UNL     1      -0.173  12.548  20.953  0.00  0.00    +0.000 A 
ATOM      4  C   UNL     1      -1.375  13.253  20.841  0.00  0.00    +0.000 A 
ATOM      5  C   UNL     1      -2.372  12.824  19.965  0.00  0.00    +0.000 A 
ATOM      6  C   UNL     1      -2.219  11.671  19.191  0.00  0.00    +0.000 A 
ATOM      7  C   UNL     1      -1.041  10.940  19.358  0.00  0.00    +0.000 A 
ATOM      8  C   UNL     1      -0.038  11.344  20.240  0.00  0.00    +0.000 A 
BRANCH   6   9
ATOM      9  N   UNL     1      -3.207  11.264  18.331  0.00  0.00    +0.000 N 
ATOM     10  C   UNL     1      -4.632  11.498  18.581  0.00  0.00    +0.000 C 
ATOM     11  C   UNL     1      -5.272  12.112  17.305  0.00  0.00    +0.000 C 
ATOM     12  C   UNL     1      -6.772  12.299  17.502  0.00  0.00    +0.000 C 
ATOM     13  N   UNL     1      -5.033  11.297  16.087  0.00  0.00    +0.000 NA
ATOM     14  C   UNL     1      -3.581  11.060  15.911  0.00  0.00    +0.000 C 
ATOM     15  C   UNL     1      -3.359  10.158  14.702  0.00  0.00    +0.000 C 
ATOM     16  C   UNL     1      -2.926  10.426  17.163  0.00  0.00    +0.000 C 
ATOM     17  H   UNL     1      -5.393  11.798  15.275  0.00  0.00    +0.000 HD
ENDBRANCH   6   9
BRANCH   3  19
ATOM     18  C   UNL     1       1.688  14.003  21.053  0.00  0.00    +0.000 C 
ATOM     19  O   UNL     1       0.889  13.001  21.696  0.00  0.00    +0.000 OA
ENDBRANCH   3  19
ENDBRANCH   1   8
BRANCH   1  20
ATOM     20  S   UNL     1       0.943   9.114  21.398  0.00  0.00    +0.000 S 
ATOM     21  O   UNL     1       1.900   9.332  22.462  0.00  0.00    +0.000 OA
ATOM     22  O   UNL     1      -0.461   8.904  21.710  0.00  0.00    +0.000 OA
BRANCH  20  23
ATOM     23  C   UNL     1       1.492   7.677  20.486  0.00  0.00    +0.000 A 
ATOM     24  C   UNL     1       2.219   7.819  19.294  0.00  0.00    +0.000 A 
ATOM     25  C   UNL     1       2.812   6.697  18.694  0.00  0.00    +0.000 A 
ATOM     26  C   UNL     1       2.695   5.439  19.287  0.00  0.00    +0.000 A 
ATOM     27  C   UNL     1       1.939   5.291  20.449  0.00  0.00    +0.000 A 
ATOM     28  C   UNL     1       1.369   6.410  21.066  0.00  0.00    +0.000 A 
BRANCH  26  29
ATOM     29  O   UNL     1       3.281   4.292  18.819  0.00  0.00    +0.000 OA
BRANCH  29  30
ATOM     30  C   UNL     1       4.693   4.206  19.038  0.00  0.00    +0.000 C 
BRANCH  30  31
ATOM     31  C   UNL     1       5.413   4.327  17.716  0.00  0.00    +0.000 A 
ATOM     32  C   UNL     1       4.719   4.207  16.505  0.00  0.00    +0.000 A 
ATOM     33  C   UNL     1       5.392   4.341  15.289  0.00  0.00    +0.000 A 
ATOM     34  C   UNL     1       6.761   4.605  15.272  0.00  0.00    +0.000 A 
ATOM     35  C   UNL     1       7.457   4.744  16.470  0.00  0.00    +0.000 A 
ATOM     36  C   UNL     1       6.787   4.609  17.686  0.00  0.00    +0.000 A 
ENDBRANCH  30  31
ENDBRANCH  29  30
ENDBRANCH  26  29
ENDBRANCH  20  23
ENDBRANCH   1  20
TORSDOF 8
ENDMDL
MODEL 3
REMARK VINA RESULT:      -8.5      4.263      7.371
REMARK  Name = 
REMARK  11 active torsions:
REMARK  status: ('A' for Active; 'I' for Inactive)
REMARK    1  A    between atoms: C_1  and  O_2
REMARK    2  A    between atoms: O_2  and  C_3
REMARK    3  A    between atoms: C_6  and  N_7
REMARK    4  A    between atoms: C_9  and  C_10
REMARK    5  A    between atoms: C_12  and  C_13
REMARK    6  A    between atoms: C_16  and  N_17
REMARK    7  A    between atoms: N_17  and  S_18
REMARK    8  A    between atoms: S_18  and  C_21
REMARK    9  A    between atoms: C_24  and  O_25
REMARK   10  A    between atoms: O_25  and  C_26
REMARK   11  A    between atoms: C_26  and  C_27
REMARK                            x       y       z     vdW  Elec       q    Type
REMARK                         _______ _______ _______ _____ _____    ______ ____
ROOT
ATOM      1  N   UNL     1       0.641  10.763  20.702  0.00  0.00    +0.000 N 
ATOM      2  H   UNL     1       1.223  11.439  21.196  0.00  0.00    +0.000 HD
ENDROOT
BRANCH   1   8
ATOM      3  C   UNL     1      -1.246  11.108  19.089  0.00  0.00    +0.000 A 
ATOM      4  C   UNL     1      -2.453  11.763  18.830  0.00  0.00    +0.000 A 
ATOM      5  C   UNL     1      -3.106  12.475  19.836  0.00  0.00    +0.000 A 
ATOM      6  C   UNL     1      -2.572  12.579  21.123  0.00  0.00    +0.000 A 
ATOM      7  C   UNL     1      -1.334  11.975  21.352  0.00  0.00    +0.000 A 
ATOM      8  C   UNL     1      -0.658  11.271  20.355  0.00  0.00    +0.000 A 
BRANCH   6   9
ATOM      9  N   UNL     1      -3.228  13.279  22.103  0.00  0.00    +0.000 N 
ATOM     10  C   UNL     1      -4.666  13.145  22.356  0.00  0.00    +0.000 C 
ATOM     11  C   UNL     1      -4.890  12.919  23.877  0.00  0.00    +0.000 C 
ATOM     12  C   UNL     1      -6.380  12.852  24.189  0.00  0.00    +0.000 C 
ATOM     13  N   UNL     1      -4.258  13.968  24.717  0.00  0.00    +0.000 NA
ATOM     14  C   UNL     1      -2.817  14.084  24.388  0.00  0.00    +0.000 C 
ATOM     15  C   UNL     1      -2.202  15.216  25.203  0.00  0.00    +0.000 C 
ATOM     16  C   UNL     1      -2.572  14.333  22.879  0.00  0.00    +0.000 C 
ATOM     17  H   UNL     1      -4.359  13.712  25.700  0.00  0.00    +0.000 HD
ENDBRANCH   6   9
BRANCH   3  19
ATOM     18  C   UNL     1      -1.501   9.770  17.157  0.00  0.00    +0.000 C 
ATOM     19  O   UNL     1      -0.634  10.286  18.175  0.00  0.00    +0.000 OA
ENDBRANCH   3  19
ENDBRANCH   1   8
BRANCH   1  20
ATOM     20  S   UNL     1       0.734   9.282  21.533  0.00  0.00    +0.000 S 
ATOM     21  O   UNL     1       1.733   9.479  22.562  0.00  0.00    +0.000 OA
ATOM     22  O   UNL     1      -0.608   8.853  21.890  0.00  0.00    +0.000 OA
BRANCH  20  23
ATOM     23  C   UNL     1       1.384   8.063  20.397  0.00  0.00    +0.000 A 
ATOM     24  C   UNL     1       1.890   8.447  19.146  0.00  0.00    +0.000 A 
ATOM     25  C   UNL     1       2.574   7.516  18.348  0.00  0.00    +0.000 A 
ATOM     26  C   UNL     1       2.768   6.210  18.802  0.00  0.00    +0.000 A 
ATOM     27  C   UNL     1       2.231   5.819  20.028  0.00  0.00    +0.000 A 
ATOM     28  C   UNL     1       1.572   6.749  20.838  0.00  0.00    +0.000 A 
BRANCH  26  29
ATOM     29  O   UNL     1       3.469   5.241  18.133  0.00  0.00    +0.000 OA
BRANCH  29  30
ATOM     30  C   UNL     1       4.308   5.726  17.079  0.00  0.00    +0.000 C 
BRANCH  30  31
ATOM     31  C   UNL     1       5.666   6.074  17.639  0.00  0.00    +0.000 A 
ATOM     32  C   UNL     1       6.393   7.162  17.139  0.00  0.00    +0.000 A 
ATOM     33  C   UNL     1       7.639   7.487  17.679  0.00  0.00    +0.000 A 
ATOM     34  C   UNL     1       8.166   6.734  18.727  0.00  0.00    +0.000 A 
ATOM     35  C   UNL     1       7.443   5.661  19.244  0.00  0.00    +0.000 A 
ATOM     36  C   UNL     1       6.199   5.334  18.705  0.00  0.00    +0.000 A 
ENDBRANCH  30  31
ENDBRANCH  29  30
ENDBRANCH  26  29
ENDBRANCH  20  23
ENDBRANCH   1  20
TORSDOF 8
ENDMDL
MODEL 4
REMARK VINA RESULT:      -8.4      0.648      1.215
REMARK  Name = 
REMARK  11 active torsions:
REMARK  status: ('A' for Active; 'I' for Inactive)
REMARK    1  A    between atoms: C_1  and  O_2
REMARK    2  A    between atoms: O_2  and  C_3
REMARK    3  A    between atoms: C_6  and  N_7
REMARK    4  A    between atoms: C_9  and  C_10
REMARK    5  A    between atoms: C_12  and  C_13
REMARK    6  A    between atoms: C_16  and  N_17
REMARK    7  A    between atoms: N_17  and  S_18
REMARK    8  A    between atoms: S_18  and  C_21
REMARK    9  A    between atoms: C_24  and  O_25
REMARK   10  A    between atoms: O_25  and  C_26
REMARK   11  A    between atoms: C_26  and  C_27
REMARK                            x       y       z     vdW  Elec       q    Type
REMARK                         _______ _______ _______ _____ _____    ______ ____
ROOT
ATOM      1  N   UNL     1       4.240   4.816  17.291  0.00  0.00    +0.000 N 
ATOM      2  H   UNL     1       4.160   5.570  16.610  0.00  0.00    +0.000 HD
ENDROOT
BRANCH   1   8
ATOM      3  C   UNL     1       2.751   3.862  19.067  0.00  0.00    +0.000 A 
ATOM      4  C   UNL     1       1.788   4.123  20.045  0.00  0.00    +0.000 A 
ATOM      5  C   UNL     1       1.496   5.433  20.423  0.00  0.00    +0.000 A 
ATOM      6  C   UNL     1       2.131   6.525  19.827  0.00  0.00    +0.000 A 
ATOM      7  C   UNL     1       3.044   6.255  18.806  0.00  0.00    +0.000 A 
ATOM      8  C   UNL     1       3.340   4.952  18.403  0.00  0.00    +0.000 A 
BRANCH   6   9
ATOM      9  N   UNL     1       1.835   7.808  20.212  0.00  0.00    +0.000 N 
ATOM     10  C   UNL     1       1.874   8.949  19.292  0.00  0.00    +0.000 C 
ATOM     11  C   UNL     1       0.553   9.755  19.436  0.00  0.00    +0.000 C 
ATOM     12  C   UNL     1       0.589  10.994  18.548  0.00  0.00    +0.000 C 
ATOM     13  N   UNL     1       0.272  10.161  20.836  0.00  0.00    +0.000 NA
ATOM     14  C   UNL     1       0.286   8.973  21.722  0.00  0.00    +0.000 C 
ATOM     15  C   UNL     1       0.073   9.417  23.165  0.00  0.00    +0.000 C 
ATOM     16  C   UNL     1       1.604   8.167  21.613  0.00  0.00    +0.000 C 
ATOM     17  H   UNL     1      -0.648  10.600  20.877  0.00  0.00    +0.000 HD
ENDBRANCH   6   9
BRANCH   3  19
ATOM     18  C   UNL     1       3.550   1.792  19.883  0.00  0.00    +0.000 C 
ATOM     19  O   UNL     1       3.171   2.591  18.755  0.00  0.00    +0.000 OA
ENDBRANCH   3  19
ENDBRANCH   1   8
BRANCH   1  20
ATOM     20  S   UNL     1       5.891   4.571  17.612  0.00  0.00    +0.000 S 
ATOM     21  O   UNL     1       5.938   3.860  18.872  0.00  0.00    +0.000 OA
ATOM     22  O   UNL     1       6.526   4.008  16.432  0.00  0.00    +0.000 OA
BRANCH  20  23
ATOM     23  C   UNL     1       6.634   6.174  17.887  0.00  0.00    +0.000 A 
ATOM     24  C   UNL     1       7.726   6.318  18.756  0.00  0.00    +0.000 A 
ATOM     25  C   UNL     1       8.424   7.536  18.813  0.00  0.00    +0.000 A 
ATOM     26  C   UNL     1       8.044   8.602  17.996  0.00  0.00    +0.000 A 
ATOM     27  C   UNL     1       6.934   8.471  17.162  0.00  0.00    +0.000 A 
ATOM     28  C   UNL     1       6.253   7.252  17.081  0.00  0.00    +0.000 A 
BRANCH  26  29
ATOM     29  O   UNL     1       8.688   9.809  17.929  0.00  0.00    +0.000 OA
BRANCH  29  30
ATOM     30  C   UNL     1       9.565  10.084  19.027  0.00  0.00    +0.000 C 
BRANCH  30  31
ATOM     31  C   UNL     1      10.329  11.357  18.752  0.00  0.00    +0.000 A 
ATOM     32  C   UNL     1      11.625  11.540  19.252  0.00  0.00    +0.000 A 
ATOM     33  C   UNL     1      12.329  12.713  18.974  0.00  0.00    +0.000 A 
ATOM     34  C   UNL     1      11.750  13.708  18.188  0.00  0.00    +0.000 A 
ATOM     35  C   UNL     1      10.469  13.529  17.672  0.00  0.00    +0.000 A 
ATOM     36  C   UNL     1       9.763  12.359  17.949  0.00  0.00    +0.000 A 
ENDBRANCH  30  31
ENDBRANCH  29  30
ENDBRANCH  26  29
ENDBRANCH  20  23
ENDBRANCH   1  20
TORSDOF 8
ENDMDL
MODEL 5
REMARK VINA RESULT:      -8.4      4.898      7.885
REMARK  Name = 
REMARK  11 active torsions:
REMARK  status: ('A' for Active; 'I' for Inactive)
REMARK    1  A    between atoms: C_1  and  O_2
REMARK    2  A    between atoms: O_2  and  C_3
REMARK    3  A    between atoms: C_6  and  N_7
REMARK    4  A    between atoms: C_9  and  C_10
REMARK    5  A    between atoms: C_12  and  C_13
REMARK    6  A    between atoms: C_16  and  N_17
REMARK    7  A    between atoms: N_17  and  S_18
REMARK    8  A    between atoms: S_18  and  C_21
REMARK    9  A    between atoms: C_24  and  O_25
REMARK   10  A    between atoms: O_25  and  C_26
REMARK   11  A    between atoms: C_26  and  C_27
REMARK                            x       y       z     vdW  Elec       q    Type
REMARK                         _______ _______ _______ _____ _____    ______ ____
ROOT
ATOM      1  N   UNL     1      -0.765  11.017  17.917  0.00  0.00    +0.000 N 
ATOM      2  H   UNL     1      -0.273  11.684  17.323  0.00  0.00    +0.000 HD
ENDROOT
BRANCH   1   8
ATOM      3  C   UNL     1      -3.038  10.760  16.894  0.00  0.00    +0.000 A 
ATOM      4  C   UNL     1      -4.389  11.117  16.948  0.00  0.00    +0.000 A 
ATOM      5  C   UNL     1      -4.898  11.804  18.049  0.00  0.00    +0.000 A 
ATOM      6  C   UNL     1      -4.082  12.181  19.119  0.00  0.00    +0.000 A 
ATOM      7  C   UNL     1      -2.723  11.876  19.024  0.00  0.00    +0.000 A 
ATOM      8  C   UNL     1      -2.190  11.201  17.924  0.00  0.00    +0.000 A 
BRANCH   6   9
ATOM      9  N   UNL     1      -4.599  12.853  20.196  0.00  0.00    +0.000 N 
ATOM     10  C   UNL     1      -6.033  13.103  20.371  0.00  0.00    +0.000 C 
ATOM     11  C   UNL     1      -6.445  12.681  21.809  0.00  0.00    +0.000 C 
ATOM     12  C   UNL     1      -7.916  12.998  22.054  0.00  0.00    +0.000 C 
ATOM     13  N   UNL     1      -5.622  13.329  22.861  0.00  0.00    +0.000 NA
ATOM     14  C   UNL     1      -4.183  13.076  22.608  0.00  0.00    +0.000 C 
ATOM     15  C   UNL     1      -3.349  13.811  23.651  0.00  0.00    +0.000 C 
ATOM     16  C   UNL     1      -3.745  13.510  21.187  0.00  0.00    +0.000 C 
ATOM     17  H   UNL     1      -5.876  12.941  23.769  0.00  0.00    +0.000 HD
ENDBRANCH   6   9
BRANCH   3  19
ATOM     18  C   UNL     1      -3.055  10.213  14.594  0.00  0.00    +0.000 C 
ATOM     19  O   UNL     1      -2.516   9.969  15.900  0.00  0.00    +0.000 OA
ENDBRANCH   3  19
ENDBRANCH   1   8
BRANCH   1  20
ATOM     20  S   UNL     1       0.047  10.942  19.409  0.00  0.00    +0.000 S 
ATOM     21  O   UNL     1       0.902  12.109  19.443  0.00  0.00    +0.000 OA
ATOM     22  O   UNL     1      -0.923  10.717  20.467  0.00  0.00    +0.000 OA
BRANCH  20  23
ATOM     23  C   UNL     1       1.117   9.509  19.372  0.00  0.00    +0.000 A 
ATOM     24  C   UNL     1       1.180   8.633  20.467  0.00  0.00    +0.000 A 
ATOM     25  C   UNL     1       1.866   7.413  20.353  0.00  0.00    +0.000 A 
ATOM     26  C   UNL     1       2.475   7.060  19.148  0.00  0.00    +0.000 A 
ATOM     27  C   UNL     1       2.446   7.948  18.073  0.00  0.00    +0.000 A 
ATOM     28  C   UNL     1       1.741   9.151  18.172  0.00  0.00    +0.000 A 
BRANCH  26  29
ATOM     29  O   UNL     1       3.117   5.873  18.910  0.00  0.00    +0.000 OA
BRANCH  29  30
ATOM     30  C   UNL     1       3.866   5.828  17.691  0.00  0.00    +0.000 C 
BRANCH  30  31
ATOM     31  C   UNL     1       5.328   6.052  17.992  0.00  0.00    +0.000 A 
ATOM     32  C   UNL     1       6.095   6.934  17.219  0.00  0.00    +0.000 A 
ATOM     33  C   UNL     1       7.442   7.148  17.519  0.00  0.00    +0.000 A 
ATOM     34  C   UNL     1       8.032   6.492  18.598  0.00  0.00    +0.000 A 
ATOM     35  C   UNL     1       7.274   5.626  19.384  0.00  0.00    +0.000 A 
ATOM     36  C   UNL     1       5.929   5.409  19.085  0.00  0.00    +0.000 A 
ENDBRANCH  30  31
ENDBRANCH  29  30
ENDBRANCH  26  29
ENDBRANCH  20  23
ENDBRANCH   1  20
TORSDOF 8
ENDMDL
MODEL 6
REMARK VINA RESULT:      -8.3      0.657      1.092
REMARK  Name = 
REMARK  11 active torsions:
REMARK  status: ('A' for Active; 'I' for Inactive)
REMARK    1  A    between atoms: C_1  and  O_2
REMARK    2  A    between atoms: O_2  and  C_3
REMARK    3  A    between atoms: C_6  and  N_7
REMARK    4  A    between atoms: C_9  and  C_10
REMARK    5  A    between atoms: C_12  and  C_13
REMARK    6  A    between atoms: C_16  and  N_17
REMARK    7  A    between atoms: N_17  and  S_18
REMARK    8  A    between atoms: S_18  and  C_21
REMARK    9  A    between atoms: C_24  and  O_25
REMARK   10  A    between atoms: O_25  and  C_26
REMARK   11  A    between atoms: C_26  and  C_27
REMARK                            x       y       z     vdW  Elec       q    Type
REMARK                         _______ _______ _______ _____ _____    ______ ____
ROOT
ATOM      1  N   UNL     1       3.569   4.822  17.437  0.00  0.00    +0.000 N 
ATOM      2  H   UNL     1       3.607   5.624  16.809  0.00  0.00    +0.000 HD
ENDROOT
BRANCH   1   8
ATOM      3  C   UNL     1       2.157   4.016  19.344  0.00  0.00    +0.000 A 
ATOM      4  C   UNL     1       1.283   4.366  20.378  0.00  0.00    +0.000 A 
ATOM      5  C   UNL     1       1.098   5.703  20.729  0.00  0.00    +0.000 A 
ATOM      6  C   UNL     1       1.753   6.735  20.053  0.00  0.00    +0.000 A 
ATOM      7  C   UNL     1       2.573   6.378  18.981  0.00  0.00    +0.000 A 
ATOM      8  C   UNL     1       2.761   5.047  18.604  0.00  0.00    +0.000 A 
BRANCH   6   9
ATOM      9  N   UNL     1       1.563   8.045  20.413  0.00  0.00    +0.000 N 
ATOM     10  C   UNL     1       1.777   9.167  19.494  0.00  0.00    +0.000 C 
ATOM     11  C   UNL     1       0.537  10.102  19.547  0.00  0.00    +0.000 C 
ATOM     12  C   UNL     1       0.756  11.323  18.660  0.00  0.00    +0.000 C 
ATOM     13  N   UNL     1       0.207  10.548  20.924  0.00  0.00    +0.000 NA
ATOM     14  C   UNL     1       0.043   9.374  21.814  0.00  0.00    +0.000 C 
ATOM     15  C   UNL     1      -0.219   9.851  23.238  0.00  0.00    +0.000 C 
ATOM     16  C   UNL     1       1.278   8.439  21.794  0.00  0.00    +0.000 C 
ATOM     17  H   UNL     1      -0.666  11.077  20.902  0.00  0.00    +0.000 HD
ENDBRANCH   6   9
BRANCH   3  19
ATOM     18  C   UNL     1       1.361   1.891  18.680  0.00  0.00    +0.000 C 
ATOM     19  O   UNL     1       2.476   2.714  19.048  0.00  0.00    +0.000 OA
ENDBRANCH   3  19
ENDBRANCH   1   8
BRANCH   1  20
ATOM     20  S   UNL     1       5.155   4.247  17.651  0.00  0.00    +0.000 S 
ATOM     21  O   UNL     1       5.119   3.460  18.865  0.00  0.00    +0.000 OA
ATOM     22  O   UNL     1       5.615   3.651  16.408  0.00  0.00    +0.000 OA
BRANCH  20  23
ATOM     23  C   UNL     1       6.206   5.657  17.971  0.00  0.00    +0.000 A 
ATOM     24  C   UNL     1       7.223   5.590  18.935  0.00  0.00    +0.000 A 
ATOM     25  C   UNL     1       8.164   6.627  19.039  0.00  0.00    +0.000 A 
ATOM     26  C   UNL     1       8.100   7.722  18.175  0.00  0.00    +0.000 A 
ATOM     27  C   UNL     1       7.066   7.808  17.245  0.00  0.00    +0.000 A 
ATOM     28  C   UNL     1       6.143   6.765  17.119  0.00  0.00    +0.000 A 
BRANCH  26  29
ATOM     29  O   UNL     1       8.998   8.757  18.151  0.00  0.00    +0.000 OA
BRANCH  29  30
ATOM     30  C   UNL     1       8.427  10.052  18.365  0.00  0.00    +0.000 C 
BRANCH  30  31
ATOM     31  C   UNL     1       9.500  11.000  18.843  0.00  0.00    +0.000 A 
ATOM     32  C   UNL     1      10.278  11.726  17.932  0.00  0.00    +0.000 A 
ATOM     33  C   UNL     1      11.254  12.615  18.387  0.00  0.00    +0.000 A 
ATOM     34  C   UNL     1      11.456  12.793  19.754  0.00  0.00    +0.000 A 
ATOM     35  C   UNL     1      10.676  12.090  20.670  0.00  0.00    +0.000 A 
ATOM     36  C   UNL     1       9.702  11.200  20.218  0.00  0.00    +0.000 A 
ENDBRANCH  30  31
ENDBRANCH  29  30
ENDBRANCH  26  29
ENDBRANCH  20  23
ENDBRANCH   1  20
TORSDOF 8
ENDMDL
MODEL 7
REMARK VINA RESULT:      -8.3      4.276      7.665
REMARK  Name = 
REMARK  11 active torsions:
REMARK  status: ('A' for Active; 'I' for Inactive)
REMARK    1  A    between atoms: C_1  and  O_2
REMARK    2  A    between atoms: O_2  and  C_3
REMARK    3  A    between atoms: C_6  and  N_7
REMARK    4  A    between atoms: C_9  and  C_10
REMARK    5  A    between atoms: C_12  and  C_13
REMARK    6  A    between atoms: C_16  and  N_17
REMARK    7  A    between atoms: N_17  and  S_18
REMARK    8  A    between atoms: S_18  and  C_21
REMARK    9  A    between atoms: C_24  and  O_25
REMARK   10  A    between atoms: O_25  and  C_26
REMARK   11  A    between atoms: C_26  and  C_27
REMARK                            x       y       z     vdW  Elec       q    Type
REMARK                         _______ _______ _______ _____ _____    ______ ____
ROOT
ATOM      1  N   UNL     1      -0.188  10.242  20.368  0.00  0.00    +0.000 N 
ATOM      2  H   UNL     1       0.160  10.113  19.418  0.00  0.00    +0.000 HD
ENDROOT
BRANCH   1   8
ATOM      3  C   UNL     1       0.996  12.438  20.601  0.00  0.00    +0.000 A 
ATOM      4  C   UNL     1       1.012  13.695  21.212  0.00  0.00    +0.000 A 
ATOM      5  C   UNL     1      -0.089  14.145  21.940  0.00  0.00    +0.000 A 
ATOM      6  C   UNL     1      -1.230  13.355  22.106  0.00  0.00    +0.000 A 
ATOM      7  C   UNL     1      -1.208  12.076  21.546  0.00  0.00    +0.000 A 
ATOM      8  C   UNL     1      -0.111  11.601  20.826  0.00  0.00    +0.000 A 
BRANCH   6   9
ATOM      9  N   UNL     1      -2.306  13.813  22.821  0.00  0.00    +0.000 N 
ATOM     10  C   UNL     1      -3.534  13.034  23.007  0.00  0.00    +0.000 C 
ATOM     11  C   UNL     1      -3.905  13.034  24.516  0.00  0.00    +0.000 C 
ATOM     12  C   UNL     1      -5.221  12.296  24.738  0.00  0.00    +0.000 C 
ATOM     13  N   UNL     1      -4.005  14.400  25.088  0.00  0.00    +0.000 NA
ATOM     14  C   UNL     1      -2.753  15.152  24.833  0.00  0.00    +0.000 C 
ATOM     15  C   UNL     1      -2.902  16.576  25.357  0.00  0.00    +0.000 C 
ATOM     16  C   UNL     1      -2.376  15.184  23.331  0.00  0.00    +0.000 C 
ATOM     17  H   UNL     1      -4.156  14.330  26.094  0.00  0.00    +0.000 HD
ENDBRANCH   6   9
BRANCH   3  19
ATOM     18  C   UNL     1       1.941  12.539  18.436  0.00  0.00    +0.000 C 
ATOM     19  O   UNL     1       1.996  12.004  19.765  0.00  0.00    +0.000 OA
ENDBRANCH   3  19
ENDBRANCH   1   8
BRANCH   1  20
ATOM     20  S   UNL     1       0.481   9.021  21.344  0.00  0.00    +0.000 S 
ATOM     21  O   UNL     1       1.362   9.703  22.267  0.00  0.00    +0.000 OA
ATOM     22  O   UNL     1      -0.589   8.174  21.845  0.00  0.00    +0.000 OA
BRANCH  20  23
ATOM     23  C   UNL     1       1.509   7.994  20.300  0.00  0.00    +0.000 A 
ATOM     24  C   UNL     1       1.766   6.658  20.640  0.00  0.00    +0.000 A 
ATOM     25  C   UNL     1       2.405   5.808  19.722  0.00  0.00    +0.000 A 
ATOM     26  C   UNL     1       2.773   6.286  18.463  0.00  0.00    +0.000 A 
ATOM     27  C   UNL     1       2.553   7.624  18.141  0.00  0.00    +0.000 A 
ATOM     28  C   UNL     1       1.893   8.466  19.041  0.00  0.00    +0.000 A 
BRANCH  26  29
ATOM     29  O   UNL     1       3.347   5.531  17.474  0.00  0.00    +0.000 OA
BRANCH  29  30
ATOM     30  C   UNL     1       4.391   4.657  17.914  0.00  0.00    +0.000 C 
BRANCH  30  31
ATOM     31  C   UNL     1       5.662   5.450  18.106  0.00  0.00    +0.000 A 
ATOM     32  C   UNL     1       6.540   5.158  19.158  0.00  0.00    +0.000 A 
ATOM     33  C   UNL     1       7.721   5.885  19.313  0.00  0.00    +0.000 A 
ATOM     34  C   UNL     1       8.040   6.903  18.415  0.00  0.00    +0.000 A 
ATOM     35  C   UNL     1       7.183   7.189  17.356  0.00  0.00    +0.000 A 
ATOM     36  C   UNL     1       6.001   6.466  17.199  0.00  0.00    +0.000 A 
ENDBRANCH  30  31
ENDBRANCH  29  30
ENDBRANCH  26  29
ENDBRANCH  20  23
ENDBRANCH   1  20
TORSDOF 8
ENDMDL
MODEL 8
REMARK VINA RESULT:      -8.2      4.842      8.013
REMARK  Name = 
REMARK  11 active torsions:
REMARK  status: ('A' for Active; 'I' for Inactive)
REMARK    1  A    between atoms: C_1  and  O_2
REMARK    2  A    between atoms: O_2  and  C_3
REMARK    3  A    between atoms: C_6  and  N_7
REMARK    4  A    between atoms: C_9  and  C_10
REMARK    5  A    between atoms: C_12  and  C_13
REMARK    6  A    between atoms: C_16  and  N_17
REMARK    7  A    between atoms: N_17  and  S_18
REMARK    8  A    between atoms: S_18  and  C_21
REMARK    9  A    between atoms: C_24  and  O_25
REMARK   10  A    between atoms: O_25  and  C_26
REMARK   11  A    between atoms: C_26  and  C_27
REMARK                            x       y       z     vdW  Elec       q    Type
REMARK                         _______ _______ _______ _____ _____    ______ ____
ROOT
ATOM      1  N   UNL     1       1.049  10.020  20.089  0.00  0.00    +0.000 N 
ATOM      2  H   UNL     1       1.971  10.437  20.217  0.00  0.00    +0.000 HD
ENDROOT
BRANCH   1   8
ATOM      3  C   UNL     1      -0.024  12.196  20.719  0.00  0.00    +0.000 A 
ATOM      4  C   UNL     1      -1.170  12.993  20.652  0.00  0.00    +0.000 A 
ATOM      5  C   UNL     1      -2.228  12.647  19.811  0.00  0.00    +0.000 A 
ATOM      6  C   UNL     1      -2.193  11.491  19.029  0.00  0.00    +0.000 A 
ATOM      7  C   UNL     1      -1.072  10.669  19.152  0.00  0.00    +0.000 A 
ATOM      8  C   UNL     1      -0.009  10.989  19.999  0.00  0.00    +0.000 A 
BRANCH   6   9
ATOM      9  N   UNL     1      -3.240  11.167  18.204  0.00  0.00    +0.000 N 
ATOM     10  C   UNL     1      -4.632  11.515  18.503  0.00  0.00    +0.000 C 
ATOM     11  C   UNL     1      -5.264  12.182  17.249  0.00  0.00    +0.000 C 
ATOM     12  C   UNL     1      -6.736  12.489  17.497  0.00  0.00    +0.000 C 
ATOM     13  N   UNL     1      -5.134  11.352  16.025  0.00  0.00    +0.000 NA
ATOM     14  C   UNL     1      -3.712  10.999  15.798  0.00  0.00    +0.000 C 
ATOM     15  C   UNL     1      -3.606  10.084  14.583  0.00  0.00    +0.000 C 
ATOM     16  C   UNL     1      -3.068  10.311  17.028  0.00  0.00    +0.000 C 
ATOM     17  H   UNL     1      -5.480  11.883  15.225  0.00  0.00    +0.000 HD
ENDBRANCH   6   9
BRANCH   3  19
ATOM     18  C   UNL     1       1.274  13.974  21.580  0.00  0.00    +0.000 C 
ATOM     19  O   UNL     1       1.096  12.560  21.425  0.00  0.00    +0.000 OA
ENDBRANCH   3  19
ENDBRANCH   1   8
BRANCH   1  20
ATOM     20  S   UNL     1       0.887   8.748  21.205  0.00  0.00    +0.000 S 
ATOM     21  O   UNL     1       1.581   9.188  22.396  0.00  0.00    +0.000 OA
ATOM     22  O   UNL     1      -0.510   8.354  21.276  0.00  0.00    +0.000 OA
BRANCH  20  23
ATOM     23  C   UNL     1       1.790   7.344  20.561  0.00  0.00    +0.000 A 
ATOM     24  C   UNL     1       1.650   6.075  21.142  0.00  0.00    +0.000 A 
ATOM     25  C   UNL     1       2.204   4.948  20.513  0.00  0.00    +0.000 A 
ATOM     26  C   UNL     1       2.882   5.084  19.301  0.00  0.00    +0.000 A 
ATOM     27  C   UNL     1       3.056   6.350  18.745  0.00  0.00    +0.000 A 
ATOM     28  C   UNL     1       2.483   7.471  19.353  0.00  0.00    +0.000 A 
BRANCH  26  29
ATOM     29  O   UNL     1       3.409   4.048  18.575  0.00  0.00    +0.000 OA
BRANCH  29  30
ATOM     30  C   UNL     1       3.345   4.215  17.155  0.00  0.00    +0.000 C 
BRANCH  30  31
ATOM     31  C   UNL     1       4.740   4.405  16.609  0.00  0.00    +0.000 A 
ATOM     32  C   UNL     1       5.853   4.395  17.460  0.00  0.00    +0.000 A 
ATOM     33  C   UNL     1       7.140   4.551  16.941  0.00  0.00    +0.000 A 
ATOM     34  C   UNL     1       7.327   4.711  15.569  0.00  0.00    +0.000 A 
ATOM     35  C   UNL     1       6.229   4.705  14.712  0.00  0.00    +0.000 A 
ATOM     36  C   UNL     1       4.942   4.550  15.228  0.00  0.00    +0.000 A 
ENDBRANCH  30  31
ENDBRANCH  29  30
ENDBRANCH  26  29
ENDBRANCH  20  23
ENDBRANCH   1  20
TORSDOF 8
ENDMDL
MODEL 9
REMARK VINA RESULT:      -8.2      5.272      8.834
REMARK  Name = 
REMARK  11 active torsions:
REMARK  status: ('A' for Active; 'I' for Inactive)
REMARK    1  A    between atoms: C_1  and  O_2
REMARK    2  A    between atoms: O_2  and  C_3
REMARK    3  A    between atoms: C_6  and  N_7
REMARK    4  A    between atoms: C_9  and  C_10
REMARK    5  A    between atoms: C_12  and  C_13
REMARK    6  A    between atoms: C_16  and  N_17
REMARK    7  A    between atoms: N_17  and  S_18
REMARK    8  A    between atoms: S_18  and  C_21
REMARK    9  A    between atoms: C_24  and  O_25
REMARK   10  A    between atoms: O_25  and  C_26
REMARK   11  A    between atoms: C_26  and  C_27
REMARK                            x       y       z     vdW  Elec       q    Type
REMARK                         _______ _______ _______ _____ _____    ______ ____
ROOT
ATOM      1  N   UNL     1      -0.385  11.510  19.660  0.00  0.00    +0.000 N 
ATOM      2  H   UNL     1       0.157  12.365  19.785  0.00  0.00    +0.000 HD
ENDROOT
BRANCH   1   8
ATOM      3  C   UNL     1      -2.625  11.291  18.559  0.00  0.00    +0.000 A 
ATOM      4  C   UNL     1      -3.966  11.686  18.554  0.00  0.00    +0.000 A 
ATOM      5  C   UNL     1      -4.496  12.415  19.619  0.00  0.00    +0.000 A 
ATOM      6  C   UNL     1      -3.709  12.795  20.709  0.00  0.00    +0.000 A 
ATOM      7  C   UNL     1      -2.356  12.450  20.672  0.00  0.00    +0.000 A 
ATOM      8  C   UNL     1      -1.803  11.734  19.610  0.00  0.00    +0.000 A 
BRANCH   6   9
ATOM      9  N   UNL     1      -4.246  13.507  21.750  0.00  0.00    +0.000 N 
ATOM     10  C   UNL     1      -5.689  13.657  21.958  0.00  0.00    +0.000 C 
ATOM     11  C   UNL     1      -6.021  13.319  23.439  0.00  0.00    +0.000 C 
ATOM     12  C   UNL     1      -7.505  13.538  23.712  0.00  0.00    +0.000 C 
ATOM     13  N   UNL     1      -5.221  14.111  24.406  0.00  0.00    +0.000 NA
ATOM     14  C   UNL     1      -3.775  13.953  24.121  0.00  0.00    +0.000 C 
ATOM     15  C   UNL     1      -2.972  14.832  25.073  0.00  0.00    +0.000 C 
ATOM     16  C   UNL     1      -3.417  14.306  22.656  0.00  0.00    +0.000 C 
ATOM     17  H   UNL     1      -5.415  13.778  25.351  0.00  0.00    +0.000 HD
ENDBRANCH   6   9
BRANCH   3  19
ATOM     18  C   UNL     1      -2.565  10.695  16.272  0.00  0.00    +0.000 C 
ATOM     19  O   UNL     1      -2.090  10.461  17.604  0.00  0.00    +0.000 OA
ENDBRANCH   3  19
ENDBRANCH   1   8
BRANCH   1  20
ATOM     20  S   UNL     1       0.212  10.347  20.747  0.00  0.00    +0.000 S 
ATOM     21  O   UNL     1       1.035  11.080  21.685  0.00  0.00    +0.000 OA
ATOM     22  O   UNL     1      -0.893   9.533  21.226  0.00  0.00    +0.000 OA
BRANCH  20  23
ATOM     23  C   UNL     1       1.299   9.259  19.834  0.00  0.00    +0.000 A 
ATOM     24  C   UNL     1       1.678   8.016  20.363  0.00  0.00    +0.000 A 
ATOM     25  C   UNL     1       2.366   7.091  19.561  0.00  0.00    +0.000 A 
ATOM     26  C   UNL     1       2.663   7.398  18.232  0.00  0.00    +0.000 A 
ATOM     27  C   UNL     1       2.322   8.648  17.719  0.00  0.00    +0.000 A 
ATOM     28  C   UNL     1       1.612   9.562  18.505  0.00  0.00    +0.000 A 
BRANCH  26  29
ATOM     29  O   UNL     1       3.276   6.549  17.348  0.00  0.00    +0.000 OA
BRANCH  29  30
ATOM     30  C   UNL     1       4.368   5.800  17.892  0.00  0.00    +0.000 C 
BRANCH  30  31
ATOM     31  C   UNL     1       3.911   4.392  18.189  0.00  0.00    +0.000 A 
ATOM     32  C   UNL     1       2.999   3.739  17.349  0.00  0.00    +0.000 A 
ATOM     33  C   UNL     1       2.599   2.430  17.623  0.00  0.00    +0.000 A 
ATOM     34  C   UNL     1       3.113   1.758  18.731  0.00  0.00    +0.000 A 
ATOM     35  C   UNL     1       4.035   2.391  19.562  0.00  0.00    +0.000 A 
ATOM     36  C   UNL     1       4.434   3.700  19.292  0.00  0.00    +0.000 A 
ENDBRANCH  30  31
ENDBRANCH  29  30
ENDBRANCH  26  29
ENDBRANCH  20  23
ENDBRANCH   1  20
TORSDOF 8
ENDMDL
