MODEL 1
REMARK VINA RESULT:      -8.3      0.000      0.000
REMARK  Name = 
REMARK  6 active torsions:
REMARK  status: ('A' for Active; 'I' for Inactive)
REMARK    1  A    between atoms: C_1  and  C_8
REMARK    2  A    between atoms: C_2  and  C_3
REMARK    3  A    between atoms: C_8  and  C_9
REMARK    4  A    between atoms: C_9  and  N_10
REMARK    5  A    between atoms: C_13  and  C_14
REMARK    6  A    between atoms: C_14  and  C_15
REMARK                            x       y       z     vdW  Elec       q    Type
REMARK                         _______ _______ _______ _____ _____    ______ ____
ROOT
ATOM      1  N   UNL     1       6.957   5.791  17.498  0.00  0.00    +0.000 NA
ATOM      2  C   UNL     1       6.282   4.942  18.483  0.00  0.00    +0.000 C 
ATOM      3  C   UNL     1       5.464   3.872  17.767  0.00  0.00    +0.000 C 
ATOM      4  C   UNL     1       4.398   4.505  16.857  0.00  0.00    +0.000 C 
ATOM      5  C   UNL     1       5.138   5.379  15.843  0.00  0.00    +0.000 C 
ATOM      6  C   UNL     1       6.026   6.410  16.538  0.00  0.00    +0.000 C 
ENDROOT
BRANCH   1   7
ATOM      7  C   UNL     1       7.772   6.794  18.196  0.00  0.00    +0.000 C 
BRANCH   7   8
ATOM      8  C   UNL     1       7.655   8.142  17.516  0.00  0.00    +0.000 C 
BRANCH   8   9
ATOM      9  C   UNL     1       8.460   9.208  18.241  0.00  0.00    +0.000 C 
ATOM     10  C   UNL     1       9.150  10.123  18.862  0.00  0.00    +0.000 C 
BRANCH  10  11
ATOM     11  C   UNL     1       9.905  11.118  19.540  0.00  0.00    +0.000 A 
ATOM     12  C   UNL     1      11.137  11.684  19.139  0.00  0.00    +0.000 A 
ATOM     13  C   UNL     1      11.495  12.610  20.101  0.00  0.00    +0.000 A 
ATOM     14  N   UNL     1      10.519  12.617  21.063  0.00  0.00    +0.000 N 
ATOM     15  C   UNL     1       9.543  11.710  20.733  0.00  0.00    +0.000 A 
ATOM     16  H   UNL     1      10.517  13.201  21.890  0.00  0.00    +0.000 HD
ENDBRANCH  10  11
ENDBRANCH   8   9
ENDBRANCH   7   8
ENDBRANCH   1   7
BRANCH   4  17
ATOM     17  C   UNL     1       3.337   5.353  17.595  0.00  0.00    +0.000 C 
BRANCH  17  18
ATOM     18  C   UNL     1       2.507   4.591  18.599  0.00  0.00    +0.000 A 
ATOM     19  C   UNL     1       2.492   5.000  19.943  0.00  0.00    +0.000 A 
ATOM     20  C   UNL     1       1.687   4.337  20.875  0.00  0.00    +0.000 A 
ATOM     21  C   UNL     1       0.880   3.281  20.468  0.00  0.00    +0.000 A 
ATOM     22  C   UNL     1       0.892   2.866  19.140  0.00  0.00    +0.000 A 
ATOM     23  C   UNL     1       1.715   3.510  18.212  0.00  0.00    +0.000 A 
ENDBRANCH  17  18
ENDBRANCH   4  17
TORSDOF 6
ENDMDL
MODEL 2
REMARK VINA RESULT:      -8.2      0.595      1.329
REMARK  Name = 
REMARK  6 active torsions:
REMARK  status: ('A' for Active; 'I' for Inactive)
REMARK    1  A    between atoms: C_1  and  C_8
REMARK    2  A    between atoms: C_2  and  C_3
REMARK    3  A    between atoms: C_8  and  C_9
REMARK    4  A    between atoms: C_9  and  N_10
REMARK    5  A    between atoms: C_13  and  C_14
REMARK    6  A    between atoms: C_14  and  C_15
REMARK                            x       y       z     vdW  Elec       q    Type
REMARK                         _______ _______ _______ _____ _____    ______ ____
ROOT
ATOM      1  N   UNL     1       7.061   5.790  17.687  0.00  0.00    +0.000 NA
ATOM      2  C   UNL     1       6.315   5.072  18.725  0.00  0.00    +0.000 C 
ATOM      3  C   UNL     1       5.557   3.905  18.101  0.00  0.00    +0.000 C 
ATOM      4  C   UNL     1       4.562   4.395  17.036  0.00  0.00    +0.000 C 
ATOM      5  C   UNL     1       5.375   5.133  15.971  0.00  0.00    +0.000 C 
ATOM      6  C   UNL     1       6.204   6.260  16.584  0.00  0.00    +0.000 C 
ENDROOT
BRANCH   1   7
ATOM      7  C   UNL     1       7.817   6.888  18.302  0.00  0.00    +0.000 C 
BRANCH   7   8
ATOM      8  C   UNL     1       7.575   8.183  17.555  0.00  0.00    +0.000 C 
BRANCH   8   9
ATOM      9  C   UNL     1       8.422   9.317  18.110  0.00  0.00    +0.000 C 
ATOM     10  C   UNL     1       9.149  10.289  18.586  0.00  0.00    +0.000 C 
BRANCH  10  11
ATOM     11  C   UNL     1       9.940  11.349  19.107  0.00  0.00    +0.000 A 
ATOM     12  C   UNL     1      10.185  11.650  20.467  0.00  0.00    +0.000 A 
ATOM     13  C   UNL     1      11.008  12.760  20.499  0.00  0.00    +0.000 A 
ATOM     14  N   UNL     1      11.264  13.132  19.205  0.00  0.00    +0.000 N 
ATOM     15  C   UNL     1      10.616  12.280  18.346  0.00  0.00    +0.000 A 
ATOM     16  H   UNL     1      11.841  13.915  18.925  0.00  0.00    +0.000 HD
ENDBRANCH  10  11
ENDBRANCH   8   9
ENDBRANCH   7   8
ENDBRANCH   1   7
BRANCH   4  17
ATOM     17  C   UNL     1       3.445   5.321  17.571  0.00  0.00    +0.000 C 
BRANCH  17  18
ATOM     18  C   UNL     1       2.462   4.652  18.500  0.00  0.00    +0.000 A 
ATOM     19  C   UNL     1       1.803   3.481  18.090  0.00  0.00    +0.000 A 
ATOM     20  C   UNL     1       0.929   2.820  18.960  0.00  0.00    +0.000 A 
ATOM     21  C   UNL     1       0.726   3.311  20.244  0.00  0.00    +0.000 A 
ATOM     22  C   UNL     1       1.371   4.473  20.657  0.00  0.00    +0.000 A 
ATOM     23  C   UNL     1       2.224   5.150  19.781  0.00  0.00    +0.000 A 
ENDBRANCH  17  18
ENDBRANCH   4  17
TORSDOF 6
ENDMDL
MODEL 3
REMARK VINA RESULT:      -8.1      1.131      1.415
REMARK  Name = 
REMARK  6 active torsions:
REMARK  status: ('A' for Active; 'I' for Inactive)
REMARK    1  A    between atoms: C_1  and  C_8
REMARK    2  A    between atoms: C_2  and  C_3
REMARK    3  A    between atoms: C_8  and  C_9
REMARK    4  A    between atoms: C_9  and  N_10
REMARK    5  A    between atoms: C_13  and  C_14
REMARK    6  A    between atoms: C_14  and  C_15
REMARK                            x       y       z     vdW  Elec       q    Type
REMARK                         _______ _______ _______ _____ _____    ______ ____
ROOT
ATOM      1  N   UNL     1       5.848   6.072  17.346  0.00  0.00    +0.000 NA
ATOM      2  C   UNL     1       6.218   4.799  16.721  0.00  0.00    +0.000 C 
ATOM      3  C   UNL     1       5.017   4.222  15.978  0.00  0.00    +0.000 C 
ATOM      4  C   UNL     1       3.839   3.972  16.934  0.00  0.00    +0.000 C 
ATOM      5  C   UNL     1       3.481   5.319  17.563  0.00  0.00    +0.000 C 
ATOM      6  C   UNL     1       4.688   5.954  18.248  0.00  0.00    +0.000 C 
ENDROOT
BRANCH   1   7
ATOM      7  C   UNL     1       7.018   6.638  18.028  0.00  0.00    +0.000 C 
BRANCH   7   8
ATOM      8  C   UNL     1       7.643   7.734  17.190  0.00  0.00    +0.000 C 
BRANCH   8   9
ATOM      9  C   UNL     1       8.345   8.769  18.054  0.00  0.00    +0.000 C 
ATOM     10  C   UNL     1       8.946   9.658  18.795  0.00  0.00    +0.000 C 
BRANCH  10  11
ATOM     11  C   UNL     1       9.602  10.628  19.600  0.00  0.00    +0.000 A 
ATOM     12  C   UNL     1      10.737  11.400  19.261  0.00  0.00    +0.000 A 
ATOM     13  C   UNL     1      11.022  12.208  20.346  0.00  0.00    +0.000 A 
ATOM     14  N   UNL     1      10.096  11.944  21.322  0.00  0.00    +0.000 N 
ATOM     15  C   UNL     1       9.225  10.980  20.879  0.00  0.00    +0.000 A 
ATOM     16  H   UNL     1      10.060  12.391  22.230  0.00  0.00    +0.000 HD
ENDBRANCH  10  11
ENDBRANCH   8   9
ENDBRANCH   7   8
ENDBRANCH   1   7
BRANCH   4  17
ATOM     17  C   UNL     1       4.119   2.937  18.049  0.00  0.00    +0.000 C 
BRANCH  17  18
ATOM     18  C   UNL     1       3.063   2.867  19.125  0.00  0.00    +0.000 A 
ATOM     19  C   UNL     1       3.445   2.881  20.476  0.00  0.00    +0.000 A 
ATOM     20  C   UNL     1       2.476   2.871  21.485  0.00  0.00    +0.000 A 
ATOM     21  C   UNL     1       1.127   2.868  21.151  0.00  0.00    +0.000 A 
ATOM     22  C   UNL     1       0.739   2.849  19.815  0.00  0.00    +0.000 A 
ATOM     23  C   UNL     1       1.705   2.832  18.806  0.00  0.00    +0.000 A 
ENDBRANCH  17  18
ENDBRANCH   4  17
TORSDOF 6
ENDMDL
MODEL 4
REMARK VINA RESULT:      -7.9      1.401      1.485
REMARK  Name = 
REMARK  6 active torsions:
REMARK  status: ('A' for Active; 'I' for Inactive)
REMARK    1  A    between atoms: C_1  and  C_8
REMARK    2  A    between atoms: C_2  and  C_3
REMARK    3  A    between atoms: C_8  and  C_9
REMARK    4  A    between atoms: C_9  and  N_10
REMARK    5  A    between atoms: C_13  and  C_14
REMARK    6  A    between atoms: C_14  and  C_15
REMARK                            x       y       z     vdW  Elec       q    Type
REMARK                         _______ _______ _______ _____ _____    ______ ____
ROOT
ATOM      1  N   UNL     1       6.638   6.043  17.229  0.00  0.00    +0.000 NA
ATOM      2  C   UNL     1       5.921   5.693  18.458  0.00  0.00    +0.000 C 
ATOM      3  C   UNL     1       5.623   4.197  18.472  0.00  0.00    +0.000 C 
ATOM      4  C   UNL     1       4.756   3.791  17.269  0.00  0.00    +0.000 C 
ATOM      5  C   UNL     1       5.537   4.168  16.009  0.00  0.00    +0.000 C 
ATOM      6  C   UNL     1       5.914   5.648  16.007  0.00  0.00    +0.000 C 
ENDROOT
BRANCH   1   7
ATOM      7  C   UNL     1       6.953   7.477  17.240  0.00  0.00    +0.000 C 
BRANCH   7   8
ATOM      8  C   UNL     1       8.049   7.772  18.242  0.00  0.00    +0.000 C 
BRANCH   8   9
ATOM      9  C   UNL     1       8.522   9.214  18.148  0.00  0.00    +0.000 C 
ATOM     10  C   UNL     1       8.929  10.450  18.066  0.00  0.00    +0.000 C 
BRANCH  10  11
ATOM     11  C   UNL     1       9.371  11.798  17.980  0.00  0.00    +0.000 A 
ATOM     12  C   UNL     1      10.689  12.282  18.151  0.00  0.00    +0.000 A 
ATOM     13  C   UNL     1      10.648  13.653  17.975  0.00  0.00    +0.000 A 
ATOM     14  N   UNL     1       9.350  14.004  17.705  0.00  0.00    +0.000 N 
ATOM     15  C   UNL     1       8.561  12.881  17.707  0.00  0.00    +0.000 A 
ATOM     16  H   UNL     1       9.023  14.946  17.532  0.00  0.00    +0.000 HD
ENDBRANCH  10  11
ENDBRANCH   8   9
ENDBRANCH   7   8
ENDBRANCH   1   7
BRANCH   4  17
ATOM     17  C   UNL     1       3.357   4.448  17.228  0.00  0.00    +0.000 C 
BRANCH  17  18
ATOM     18  C   UNL     1       2.422   4.011  18.328  0.00  0.00    +0.000 A 
ATOM     19  C   UNL     1       2.210   4.849  19.435  0.00  0.00    +0.000 A 
ATOM     20  C   UNL     1       1.306   4.482  20.438  0.00  0.00    +0.000 A 
ATOM     21  C   UNL     1       0.597   3.292  20.330  0.00  0.00    +0.000 A 
ATOM     22  C   UNL     1       0.804   2.453  19.239  0.00  0.00    +0.000 A 
ATOM     23  C   UNL     1       1.726   2.804  18.250  0.00  0.00    +0.000 A 
ENDBRANCH  17  18
ENDBRANCH   4  17
TORSDOF 6
ENDMDL
MODEL 5
REMARK VINA RESULT:      -7.9      1.423      1.780
REMARK  Name = 
REMARK  6 active torsions:
REMARK  status: ('A' for Active; 'I' for Inactive)
REMARK    1  A    between atoms: C_1  and  C_8
REMARK    2  A    between atoms: C_2  and  C_3
REMARK    3  A    between atoms: C_8  and  C_9
REMARK    4  A    between atoms: C_9  and  N_10
REMARK    5  A    between atoms: C_13  and  C_14
REMARK    6  A    between atoms: C_14  and  C_15
REMARK                            x       y       z     vdW  Elec       q    Type
REMARK                         _______ _______ _______ _____ _____    ______ ____
ROOT
ATOM      1  N   UNL     1       6.257   5.970  17.234  0.00  0.00    +0.000 NA
ATOM      2  C   UNL     1       5.601   5.432  18.430  0.00  0.00    +0.000 C 
ATOM      3  C   UNL     1       5.318   3.945  18.236  0.00  0.00    +0.000 C 
ATOM      4  C   UNL     1       4.400   3.707  17.026  0.00  0.00    +0.000 C 
ATOM      5  C   UNL     1       5.117   4.277  15.802  0.00  0.00    +0.000 C 
ATOM      6  C   UNL     1       5.480   5.747  16.002  0.00  0.00    +0.000 C 
ENDROOT
BRANCH   1   7
ATOM      7  C   UNL     1       6.559   7.392  17.444  0.00  0.00    +0.000 C 
BRANCH   7   8
ATOM      8  C   UNL     1       7.962   7.563  17.986  0.00  0.00    +0.000 C 
BRANCH   8   9
ATOM      9  C   UNL     1       8.382   9.024  18.004  0.00  0.00    +0.000 C 
ATOM     10  C   UNL     1       8.743  10.277  18.021  0.00  0.00    +0.000 C 
BRANCH  10  11
ATOM     11  C   UNL     1       9.133  11.643  18.039  0.00  0.00    +0.000 A 
ATOM     12  C   UNL     1      10.311  12.193  18.597  0.00  0.00    +0.000 A 
ATOM     13  C   UNL     1      10.269  13.557  18.379  0.00  0.00    +0.000 A 
ATOM     14  N   UNL     1       9.107  13.841  17.709  0.00  0.00    +0.000 N 
ATOM     15  C   UNL     1       8.405  12.682  17.497  0.00  0.00    +0.000 A 
ATOM     16  H   UNL     1       8.812  14.764  17.416  0.00  0.00    +0.000 HD
ENDBRANCH  10  11
ENDBRANCH   8   9
ENDBRANCH   7   8
ENDBRANCH   1   7
BRANCH   4  17
ATOM     17  C   UNL     1       2.994   4.341  17.146  0.00  0.00    +0.000 C 
BRANCH  17  18
ATOM     18  C   UNL     1       2.227   3.946  18.384  0.00  0.00    +0.000 A 
ATOM     19  C   UNL     1       1.855   2.605  18.574  0.00  0.00    +0.000 A 
ATOM     20  C   UNL     1       1.190   2.213  19.740  0.00  0.00    +0.000 A 
ATOM     21  C   UNL     1       0.914   3.151  20.729  0.00  0.00    +0.000 A 
ATOM     22  C   UNL     1       1.275   4.483  20.547  0.00  0.00    +0.000 A 
ATOM     23  C   UNL     1       1.915   4.881  19.371  0.00  0.00    +0.000 A 
ENDBRANCH  17  18
ENDBRANCH   4  17
TORSDOF 6
ENDMDL
MODEL 6
REMARK VINA RESULT:      -7.8      1.066      1.553
REMARK  Name = 
REMARK  6 active torsions:
REMARK  status: ('A' for Active; 'I' for Inactive)
REMARK    1  A    between atoms: C_1  and  C_8
REMARK    2  A    between atoms: C_2  and  C_3
REMARK    3  A    between atoms: C_8  and  C_9
REMARK    4  A    between atoms: C_9  and  N_10
REMARK    5  A    between atoms: C_13  and  C_14
REMARK    6  A    between atoms: C_14  and  C_15
REMARK                            x       y       z     vdW  Elec       q    Type
REMARK                         _______ _______ _______ _____ _____    ______ ____
ROOT
ATOM      1  N   UNL     1       6.783   6.393  16.934  0.00  0.00    +0.000 NA
ATOM      2  C   UNL     1       7.220   4.994  16.973  0.00  0.00    +0.000 C 
ATOM      3  C   UNL     1       6.225   4.123  16.212  0.00  0.00    +0.000 C 
ATOM      4  C   UNL     1       4.820   4.213  16.831  0.00  0.00    +0.000 C 
ATOM      5  C   UNL     1       4.399   5.682  16.770  0.00  0.00    +0.000 C 
ATOM      6  C   UNL     1       5.419   6.584  17.460  0.00  0.00    +0.000 C 
ENDROOT
BRANCH   1   7
ATOM      7  C   UNL     1       7.764   7.229  17.637  0.00  0.00    +0.000 C 
BRANCH   7   8
ATOM      8  C   UNL     1       7.321   8.676  17.646  0.00  0.00    +0.000 C 
BRANCH   8   9
ATOM      9  C   UNL     1       8.445   9.605  18.076  0.00  0.00    +0.000 C 
ATOM     10  C   UNL     1       9.408  10.403  18.445  0.00  0.00    +0.000 C 
BRANCH  10  11
ATOM     11  C   UNL     1      10.459  11.272  18.844  0.00  0.00    +0.000 A 
ATOM     12  C   UNL     1      11.461  11.841  18.025  0.00  0.00    +0.000 A 
ATOM     13  C   UNL     1      12.264  12.619  18.839  0.00  0.00    +0.000 A 
ATOM     14  N   UNL     1      11.775  12.534  20.117  0.00  0.00    +0.000 N 
ATOM     15  C   UNL     1      10.675  11.713  20.133  0.00  0.00    +0.000 A 
ATOM     16  H   UNL     1      12.165  13.002  20.925  0.00  0.00    +0.000 HD
ENDBRANCH  10  11
ENDBRANCH   8   9
ENDBRANCH   7   8
ENDBRANCH   1   7
BRANCH   4  17
ATOM     17  C   UNL     1       4.721   3.705  18.288  0.00  0.00    +0.000 C 
BRANCH  17  18
ATOM     18  C   UNL     1       3.313   3.539  18.804  0.00  0.00    +0.000 A 
ATOM     19  C   UNL     1       2.435   2.652  18.159  0.00  0.00    +0.000 A 
ATOM     20  C   UNL     1       1.144   2.448  18.656  0.00  0.00    +0.000 A 
ATOM     21  C   UNL     1       0.732   3.108  19.807  0.00  0.00    +0.000 A 
ATOM     22  C   UNL     1       1.593   3.992  20.451  0.00  0.00    +0.000 A 
ATOM     23  C   UNL     1       2.874   4.218  19.940  0.00  0.00    +0.000 A 
ENDBRANCH  17  18
ENDBRANCH   4  17
TORSDOF 6
ENDMDL
MODEL 7
REMARK VINA RESULT:      -7.7      1.825      2.350
REMARK  Name = 
REMARK  6 active torsions:
REMARK  status: ('A' for Active; 'I' for Inactive)
REMARK    1  A    between atoms: C_1  and  C_8
REMARK    2  A    between atoms: C_2  and  C_3
REMARK    3  A    between atoms: C_8  and  C_9
REMARK    4  A    between atoms: C_9  and  N_10
REMARK    5  A    between atoms: C_13  and  C_14
REMARK    6  A    between atoms: C_14  and  C_15
REMARK                            x       y       z     vdW  Elec       q    Type
REMARK                         _______ _______ _______ _____ _____    ______ ____
ROOT
ATOM      1  N   UNL     1       7.242   7.213  17.208  0.00  0.00    +0.000 NA
ATOM      2  C   UNL     1       7.699   6.456  18.377  0.00  0.00    +0.000 C 
ATOM      3  C   UNL     1       7.649   4.962  18.073  0.00  0.00    +0.000 C 
ATOM      4  C   UNL     1       6.219   4.512  17.728  0.00  0.00    +0.000 C 
ATOM      5  C   UNL     1       5.780   5.320  16.506  0.00  0.00    +0.000 C 
ATOM      6  C   UNL     1       5.894   6.821  16.759  0.00  0.00    +0.000 C 
ENDROOT
BRANCH   1   7
ATOM      7  C   UNL     1       7.328   8.651  17.496  0.00  0.00    +0.000 C 
BRANCH   7   8
ATOM      8  C   UNL     1       8.488   8.938  18.426  0.00  0.00    +0.000 C 
BRANCH   8   9
ATOM      9  C   UNL     1       9.096  10.305  18.158  0.00  0.00    +0.000 C 
ATOM     10  C   UNL     1       9.617  11.479  17.928  0.00  0.00    +0.000 C 
BRANCH  10  11
ATOM     11  C   UNL     1      10.185  12.757  17.675  0.00  0.00    +0.000 A 
ATOM     12  C   UNL     1      11.468  13.038  17.152  0.00  0.00    +0.000 A 
ATOM     13  C   UNL     1      11.588  14.413  17.076  0.00  0.00    +0.000 A 
ATOM     14  N   UNL     1      10.419  14.963  17.536  0.00  0.00    +0.000 N 
ATOM     15  C   UNL     1       9.556  13.962  17.907  0.00  0.00    +0.000 A 
ATOM     16  H   UNL     1      10.223  15.954  17.594  0.00  0.00    +0.000 HD
ENDBRANCH  10  11
ENDBRANCH   8   9
ENDBRANCH   7   8
ENDBRANCH   1   7
BRANCH   4  17
ATOM     17  C   UNL     1       5.191   4.694  18.868  0.00  0.00    +0.000 C 
BRANCH  17  18
ATOM     18  C   UNL     1       3.878   3.981  18.654  0.00  0.00    +0.000 A 
ATOM     19  C   UNL     1       3.787   2.602  18.905  0.00  0.00    +0.000 A 
ATOM     20  C   UNL     1       2.566   1.936  18.763  0.00  0.00    +0.000 A 
ATOM     21  C   UNL     1       1.429   2.644  18.391  0.00  0.00    +0.000 A 
ATOM     22  C   UNL     1       1.511   4.010  18.136  0.00  0.00    +0.000 A 
ATOM     23  C   UNL     1       2.736   4.672  18.252  0.00  0.00    +0.000 A 
ENDBRANCH  17  18
ENDBRANCH   4  17
TORSDOF 6
ENDMDL
MODEL 8
REMARK VINA RESULT:      -7.6      1.586      2.190
REMARK  Name = 
REMARK  6 active torsions:
REMARK  status: ('A' for Active; 'I' for Inactive)
REMARK    1  A    between atoms: C_1  and  C_8
REMARK    2  A    between atoms: C_2  and  C_3
REMARK    3  A    between atoms: C_8  and  C_9
REMARK    4  A    between atoms: C_9  and  N_10
REMARK    5  A    between atoms: C_13  and  C_14
REMARK    6  A    between atoms: C_14  and  C_15
REMARK                            x       y       z     vdW  Elec       q    Type
REMARK                         _______ _______ _______ _____ _____    ______ ____
ROOT
ATOM      1  N   UNL     1       7.421   7.247  17.274  0.00  0.00    +0.000 NA
ATOM      2  C   UNL     1       7.782   6.495  18.479  0.00  0.00    +0.000 C 
ATOM      3  C   UNL     1       7.645   5.000  18.214  0.00  0.00    +0.000 C 
ATOM      4  C   UNL     1       6.204   4.634  17.824  0.00  0.00    +0.000 C 
ATOM      5  C   UNL     1       5.865   5.432  16.564  0.00  0.00    +0.000 C 
ATOM      6  C   UNL     1       6.069   6.930  16.781  0.00  0.00    +0.000 C 
ENDROOT
BRANCH   1   7
ATOM      7  C   UNL     1       7.591   8.683  17.526  0.00  0.00    +0.000 C 
BRANCH   7   8
ATOM      8  C   UNL     1       8.591   8.912  18.640  0.00  0.00    +0.000 C 
BRANCH   8   9
ATOM      9  C   UNL     1       9.353  10.214  18.451  0.00  0.00    +0.000 C 
ATOM     10  C   UNL     1      10.007  11.331  18.289  0.00  0.00    +0.000 C 
BRANCH  10  11
ATOM     11  C   UNL     1      10.718  12.549  18.115  0.00  0.00    +0.000 A 
ATOM     12  C   UNL     1      11.021  13.199  16.896  0.00  0.00    +0.000 A 
ATOM     13  C   UNL     1      11.722  14.349  17.209  0.00  0.00    +0.000 A 
ATOM     14  N   UNL     1      11.847  14.408  18.573  0.00  0.00    +0.000 N 
ATOM     15  C   UNL     1      11.241  13.314  19.137  0.00  0.00    +0.000 A 
ATOM     16  H   UNL     1      12.316  15.144  19.086  0.00  0.00    +0.000 HD
ENDBRANCH  10  11
ENDBRANCH   8   9
ENDBRANCH   7   8
ENDBRANCH   1   7
BRANCH   4  17
ATOM     17  C   UNL     1       5.146   4.916  18.916  0.00  0.00    +0.000 C 
BRANCH  17  18
ATOM     18  C   UNL     1       3.864   4.132  18.771  0.00  0.00    +0.000 A 
ATOM     19  C   UNL     1       2.718   4.763  18.260  0.00  0.00    +0.000 A 
ATOM     20  C   UNL     1       1.537   4.038  18.070  0.00  0.00    +0.000 A 
ATOM     21  C   UNL     1       1.501   2.681  18.368  0.00  0.00    +0.000 A 
ATOM     22  C   UNL     1       2.631   2.049  18.879  0.00  0.00    +0.000 A 
ATOM     23  C   UNL     1       3.803   2.777  19.094  0.00  0.00    +0.000 A 
ENDBRANCH  17  18
ENDBRANCH   4  17
TORSDOF 6
ENDMDL
MODEL 9
REMARK VINA RESULT:      -7.5      1.264      1.815
REMARK  Name = 
REMARK  6 active torsions:
REMARK  status: ('A' for Active; 'I' for Inactive)
REMARK    1  A    between atoms: C_1  and  C_8
REMARK    2  A    between atoms: C_2  and  C_3
REMARK    3  A    between atoms: C_8  and  C_9
REMARK    4  A    between atoms: C_9  and  N_10
REMARK    5  A    between atoms: C_13  and  C_14
REMARK    6  A    between atoms: C_14  and  C_15
REMARK                            x       y       z     vdW  Elec       q    Type
REMARK                         _______ _______ _______ _____ _____    ______ ____
ROOT
ATOM      1  N   UNL     1       5.608   5.977  17.465  0.00  0.00    +0.000 NA
ATOM      2  C   UNL     1       6.003   4.737  16.791  0.00  0.00    +0.000 C 
ATOM      3  C   UNL     1       4.826   4.188  15.991  0.00  0.00    +0.000 C 
ATOM      4  C   UNL     1       3.627   3.886  16.904  0.00  0.00    +0.000 C 
ATOM      5  C   UNL     1       3.242   5.200  17.585  0.00  0.00    +0.000 C 
ATOM      6  C   UNL     1       4.427   5.810  18.330  0.00  0.00    +0.000 C 
ENDROOT
BRANCH   1   7
ATOM      7  C   UNL     1       6.757   6.519  18.202  0.00  0.00    +0.000 C 
BRANCH   7   8
ATOM      8  C   UNL     1       7.679   7.274  17.268  0.00  0.00    +0.000 C 
BRANCH   8   9
ATOM      9  C   UNL     1       8.225   8.535  17.917  0.00  0.00    +0.000 C 
ATOM     10  C   UNL     1       8.692   9.618  18.475  0.00  0.00    +0.000 C 
BRANCH  10  11
ATOM     11  C   UNL     1       9.202  10.798  19.080  0.00  0.00    +0.000 A 
ATOM     12  C   UNL     1       9.526  12.018  18.443  0.00  0.00    +0.000 A 
ATOM     13  C   UNL     1       9.983  12.882  19.421  0.00  0.00    +0.000 A 
ATOM     14  N   UNL     1       9.942  12.219  20.620  0.00  0.00    +0.000 N 
ATOM     15  C   UNL     1       9.469  10.946  20.425  0.00  0.00    +0.000 A 
ATOM     16  H   UNL     1      10.219  12.608  21.513  0.00  0.00    +0.000 HD
ENDBRANCH  10  11
ENDBRANCH   8   9
ENDBRANCH   7   8
ENDBRANCH   1   7
BRANCH   4  17
ATOM     17  C   UNL     1       3.886   2.802  17.977  0.00  0.00    +0.000 C 
BRANCH  17  18
ATOM     18  C   UNL     1       2.954   2.852  19.162  0.00  0.00    +0.000 A 
ATOM     19  C   UNL     1       1.565   2.892  18.954  0.00  0.00    +0.000 A 
ATOM     20  C   UNL     1       0.686   2.885  20.042  0.00  0.00    +0.000 A 
ATOM     21  C   UNL     1       1.187   2.818  21.338  0.00  0.00    +0.000 A 
ATOM     22  C   UNL     1       2.561   2.783  21.553  0.00  0.00    +0.000 A 
ATOM     23  C   UNL     1       3.441   2.817  20.469  0.00  0.00    +0.000 A 
ENDBRANCH  17  18
ENDBRANCH   4  17
TORSDOF 6
ENDMDL
