MODEL 1
REMARK VINA RESULT:      -6.7      0.000      0.000
REMARK  Name = 
REMARK  8 active torsions:
REMARK  status: ('A' for Active; 'I' for Inactive)
REMARK    1  A    between atoms: C_1  and  C_2
REMARK    2  A    between atoms: C_2  and  C_3
REMARK    3  A    between atoms: C_2  and  O_4
REMARK    4  A    between atoms: C_2  and  C_5
REMARK    5  A    between atoms: N_10  and  C_11
REMARK    6  A    between atoms: C_11  and  C_12
REMARK    7  A    between atoms: C_13  and  C_14
REMARK    8  A    between atoms: C_26  and  C_27
REMARK                            x       y       z     vdW  Elec       q    Type
REMARK                         _______ _______ _______ _____ _____    ______ ____
ROOT
ATOM      1  C   UNL     1       0.152  12.708  18.627  0.00  0.00    +0.000 A 
ATOM      2  C   UNL     1       1.298  12.024  19.041  0.00  0.00    +0.000 A 
ATOM      3  N   UNL     1       2.275  12.913  19.455  0.00  0.00    +0.000 NA
ATOM      4  C   UNL     1       1.757  14.098  19.257  0.00  0.00    +0.000 A 
ATOM      5  C   UNL     1       2.355  15.398  19.431  0.00  0.00    +0.000 A 
ATOM      6  N   UNL     1       1.696  16.504  19.190  0.00  0.00    +0.000 NA
ATOM      7  C   UNL     1       0.379  16.398  18.761  0.00  0.00    +0.000 A 
ATOM      8  C   UNL     1      -0.237  15.208  18.599  0.00  0.00    +0.000 A 
ATOM      9  N   UNL     1       0.468  14.041  18.817  0.00  0.00    +0.000 N 
ENDROOT
BRANCH   2  10
ATOM     10  C   UNL     1       1.490  10.572  19.012  0.00  0.00    +0.000 A 
ATOM     11  C   UNL     1       1.934   9.967  17.819  0.00  0.00    +0.000 A 
ATOM     12  C   UNL     1       2.249   8.607  17.757  0.00  0.00    +0.000 A 
ATOM     13  C   UNL     1       2.063   7.810  18.875  0.00  0.00    +0.000 A 
ATOM     14 CL   UNL     1       2.453   6.138  18.800  0.00  0.00    +0.000 Cl
ATOM     15  C   UNL     1       1.559   8.360  20.049  0.00  0.00    +0.000 A 
ATOM     16  C   UNL     1       1.280   9.735  20.125  0.00  0.00    +0.000 A 
ATOM     17 CL   UNL     1       0.706  10.305  21.657  0.00  0.00    +0.000 Cl
ENDBRANCH   2  10
BRANCH   7  18
ATOM     18  C   UNL     1      -0.324  17.658  18.461  0.00  0.00    +0.000 C 
ATOM     19  C   UNL     1      -1.790  17.854  18.721  0.00  0.00    +0.000 C 
ATOM     20  C   UNL     1      -0.791  18.466  19.656  0.00  0.00    +0.000 C 
ENDBRANCH   7  18
BRANCH   1  21
ATOM     21  C   UNL     1      -1.152  12.279  18.040  0.00  0.00    +0.000 C 
BRANCH  21  27
ATOM     22  C   UNL     1      -5.674  12.331  20.190  0.00  0.00    +0.000 C 
ATOM     23  O   UNL     1      -5.802  12.924  21.267  0.00  0.00    +0.000 OA
ATOM     24  N   UNL     1      -4.431  12.252  19.579  0.00  0.00    +0.000 N 
ATOM     25  C   UNL     1      -3.236  12.664  20.327  0.00  0.00    +0.000 C 
ATOM     26  C   UNL     1      -2.085  11.636  20.190  0.00  0.00    +0.000 C 
ATOM     27  N   UNL     1      -1.793  11.197  18.801  0.00  0.00    +0.000 NA
ATOM     28  C   UNL     1      -3.066  10.732  18.197  0.00  0.00    +0.000 C 
ATOM     29  C   UNL     1      -4.170  11.801  18.211  0.00  0.00    +0.000 C 
BRANCH  22  31
ATOM     30  C   UNL     1      -7.576  12.769  18.586  0.00  0.00    +0.000 C 
ATOM     31  C   UNL     1      -6.924  11.711  19.483  0.00  0.00    +0.000 C 
ATOM     32  C   UNL     1      -7.917  11.252  20.557  0.00  0.00    +0.000 C 
BRANCH  31  33
ATOM     33  O   UNL     1      -6.637  10.549  18.703  0.00  0.00    +0.000 OA
ATOM     34  H   UNL     1      -5.716  10.291  18.874  0.00  0.00    +0.000 HD
ENDBRANCH  31  33
ENDBRANCH  22  31
ENDBRANCH  21  27
ENDBRANCH   1  21
TORSDOF 6
ENDMDL
MODEL 2
REMARK VINA RESULT:      -6.4      3.606      7.019
REMARK  Name = 
REMARK  8 active torsions:
REMARK  status: ('A' for Active; 'I' for Inactive)
REMARK    1  A    between atoms: C_1  and  C_2
REMARK    2  A    between atoms: C_2  and  C_3
REMARK    3  A    between atoms: C_2  and  O_4
REMARK    4  A    between atoms: C_2  and  C_5
REMARK    5  A    between atoms: N_10  and  C_11
REMARK    6  A    between atoms: C_11  and  C_12
REMARK    7  A    between atoms: C_13  and  C_14
REMARK    8  A    between atoms: C_26  and  C_27
REMARK                            x       y       z     vdW  Elec       q    Type
REMARK                         _______ _______ _______ _____ _____    ______ ____
ROOT
ATOM      1  C   UNL     1       0.070  12.825  20.154  0.00  0.00    +0.000 A 
ATOM      2  C   UNL     1      -1.077  13.623  20.135  0.00  0.00    +0.000 A 
ATOM      3  N   UNL     1      -0.821  14.832  19.510  0.00  0.00    +0.000 NA
ATOM      4  C   UNL     1       0.449  14.788  19.201  0.00  0.00    +0.000 A 
ATOM      5  C   UNL     1       1.281  15.805  18.608  0.00  0.00    +0.000 A 
ATOM      6  N   UNL     1       2.551  15.603  18.354  0.00  0.00    +0.000 NA
ATOM      7  C   UNL     1       3.089  14.361  18.667  0.00  0.00    +0.000 A 
ATOM      8  C   UNL     1       2.352  13.367  19.205  0.00  0.00    +0.000 A 
ATOM      9  N   UNL     1       1.023  13.590  19.508  0.00  0.00    +0.000 N 
ENDROOT
BRANCH   2  10
ATOM     10  C   UNL     1      -2.374  13.280  20.724  0.00  0.00    +0.000 A 
ATOM     11  C   UNL     1      -2.673  13.732  22.025  0.00  0.00    +0.000 A 
ATOM     12  C   UNL     1      -3.932  13.541  22.599  0.00  0.00    +0.000 A 
ATOM     13  C   UNL     1      -4.900  12.833  21.905  0.00  0.00    +0.000 A 
ATOM     14 CL   UNL     1      -6.450  12.599  22.610  0.00  0.00    +0.000 Cl
ATOM     15  C   UNL     1      -4.616  12.310  20.647  0.00  0.00    +0.000 A 
ATOM     16  C   UNL     1      -3.363  12.537  20.052  0.00  0.00    +0.000 A 
ATOM     17 CL   UNL     1      -3.152  11.877  18.464  0.00  0.00    +0.000 Cl
ENDBRANCH   2  10
BRANCH   7  18
ATOM     18  C   UNL     1       4.528  14.177  18.407  0.00  0.00    +0.000 C 
ATOM     19  C   UNL     1       5.384  15.242  17.783  0.00  0.00    +0.000 C 
ATOM     20  C   UNL     1       5.473  15.000  19.260  0.00  0.00    +0.000 C 
ENDBRANCH   7  18
BRANCH   1  21
ATOM     21  C   UNL     1       0.387  11.487  20.735  0.00  0.00    +0.000 C 
BRANCH  21  27
ATOM     22  C   UNL     1       2.473   7.429  18.671  0.00  0.00    +0.000 C 
ATOM     23  O   UNL     1       3.019   7.550  17.569  0.00  0.00    +0.000 OA
ATOM     24  N   UNL     1       1.844   8.515  19.261  0.00  0.00    +0.000 N 
ATOM     25  C   UNL     1       1.622   9.733  18.471  0.00  0.00    +0.000 C 
ATOM     26  C   UNL     1       0.180  10.277  18.637  0.00  0.00    +0.000 C 
ATOM     27  N   UNL     1      -0.294  10.386  20.041  0.00  0.00    +0.000 NA
ATOM     28  C   UNL     1      -0.089   9.068  20.692  0.00  0.00    +0.000 C 
ATOM     29  C   UNL     1       1.372   8.590  20.644  0.00  0.00    +0.000 C 
BRANCH  22  31
ATOM     30  C   UNL     1       3.993   5.600  19.522  0.00  0.00    +0.000 C 
ATOM     31  C   UNL     1       2.535   6.064  19.431  0.00  0.00    +0.000 C 
ATOM     32  C   UNL     1       1.705   5.034  18.657  0.00  0.00    +0.000 C 
BRANCH  31  33
ATOM     33  O   UNL     1       1.974   6.101  20.744  0.00  0.00    +0.000 OA
ATOM     34  H   UNL     1       2.386   5.393  21.269  0.00  0.00    +0.000 HD
ENDBRANCH  31  33
ENDBRANCH  22  31
ENDBRANCH  21  27
ENDBRANCH   1  21
TORSDOF 6
ENDMDL
MODEL 3
REMARK VINA RESULT:      -6.3      4.204      7.464
REMARK  Name = 
REMARK  8 active torsions:
REMARK  status: ('A' for Active; 'I' for Inactive)
REMARK    1  A    between atoms: C_1  and  C_2
REMARK    2  A    between atoms: C_2  and  C_3
REMARK    3  A    between atoms: C_2  and  O_4
REMARK    4  A    between atoms: C_2  and  C_5
REMARK    5  A    between atoms: N_10  and  C_11
REMARK    6  A    between atoms: C_11  and  C_12
REMARK    7  A    between atoms: C_13  and  C_14
REMARK    8  A    between atoms: C_26  and  C_27
REMARK                            x       y       z     vdW  Elec       q    Type
REMARK                         _______ _______ _______ _____ _____    ______ ____
ROOT
ATOM      1  C   UNL     1      -2.700  12.890  20.590  0.00  0.00    +0.000 A 
ATOM      2  C   UNL     1      -3.704  12.321  19.803  0.00  0.00    +0.000 A 
ATOM      3  N   UNL     1      -4.918  12.344  20.467  0.00  0.00    +0.000 NA
ATOM      4  C   UNL     1      -4.652  12.868  21.636  0.00  0.00    +0.000 A 
ATOM      5  C   UNL     1      -5.520  13.061  22.771  0.00  0.00    +0.000 A 
ATOM      6  N   UNL     1      -5.097  13.610  23.883  0.00  0.00    +0.000 NA
ATOM      7  C   UNL     1      -3.771  14.019  23.945  0.00  0.00    +0.000 A 
ATOM      8  C   UNL     1      -2.920  13.881  22.907  0.00  0.00    +0.000 A 
ATOM      9  N   UNL     1      -3.353  13.269  21.748  0.00  0.00    +0.000 N 
ENDROOT
BRANCH   2  10
ATOM     10  C   UNL     1      -3.525  11.731  18.474  0.00  0.00    +0.000 A 
ATOM     11  C   UNL     1      -2.355  10.991  18.209  0.00  0.00    +0.000 A 
ATOM     12  C   UNL     1      -2.175  10.305  17.005  0.00  0.00    +0.000 A 
ATOM     13  C   UNL     1      -3.137  10.401  16.013  0.00  0.00    +0.000 A 
ATOM     14 CL   UNL     1      -2.917   9.556  14.532  0.00  0.00    +0.000 Cl
ATOM     15  C   UNL     1      -4.272  11.181  16.213  0.00  0.00    +0.000 A 
ATOM     16  C   UNL     1      -4.473  11.839  17.438  0.00  0.00    +0.000 A 
ATOM     17 CL   UNL     1      -5.947  12.737  17.580  0.00  0.00    +0.000 Cl
ENDBRANCH   2  10
BRANCH   7  18
ATOM     18  C   UNL     1      -3.315  14.598  25.223  0.00  0.00    +0.000 C 
ATOM     19  C   UNL     1      -1.988  15.283  25.378  0.00  0.00    +0.000 C 
ATOM     20  C   UNL     1      -3.233  16.111  25.281  0.00  0.00    +0.000 C 
ENDBRANCH   7  18
BRANCH   1  21
ATOM     21  C   UNL     1      -1.228  13.071  20.415  0.00  0.00    +0.000 C 
BRANCH  21  27
ATOM     22  C   UNL     1       3.351  14.960  19.679  0.00  0.00    +0.000 C 
ATOM     23  O   UNL     1       3.936  15.466  20.643  0.00  0.00    +0.000 OA
ATOM     24  N   UNL     1       2.064  14.464  19.824  0.00  0.00    +0.000 N 
ATOM     25  C   UNL     1       1.317  14.757  21.054  0.00  0.00    +0.000 C 
ATOM     26  C   UNL     1      -0.133  15.215  20.756  0.00  0.00    +0.000 C 
ATOM     27  N   UNL     1      -0.880  14.359  19.798  0.00  0.00    +0.000 NA
ATOM     28  C   UNL     1      -0.049  14.216  18.576  0.00  0.00    +0.000 C 
ATOM     29  C   UNL     1       1.345  13.634  18.857  0.00  0.00    +0.000 C 
BRANCH  22  31
ATOM     30  C   UNL     1       5.570  15.134  18.485  0.00  0.00    +0.000 C 
ATOM     31  C   UNL     1       4.080  14.828  18.301  0.00  0.00    +0.000 C 
ATOM     32  C   UNL     1       3.457  15.827  17.320  0.00  0.00    +0.000 C 
BRANCH  31  33
ATOM     33  O   UNL     1       3.938  13.546  17.686  0.00  0.00    +0.000 OA
ATOM     34  H   UNL     1       2.989  13.368  17.574  0.00  0.00    +0.000 HD
ENDBRANCH  31  33
ENDBRANCH  22  31
ENDBRANCH  21  27
ENDBRANCH   1  21
TORSDOF 6
ENDMDL
MODEL 4
REMARK VINA RESULT:      -6.3      3.923      6.901
REMARK  Name = 
REMARK  8 active torsions:
REMARK  status: ('A' for Active; 'I' for Inactive)
REMARK    1  A    between atoms: C_1  and  C_2
REMARK    2  A    between atoms: C_2  and  C_3
REMARK    3  A    between atoms: C_2  and  O_4
REMARK    4  A    between atoms: C_2  and  C_5
REMARK    5  A    between atoms: N_10  and  C_11
REMARK    6  A    between atoms: C_11  and  C_12
REMARK    7  A    between atoms: C_13  and  C_14
REMARK    8  A    between atoms: C_26  and  C_27
REMARK                            x       y       z     vdW  Elec       q    Type
REMARK                         _______ _______ _______ _____ _____    ______ ____
ROOT
ATOM      1  C   UNL     1      -1.382  13.535  21.625  0.00  0.00    +0.000 A 
ATOM      2  C   UNL     1      -1.773  12.391  20.923  0.00  0.00    +0.000 A 
ATOM      3  N   UNL     1      -3.145  12.373  20.743  0.00  0.00    +0.000 NA
ATOM      4  C   UNL     1      -3.579  13.447  21.354  0.00  0.00    +0.000 A 
ATOM      5  C   UNL     1      -4.932  13.896  21.563  0.00  0.00    +0.000 A 
ATOM      6  N   UNL     1      -5.204  15.008  22.200  0.00  0.00    +0.000 NA
ATOM      7  C   UNL     1      -4.139  15.766  22.673  0.00  0.00    +0.000 A 
ATOM      8  C   UNL     1      -2.853  15.402  22.489  0.00  0.00    +0.000 A 
ATOM      9  N   UNL     1      -2.566  14.212  21.851  0.00  0.00    +0.000 N 
ENDROOT
BRANCH   2  10
ATOM     10  C   UNL     1      -0.887  11.318  20.465  0.00  0.00    +0.000 A 
ATOM     11  C   UNL     1      -0.532  11.262  19.102  0.00  0.00    +0.000 A 
ATOM     12  C   UNL     1       0.399  10.337  18.622  0.00  0.00    +0.000 A 
ATOM     13  C   UNL     1       0.946   9.405  19.489  0.00  0.00    +0.000 A 
ATOM     14 CL   UNL     1       2.094   8.269  18.899  0.00  0.00    +0.000 Cl
ATOM     15  C   UNL     1       0.565   9.386  20.827  0.00  0.00    +0.000 A 
ATOM     16  C   UNL     1      -0.341  10.340  21.319  0.00  0.00    +0.000 A 
ATOM     17 CL   UNL     1      -0.697  10.241  23.011  0.00  0.00    +0.000 Cl
ENDBRANCH   2  10
BRANCH   7  18
ATOM     18  C   UNL     1      -4.478  16.991  23.419  0.00  0.00    +0.000 C 
ATOM     19  C   UNL     1      -5.768  17.156  24.171  0.00  0.00    +0.000 C 
ATOM     20  C   UNL     1      -4.508  16.869  24.930  0.00  0.00    +0.000 C 
ENDBRANCH   7  18
BRANCH   1  21
ATOM     21  C   UNL     1      -0.073  14.032  22.141  0.00  0.00    +0.000 C 
BRANCH  21  27
ATOM     22  C   UNL     1       4.270  14.803  19.771  0.00  0.00    +0.000 C 
ATOM     23  O   UNL     1       5.278  15.019  20.453  0.00  0.00    +0.000 OA
ATOM     24  N   UNL     1       3.037  14.628  20.381  0.00  0.00    +0.000 N 
ATOM     25  C   UNL     1       2.894  14.935  21.811  0.00  0.00    +0.000 C 
ATOM     26  C   UNL     1       1.623  15.773  22.098  0.00  0.00    +0.000 C 
ATOM     27  N   UNL     1       0.376  15.262  21.473  0.00  0.00    +0.000 NA
ATOM     28  C   UNL     1       0.639  15.077  20.024  0.00  0.00    +0.000 C 
ATOM     29  C   UNL     1       1.819  14.136  19.737  0.00  0.00    +0.000 C 
BRANCH  22  31
ATOM     30  C   UNL     1       5.869  14.707  17.817  0.00  0.00    +0.000 C 
ATOM     31  C   UNL     1       4.389  14.675  18.216  0.00  0.00    +0.000 C 
ATOM     32  C   UNL     1       3.647  15.850  17.570  0.00  0.00    +0.000 C 
BRANCH  31  33
ATOM     33  O   UNL     1       3.786  13.497  17.680  0.00  0.00    +0.000 OA
ATOM     34  H   UNL     1       3.350  13.023  18.409  0.00  0.00    +0.000 HD
ENDBRANCH  31  33
ENDBRANCH  22  31
ENDBRANCH  21  27
ENDBRANCH   1  21
TORSDOF 6
ENDMDL
MODEL 5
REMARK VINA RESULT:      -6.1      4.001      7.811
REMARK  Name = 
REMARK  8 active torsions:
REMARK  status: ('A' for Active; 'I' for Inactive)
REMARK    1  A    between atoms: C_1  and  C_2
REMARK    2  A    between atoms: C_2  and  C_3
REMARK    3  A    between atoms: C_2  and  O_4
REMARK    4  A    between atoms: C_2  and  C_5
REMARK    5  A    between atoms: N_10  and  C_11
REMARK    6  A    between atoms: C_11  and  C_12
REMARK    7  A    between atoms: C_13  and  C_14
REMARK    8  A    between atoms: C_26  and  C_27
REMARK                            x       y       z     vdW  Elec       q    Type
REMARK                         _______ _______ _______ _____ _____    ______ ____
ROOT
ATOM      1  C   UNL     1      -3.610  13.631  21.951  0.00  0.00    +0.000 A 
ATOM      2  C   UNL     1      -3.667  14.891  22.554  0.00  0.00    +0.000 A 
ATOM      3  N   UNL     1      -4.625  15.682  21.943  0.00  0.00    +0.000 NA
ATOM      4  C   UNL     1      -5.102  14.944  20.973  0.00  0.00    +0.000 A 
ATOM      5  C   UNL     1      -6.067  15.282  19.957  0.00  0.00    +0.000 A 
ATOM      6  N   UNL     1      -6.448  14.419  19.048  0.00  0.00    +0.000 NA
ATOM      7  C   UNL     1      -5.899  13.143  19.087  0.00  0.00    +0.000 A 
ATOM      8  C   UNL     1      -5.008  12.768  20.027  0.00  0.00    +0.000 A 
ATOM      9  N   UNL     1      -4.577  13.686  20.964  0.00  0.00    +0.000 N 
ENDROOT
BRANCH   2  10
ATOM     10  C   UNL     1      -2.816  15.359  23.650  0.00  0.00    +0.000 A 
ATOM     11  C   UNL     1      -3.083  14.911  24.959  0.00  0.00    +0.000 A 
ATOM     12  C   UNL     1      -2.242  15.225  26.030  0.00  0.00    +0.000 A 
ATOM     13  C   UNL     1      -1.149  16.050  25.822  0.00  0.00    +0.000 A 
ATOM     14 CL   UNL     1      -0.113  16.434  27.138  0.00  0.00    +0.000 Cl
ATOM     15  C   UNL     1      -0.896  16.569  24.556  0.00  0.00    +0.000 A 
ATOM     16  C   UNL     1      -1.718  16.222  23.471  0.00  0.00    +0.000 A 
ATOM     17 CL   UNL     1      -1.267  16.893  21.938  0.00  0.00    +0.000 Cl
ENDBRANCH   2  10
BRANCH   7  18
ATOM     18  C   UNL     1      -6.319  12.208  18.028  0.00  0.00    +0.000 C 
ATOM     19  C   UNL     1      -5.599  10.920  17.748  0.00  0.00    +0.000 C 
ATOM     20  C   UNL     1      -6.899  10.887  18.493  0.00  0.00    +0.000 C 
ENDBRANCH   7  18
BRANCH   1  21
ATOM     21  C   UNL     1      -2.747  12.430  22.150  0.00  0.00    +0.000 C 
BRANCH  21  27
ATOM     22  C   UNL     1       0.670   9.574  19.858  0.00  0.00    +0.000 C 
ATOM     23  O   UNL     1       1.125   8.603  20.472  0.00  0.00    +0.000 OA
ATOM     24  N   UNL     1      -0.245  10.419  20.469  0.00  0.00    +0.000 N 
ATOM     25  C   UNL     1      -0.486  10.295  21.912  0.00  0.00    +0.000 C 
ATOM     26  C   UNL     1      -0.485  11.673  22.620  0.00  0.00    +0.000 C 
ATOM     27  N   UNL     1      -1.317  12.717  21.968  0.00  0.00    +0.000 NA
ATOM     28  C   UNL     1      -0.912  12.793  20.542  0.00  0.00    +0.000 C 
ATOM     29  C   UNL     1      -1.042  11.451  19.804  0.00  0.00    +0.000 C 
BRANCH  22  31
ATOM     30  C   UNL     1       1.920   8.644  17.871  0.00  0.00    +0.000 C 
ATOM     31  C   UNL     1       1.084   9.826  18.371  0.00  0.00    +0.000 C 
ATOM     32  C   UNL     1       1.908  11.117  18.304  0.00  0.00    +0.000 C 
BRANCH  31  33
ATOM     33  O   UNL     1      -0.018  10.028  17.485  0.00  0.00    +0.000 OA
ATOM     34  H   UNL     1      -0.092  10.981  17.307  0.00  0.00    +0.000 HD
ENDBRANCH  31  33
ENDBRANCH  22  31
ENDBRANCH  21  27
ENDBRANCH   1  21
TORSDOF 6
ENDMDL
MODEL 6
REMARK VINA RESULT:      -6.1      3.870      7.311
REMARK  Name = 
REMARK  8 active torsions:
REMARK  status: ('A' for Active; 'I' for Inactive)
REMARK    1  A    between atoms: C_1  and  C_2
REMARK    2  A    between atoms: C_2  and  C_3
REMARK    3  A    between atoms: C_2  and  O_4
REMARK    4  A    between atoms: C_2  and  C_5
REMARK    5  A    between atoms: N_10  and  C_11
REMARK    6  A    between atoms: C_11  and  C_12
REMARK    7  A    between atoms: C_13  and  C_14
REMARK    8  A    between atoms: C_26  and  C_27
REMARK                            x       y       z     vdW  Elec       q    Type
REMARK                         _______ _______ _______ _____ _____    ______ ____
ROOT
ATOM      1  C   UNL     1      -2.454  12.888  20.575  0.00  0.00    +0.000 A 
ATOM      2  C   UNL     1      -3.460  12.229  19.862  0.00  0.00    +0.000 A 
ATOM      3  N   UNL     1      -4.644  12.227  20.578  0.00  0.00    +0.000 NA
ATOM      4  C   UNL     1      -4.358  12.824  21.706  0.00  0.00    +0.000 A 
ATOM      5  C   UNL     1      -5.186  13.033  22.867  0.00  0.00    +0.000 A 
ATOM      6  N   UNL     1      -4.748  13.660  23.930  0.00  0.00    +0.000 NA
ATOM      7  C   UNL     1      -3.443  14.138  23.913  0.00  0.00    +0.000 A 
ATOM      8  C   UNL     1      -2.630  13.988  22.847  0.00  0.00    +0.000 A 
ATOM      9  N   UNL     1      -3.078  13.294  21.740  0.00  0.00    +0.000 N 
ENDROOT
BRANCH   2  10
ATOM     10  C   UNL     1      -3.305  11.580  18.558  0.00  0.00    +0.000 A 
ATOM     11  C   UNL     1      -4.233  11.870  17.538  0.00  0.00    +0.000 A 
ATOM     12  C   UNL     1      -4.077  11.378  16.240  0.00  0.00    +0.000 A 
ATOM     13  C   UNL     1      -3.020  10.529  15.953  0.00  0.00    +0.000 A 
ATOM     14 CL   UNL     1      -2.826   9.925  14.355  0.00  0.00    +0.000 Cl
ATOM     15  C   UNL     1      -2.125  10.164  16.953  0.00  0.00    +0.000 A 
ATOM     16  C   UNL     1      -2.258  10.690  18.249  0.00  0.00    +0.000 A 
ATOM     17 CL   UNL     1      -1.051  10.198  19.391  0.00  0.00    +0.000 Cl
ENDBRANCH   2  10
BRANCH   7  18
ATOM     18  C   UNL     1      -2.966  14.805  25.138  0.00  0.00    +0.000 C 
ATOM     19  C   UNL     1      -1.721  15.645  25.175  0.00  0.00    +0.000 C 
ATOM     20  C   UNL     1      -3.060  16.318  25.157  0.00  0.00    +0.000 C 
ENDBRANCH   7  18
BRANCH   1  21
ATOM     21  C   UNL     1      -1.003  13.132  20.327  0.00  0.00    +0.000 C 
BRANCH  21  27
ATOM     22  C   UNL     1       2.855  16.252  19.644  0.00  0.00    +0.000 C 
ATOM     23  O   UNL     1       2.848  17.330  20.248  0.00  0.00    +0.000 OA
ATOM     24  N   UNL     1       1.787  15.375  19.767  0.00  0.00    +0.000 N 
ATOM     25  C   UNL     1       0.554  15.833  20.420  0.00  0.00    +0.000 C 
ATOM     26  C   UNL     1      -0.709  15.438  19.614  0.00  0.00    +0.000 C 
ATOM     27  N   UNL     1      -0.760  14.018  19.179  0.00  0.00    +0.000 NA
ATOM     28  C   UNL     1       0.506  13.718  18.465  0.00  0.00    +0.000 C 
ATOM     29  C   UNL     1       1.758  13.983  19.316  0.00  0.00    +0.000 C 
BRANCH  22  31
ATOM     30  C   UNL     1       5.182  16.915  18.919  0.00  0.00    +0.000 C 
ATOM     31  C   UNL     1       4.093  15.846  18.778  0.00  0.00    +0.000 C 
ATOM     32  C   UNL     1       3.652  15.738  17.314  0.00  0.00    +0.000 C 
BRANCH  31  33
ATOM     33  O   UNL     1       4.644  14.571  19.109  0.00  0.00    +0.000 OA
ATOM     34  H   UNL     1       4.075  14.162  19.783  0.00  0.00    +0.000 HD
ENDBRANCH  31  33
ENDBRANCH  22  31
ENDBRANCH  21  27
ENDBRANCH   1  21
TORSDOF 6
ENDMDL
MODEL 7
REMARK VINA RESULT:      -6.1      3.720      6.920
REMARK  Name = 
REMARK  8 active torsions:
REMARK  status: ('A' for Active; 'I' for Inactive)
REMARK    1  A    between atoms: C_1  and  C_2
REMARK    2  A    between atoms: C_2  and  C_3
REMARK    3  A    between atoms: C_2  and  O_4
REMARK    4  A    between atoms: C_2  and  C_5
REMARK    5  A    between atoms: N_10  and  C_11
REMARK    6  A    between atoms: C_11  and  C_12
REMARK    7  A    between atoms: C_13  and  C_14
REMARK    8  A    between atoms: C_26  and  C_27
REMARK                            x       y       z     vdW  Elec       q    Type
REMARK                         _______ _______ _______ _____ _____    ______ ____
ROOT
ATOM      1  C   UNL     1       0.058  12.987  20.337  0.00  0.00    +0.000 A 
ATOM      2  C   UNL     1      -1.062  13.821  20.385  0.00  0.00    +0.000 A 
ATOM      3  N   UNL     1      -0.808  15.017  19.737  0.00  0.00    +0.000 NA
ATOM      4  C   UNL     1       0.438  14.931  19.348  0.00  0.00    +0.000 A 
ATOM      5  C   UNL     1       1.263  15.918  18.696  0.00  0.00    +0.000 A 
ATOM      6  N   UNL     1       2.506  15.674  18.364  0.00  0.00    +0.000 NA
ATOM      7  C   UNL     1       3.024  14.417  18.651  0.00  0.00    +0.000 A 
ATOM      8  C   UNL     1       2.291  13.450  19.242  0.00  0.00    +0.000 A 
ATOM      9  N   UNL     1       0.993  13.717  19.626  0.00  0.00    +0.000 N 
ENDROOT
BRANCH   2  10
ATOM     10  C   UNL     1      -2.329  13.522  21.057  0.00  0.00    +0.000 A 
ATOM     11  C   UNL     1      -3.457  13.203  20.275  0.00  0.00    +0.000 A 
ATOM     12  C   UNL     1      -4.661  12.795  20.854  0.00  0.00    +0.000 A 
ATOM     13  C   UNL     1      -4.781  12.761  22.233  0.00  0.00    +0.000 A 
ATOM     14 CL   UNL     1      -6.261  12.257  22.945  0.00  0.00    +0.000 Cl
ATOM     15  C   UNL     1      -3.709  13.138  23.037  0.00  0.00    +0.000 A 
ATOM     16  C   UNL     1      -2.485  13.510  22.457  0.00  0.00    +0.000 A 
ATOM     17 CL   UNL     1      -1.215  13.910  23.565  0.00  0.00    +0.000 Cl
ENDBRANCH   2  10
BRANCH   7  18
ATOM     18  C   UNL     1       4.437  14.186  18.301  0.00  0.00    +0.000 C 
ATOM     19  C   UNL     1       5.319  15.258  17.730  0.00  0.00    +0.000 C 
ATOM     20  C   UNL     1       5.465  14.880  19.173  0.00  0.00    +0.000 C 
ENDBRANCH   7  18
BRANCH   1  21
ATOM     21  C   UNL     1       0.370  11.642  20.907  0.00  0.00    +0.000 C 
BRANCH  21  27
ATOM     22  C   UNL     1       2.375   7.641  18.660  0.00  0.00    +0.000 C 
ATOM     23  O   UNL     1       2.869   7.789  17.536  0.00  0.00    +0.000 OA
ATOM     24  N   UNL     1       1.769   8.711  19.302  0.00  0.00    +0.000 N 
ATOM     25  C   UNL     1       1.506   9.945  18.550  0.00  0.00    +0.000 C 
ATOM     26  C   UNL     1       0.071  10.476  18.794  0.00  0.00    +0.000 C 
ATOM     27  N   UNL     1      -0.339  10.553  20.220  0.00  0.00    +0.000 NA
ATOM     28  C   UNL     1      -0.097   9.222  20.832  0.00  0.00    +0.000 C 
ATOM     29  C   UNL     1       1.361   8.753  20.707  0.00  0.00    +0.000 C 
BRANCH  22  31
ATOM     30  C   UNL     1       3.950   5.842  19.473  0.00  0.00    +0.000 C 
ATOM     31  C   UNL     1       2.478   6.260  19.386  0.00  0.00    +0.000 C 
ATOM     32  C   UNL     1       1.686   5.223  18.581  0.00  0.00    +0.000 C 
BRANCH  31  33
ATOM     33  O   UNL     1       1.910   6.245  20.696  0.00  0.00    +0.000 OA
ATOM     34  H   UNL     1       2.412   5.612  21.236  0.00  0.00    +0.000 HD
ENDBRANCH  31  33
ENDBRANCH  22  31
ENDBRANCH  21  27
ENDBRANCH   1  21
TORSDOF 6
ENDMDL
MODEL 8
REMARK VINA RESULT:      -6.0      3.219      5.964
REMARK  Name = 
REMARK  8 active torsions:
REMARK  status: ('A' for Active; 'I' for Inactive)
REMARK    1  A    between atoms: C_1  and  C_2
REMARK    2  A    between atoms: C_2  and  C_3
REMARK    3  A    between atoms: C_2  and  O_4
REMARK    4  A    between atoms: C_2  and  C_5
REMARK    5  A    between atoms: N_10  and  C_11
REMARK    6  A    between atoms: C_11  and  C_12
REMARK    7  A    between atoms: C_13  and  C_14
REMARK    8  A    between atoms: C_26  and  C_27
REMARK                            x       y       z     vdW  Elec       q    Type
REMARK                         _______ _______ _______ _____ _____    ______ ____
ROOT
ATOM      1  C   UNL     1       0.575  13.979  19.128  0.00  0.00    +0.000 A 
ATOM      2  C   UNL     1       1.962  13.936  19.298  0.00  0.00    +0.000 A 
ATOM      3  N   UNL     1       2.448  12.667  19.035  0.00  0.00    +0.000 NA
ATOM      4  C   UNL     1       1.388  11.951  18.759  0.00  0.00    +0.000 A 
ATOM      5  C   UNL     1       1.283  10.539  18.489  0.00  0.00    +0.000 A 
ATOM      6  N   UNL     1       0.135   9.967  18.223  0.00  0.00    +0.000 NA
ATOM      7  C   UNL     1      -1.002  10.765  18.198  0.00  0.00    +0.000 A 
ATOM      8  C   UNL     1      -0.959  12.094  18.424  0.00  0.00    +0.000 A 
ATOM      9  N   UNL     1       0.244  12.693  18.741  0.00  0.00    +0.000 N 
ENDROOT
BRANCH   2  10
ATOM     10  C   UNL     1       2.809  15.048  19.737  0.00  0.00    +0.000 A 
ATOM     11  C   UNL     1       2.944  15.299  21.117  0.00  0.00    +0.000 A 
ATOM     12  C   UNL     1       3.826  16.266  21.606  0.00  0.00    +0.000 A 
ATOM     13  C   UNL     1       4.544  17.049  20.717  0.00  0.00    +0.000 A 
ATOM     14 CL   UNL     1       5.631  18.237  21.318  0.00  0.00    +0.000 Cl
ATOM     15  C   UNL     1       4.383  16.876  19.346  0.00  0.00    +0.000 A 
ATOM     16  C   UNL     1       3.527  15.877  18.853  0.00  0.00    +0.000 A 
ATOM     17 CL   UNL     1       3.451  15.731  17.129  0.00  0.00    +0.000 Cl
ENDBRANCH   2  10
BRANCH   7  18
ATOM     18  C   UNL     1      -2.284  10.085  17.935  0.00  0.00    +0.000 C 
ATOM     19  C   UNL     1      -3.470  10.788  17.339  0.00  0.00    +0.000 C 
ATOM     20  C   UNL     1      -2.646   9.881  16.477  0.00  0.00    +0.000 C 
ENDBRANCH   7  18
BRANCH   1  21
ATOM     21  C   UNL     1      -0.458  15.037  19.330  0.00  0.00    +0.000 C 
BRANCH  21  27
ATOM     22  C   UNL     1      -4.515  14.777  22.253  0.00  0.00    +0.000 C 
ATOM     23  O   UNL     1      -5.397  15.631  22.106  0.00  0.00    +0.000 OA
ATOM     24  N   UNL     1      -3.354  14.834  21.497  0.00  0.00    +0.000 N 
ATOM     25  C   UNL     1      -3.074  16.037  20.702  0.00  0.00    +0.000 C 
ATOM     26  C   UNL     1      -1.611  16.517  20.876  0.00  0.00    +0.000 C 
ATOM     27  N   UNL     1      -0.578  15.459  20.733  0.00  0.00    +0.000 NA
ATOM     28  C   UNL     1      -0.940  14.347  21.648  0.00  0.00    +0.000 C 
ATOM     29  C   UNL     1      -2.345  13.780  21.386  0.00  0.00    +0.000 C 
BRANCH  22  31
ATOM     30  C   UNL     1      -6.170  13.623  23.773  0.00  0.00    +0.000 C 
ATOM     31  C   UNL     1      -4.728  13.595  23.256  0.00  0.00    +0.000 C 
ATOM     32  C   UNL     1      -3.749  13.761  24.424  0.00  0.00    +0.000 C 
BRANCH  31  33
ATOM     33  O   UNL     1      -4.454  12.306  22.705  0.00  0.00    +0.000 OA
ATOM     34  H   UNL     1      -3.587  12.014  23.036  0.00  0.00    +0.000 HD
ENDBRANCH  31  33
ENDBRANCH  22  31
ENDBRANCH  21  27
ENDBRANCH   1  21
TORSDOF 6
ENDMDL
MODEL 9
REMARK VINA RESULT:      -6.0      3.758      6.819
REMARK  Name = 
REMARK  8 active torsions:
REMARK  status: ('A' for Active; 'I' for Inactive)
REMARK    1  A    between atoms: C_1  and  C_2
REMARK    2  A    between atoms: C_2  and  C_3
REMARK    3  A    between atoms: C_2  and  O_4
REMARK    4  A    between atoms: C_2  and  C_5
REMARK    5  A    between atoms: N_10  and  C_11
REMARK    6  A    between atoms: C_11  and  C_12
REMARK    7  A    between atoms: C_13  and  C_14
REMARK    8  A    between atoms: C_26  and  C_27
REMARK                            x       y       z     vdW  Elec       q    Type
REMARK                         _______ _______ _______ _____ _____    ______ ____
ROOT
ATOM      1  C   UNL     1      -0.026  12.428  20.154  0.00  0.00    +0.000 A 
ATOM      2  C   UNL     1      -1.049  13.079  19.458  0.00  0.00    +0.000 A 
ATOM      3  N   UNL     1      -0.626  14.320  19.016  0.00  0.00    +0.000 NA
ATOM      4  C   UNL     1       0.598  14.439  19.465  0.00  0.00    +0.000 A 
ATOM      5  C   UNL     1       1.499  15.560  19.378  0.00  0.00    +0.000 A 
ATOM      6  N   UNL     1       2.707  15.520  19.882  0.00  0.00    +0.000 NA
ATOM      7  C   UNL     1       3.115  14.349  20.508  0.00  0.00    +0.000 A 
ATOM      8  C   UNL     1       2.320  13.263  20.601  0.00  0.00    +0.000 A 
ATOM      9  N   UNL     1       1.033  13.315  20.104  0.00  0.00    +0.000 N 
ENDROOT
BRANCH   2  10
ATOM     10  C   UNL     1      -2.406  12.568  19.248  0.00  0.00    +0.000 A 
ATOM     11  C   UNL     1      -2.683  11.832  18.078  0.00  0.00    +0.000 A 
ATOM     12  C   UNL     1      -3.921  11.218  17.872  0.00  0.00    +0.000 A 
ATOM     13  C   UNL     1      -4.931  11.385  18.805  0.00  0.00    +0.000 A 
ATOM     14 CL   UNL     1      -6.453  10.628  18.552  0.00  0.00    +0.000 Cl
ATOM     15  C   UNL     1      -4.715  12.164  19.937  0.00  0.00    +0.000 A 
ATOM     16  C   UNL     1      -3.458  12.749  20.166  0.00  0.00    +0.000 A 
ATOM     17 CL   UNL     1      -3.302  13.653  21.635  0.00  0.00    +0.000 Cl
ENDBRANCH   2  10
BRANCH   7  18
ATOM     18  C   UNL     1       4.466  14.348  21.099  0.00  0.00    +0.000 C 
ATOM     19  C   UNL     1       5.199  15.610  21.453  0.00  0.00    +0.000 C 
ATOM     20  C   UNL     1       4.565  14.801  22.543  0.00  0.00    +0.000 C 
ENDBRANCH   7  18
BRANCH   1  21
ATOM     21  C   UNL     1       0.062  11.130  20.885  0.00  0.00    +0.000 C 
BRANCH  21  27
ATOM     22  C   UNL     1       2.599   7.297  18.897  0.00  0.00    +0.000 C 
ATOM     23  O   UNL     1       3.217   7.489  17.844  0.00  0.00    +0.000 OA
ATOM     24  N   UNL     1       1.846   8.316  19.462  0.00  0.00    +0.000 N 
ATOM     25  C   UNL     1       1.594   9.537  18.685  0.00  0.00    +0.000 C 
ATOM     26  C   UNL     1       0.107   9.968  18.750  0.00  0.00    +0.000 C 
ATOM     27  N   UNL     1      -0.480  10.001  20.115  0.00  0.00    +0.000 NA
ATOM     28  C   UNL     1      -0.225   8.684  20.749  0.00  0.00    +0.000 C 
ATOM     29  C   UNL     1       1.266   8.317  20.805  0.00  0.00    +0.000 C 
BRANCH  22  31
ATOM     30  C   UNL     1       4.151   5.414  19.549  0.00  0.00    +0.000 C 
ATOM     31  C   UNL     1       2.707   5.918  19.629  0.00  0.00    +0.000 C 
ATOM     32  C   UNL     1       1.765   4.924  18.939  0.00  0.00    +0.000 C 
BRANCH  31  33
ATOM     33  O   UNL     1       2.297   5.950  20.997  0.00  0.00    +0.000 OA
ATOM     34  H   UNL     1       2.629   5.145  21.429  0.00  0.00    +0.000 HD
ENDBRANCH  31  33
ENDBRANCH  22  31
ENDBRANCH  21  27
ENDBRANCH   1  21
TORSDOF 6
ENDMDL
