MODEL 1
REMARK VINA RESULT:      -7.9      0.000      0.000
REMARK  Name = 
REMARK  6 active torsions:
REMARK  status: ('A' for Active; 'I' for Inactive)
REMARK    1  A    between atoms: C_1  and  O_2
REMARK    2  A    between atoms: O_2  and  C_3
REMARK    3  A    between atoms: C_6  and  C_7
REMARK    4  A    between atoms: C_7  and  C_9
REMARK    5  A    between atoms: N_14  and  C_15
REMARK    6  A    between atoms: C_23  and  O_24
REMARK                            x       y       z     vdW  Elec       q    Type
REMARK                         _______ _______ _______ _____ _____    ______ ____
ROOT
ATOM      1  C   UNL     1       4.972   4.612  18.877  0.00  0.00    +0.000 A 
ATOM      2  C   UNL     1       4.365   3.444  19.455  0.00  0.00    +0.000 A 
ATOM      3  C   UNL     1       3.088   3.476  19.846  0.00  0.00    +0.000 A 
ATOM      4  C   UNL     1       2.285   4.728  19.760  0.00  0.00    +0.000 A 
ATOM      5  O   UNL     1       1.089   4.617  20.012  0.00  0.00    +0.000 OA
ATOM      6  N   UNL     1       2.983   5.897  19.359  0.00  0.00    +0.000 N 
ATOM      7  C   UNL     1       4.307   5.780  18.912  0.00  0.00    +0.000 A 
ENDROOT
BRANCH   6   8
ATOM      8  C   UNL     1       2.283   7.174  19.315  0.00  0.00    +0.000 A 
ATOM      9  C   UNL     1       2.151   7.908  18.122  0.00  0.00    +0.000 A 
ATOM     10  C   UNL     1       1.524   9.161  18.087  0.00  0.00    +0.000 A 
ATOM     11  C   UNL     1       0.990   9.700  19.248  0.00  0.00    +0.000 A 
ATOM     12 CL   UNL     1       0.242  11.247  19.216  0.00  0.00    +0.000 Cl
ATOM     13  C   UNL     1       1.066   8.989  20.438  0.00  0.00    +0.000 A 
ATOM     14  C   UNL     1       1.704   7.739  20.469  0.00  0.00    +0.000 A 
ENDBRANCH   6   8
BRANCH   1  15
ATOM     15  C   UNL     1       6.313   4.625  18.202  0.00  0.00    +0.000 C 
ATOM     16  O   UNL     1       7.344   4.699  18.865  0.00  0.00    +0.000 OA
BRANCH  15  20
ATOM     17  C   UNL     1       6.399   4.325  13.900  0.00  0.00    +0.000 A 
ATOM     18  C   UNL     1       5.801   3.348  14.696  0.00  0.00    +0.000 A 
ATOM     19  C   UNL     1       5.802   3.469  16.090  0.00  0.00    +0.000 A 
ATOM     20  C   UNL     1       6.419   4.564  16.714  0.00  0.00    +0.000 A 
ATOM     21  C   UNL     1       7.092   5.491  15.907  0.00  0.00    +0.000 A 
ATOM     22  C   UNL     1       7.040   5.398  14.514  0.00  0.00    +0.000 A 
BRANCH  17  24
ATOM     23  C   UNL     1       5.592   2.957  12.137  0.00  0.00    +0.000 C 
ATOM     24  O   UNL     1       6.312   4.113  12.552  0.00  0.00    +0.000 OA
ENDBRANCH  17  24
BRANCH  21  25
ATOM     25  O   UNL     1       7.864   6.522  16.366  0.00  0.00    +0.000 OA
ATOM     26  H   UNL     1       8.335   6.941  15.625  0.00  0.00    +0.000 HD
ENDBRANCH  21  25
ENDBRANCH  15  20
ENDBRANCH   1  15
TORSDOF 5
ENDMDL
MODEL 2
REMARK VINA RESULT:      -7.6      1.167      1.612
REMARK  Name = 
REMARK  6 active torsions:
REMARK  status: ('A' for Active; 'I' for Inactive)
REMARK    1  A    between atoms: C_1  and  O_2
REMARK    2  A    between atoms: O_2  and  C_3
REMARK    3  A    between atoms: C_6  and  C_7
REMARK    4  A    between atoms: C_7  and  C_9
REMARK    5  A    between atoms: N_14  and  C_15
REMARK    6  A    between atoms: C_23  and  O_24
REMARK                            x       y       z     vdW  Elec       q    Type
REMARK                         _______ _______ _______ _____ _____    ______ ____
ROOT
ATOM      1  C   UNL     1       5.659   5.550  17.488  0.00  0.00    +0.000 A 
ATOM      2  C   UNL     1       5.662   4.397  18.347  0.00  0.00    +0.000 A 
ATOM      3  C   UNL     1       4.662   4.204  19.212  0.00  0.00    +0.000 A 
ATOM      4  C   UNL     1       3.564   5.200  19.358  0.00  0.00    +0.000 A 
ATOM      5  O   UNL     1       2.626   4.863  20.075  0.00  0.00    +0.000 OA
ATOM      6  N   UNL     1       3.706   6.407  18.625  0.00  0.00    +0.000 N 
ATOM      7  C   UNL     1       4.752   6.520  17.697  0.00  0.00    +0.000 A 
ENDROOT
BRANCH   6   8
ATOM      8  C   UNL     1       2.708   7.458  18.767  0.00  0.00    +0.000 A 
ATOM      9  C   UNL     1       2.334   8.278  17.688  0.00  0.00    +0.000 A 
ATOM     10  C   UNL     1       1.413   9.324  17.835  0.00  0.00    +0.000 A 
ATOM     11  C   UNL     1       0.823   9.559  19.068  0.00  0.00    +0.000 A 
ATOM     12 CL   UNL     1      -0.288  10.856  19.260  0.00  0.00    +0.000 Cl
ATOM     13  C   UNL     1       1.137   8.746  20.149  0.00  0.00    +0.000 A 
ATOM     14  C   UNL     1       2.068   7.707  19.998  0.00  0.00    +0.000 A 
ENDBRANCH   6   8
BRANCH   1  15
ATOM     15  C   UNL     1       6.600   5.750  16.335  0.00  0.00    +0.000 C 
ATOM     16  O   UNL     1       7.528   6.551  16.420  0.00  0.00    +0.000 OA
BRANCH  15  20
ATOM     17  C   UNL     1       5.825   3.558  12.703  0.00  0.00    +0.000 A 
ATOM     18  C   UNL     1       5.041   3.395  13.844  0.00  0.00    +0.000 A 
ATOM     19  C   UNL     1       5.327   4.112  15.011  0.00  0.00    +0.000 A 
ATOM     20  C   UNL     1       6.418   4.994  15.061  0.00  0.00    +0.000 A 
ATOM     21  C   UNL     1       7.248   5.081  13.936  0.00  0.00    +0.000 A 
ATOM     22  C   UNL     1       6.927   4.409  12.754  0.00  0.00    +0.000 A 
BRANCH  17  24
ATOM     23  C   UNL     1       4.123   3.081  11.120  0.00  0.00    +0.000 C 
ATOM     24  O   UNL     1       5.434   2.826  11.615  0.00  0.00    +0.000 OA
ENDBRANCH  17  24
BRANCH  21  25
ATOM     25  O   UNL     1       8.427   5.773  13.878  0.00  0.00    +0.000 OA
ATOM     26  H   UNL     1       9.153   5.174  13.632  0.00  0.00    +0.000 HD
ENDBRANCH  21  25
ENDBRANCH  15  20
ENDBRANCH   1  15
TORSDOF 5
ENDMDL
MODEL 3
REMARK VINA RESULT:      -7.5      1.030      1.733
REMARK  Name = 
REMARK  6 active torsions:
REMARK  status: ('A' for Active; 'I' for Inactive)
REMARK    1  A    between atoms: C_1  and  O_2
REMARK    2  A    between atoms: O_2  and  C_3
REMARK    3  A    between atoms: C_6  and  C_7
REMARK    4  A    between atoms: C_7  and  C_9
REMARK    5  A    between atoms: N_14  and  C_15
REMARK    6  A    between atoms: C_23  and  O_24
REMARK                            x       y       z     vdW  Elec       q    Type
REMARK                         _______ _______ _______ _____ _____    ______ ____
ROOT
ATOM      1  C   UNL     1       4.648   4.771  19.266  0.00  0.00    +0.000 A 
ATOM      2  C   UNL     1       4.011   3.680  19.952  0.00  0.00    +0.000 A 
ATOM      3  C   UNL     1       2.749   3.799  20.373  0.00  0.00    +0.000 A 
ATOM      4  C   UNL     1       1.996   5.074  20.206  0.00  0.00    +0.000 A 
ATOM      5  O   UNL     1       0.804   5.036  20.498  0.00  0.00    +0.000 OA
ATOM      6  N   UNL     1       2.729   6.176  19.694  0.00  0.00    +0.000 N 
ATOM      7  C   UNL     1       4.033   5.966  19.223  0.00  0.00    +0.000 A 
ENDROOT
BRANCH   6   8
ATOM      8  C   UNL     1       2.080   7.475  19.565  0.00  0.00    +0.000 A 
ATOM      9  C   UNL     1       1.493   8.124  20.666  0.00  0.00    +0.000 A 
ATOM     10  C   UNL     1       0.823   9.347  20.534  0.00  0.00    +0.000 A 
ATOM     11  C   UNL     1       0.745   9.965  19.295  0.00  0.00    +0.000 A 
ATOM     12 CL   UNL     1      -0.097  11.453  19.123  0.00  0.00    +0.000 Cl
ATOM     13  C   UNL     1       1.346   9.374  18.191  0.00  0.00    +0.000 A 
ATOM     14  C   UNL     1       2.006   8.144  18.326  0.00  0.00    +0.000 A 
ENDBRANCH   6   8
BRANCH   1  15
ATOM     15  C   UNL     1       5.968   4.672  18.557  0.00  0.00    +0.000 C 
ATOM     16  O   UNL     1       7.020   4.704  19.191  0.00  0.00    +0.000 OA
BRANCH  15  20
ATOM     17  C   UNL     1       6.395   4.300  14.281  0.00  0.00    +0.000 A 
ATOM     18  C   UNL     1       7.371   4.907  15.070  0.00  0.00    +0.000 A 
ATOM     19  C   UNL     1       7.197   5.024  16.453  0.00  0.00    +0.000 A 
ATOM     20  C   UNL     1       6.029   4.549  17.071  0.00  0.00    +0.000 A 
ATOM     21  C   UNL     1       5.019   4.022  16.256  0.00  0.00    +0.000 A 
ATOM     22  C   UNL     1       5.220   3.854  14.883  0.00  0.00    +0.000 A 
BRANCH  17  24
ATOM     23  C   UNL     1       5.980   3.232  12.204  0.00  0.00    +0.000 C 
ATOM     24  O   UNL     1       6.688   4.218  12.948  0.00  0.00    +0.000 OA
ENDBRANCH  17  24
BRANCH  21  25
ATOM     25  O   UNL     1       3.771   3.659  16.681  0.00  0.00    +0.000 OA
ATOM     26  H   UNL     1       3.452   2.896  16.168  0.00  0.00    +0.000 HD
ENDBRANCH  21  25
ENDBRANCH  15  20
ENDBRANCH   1  15
TORSDOF 5
ENDMDL
MODEL 4
REMARK VINA RESULT:      -7.5      4.213      8.381
REMARK  Name = 
REMARK  6 active torsions:
REMARK  status: ('A' for Active; 'I' for Inactive)
REMARK    1  A    between atoms: C_1  and  O_2
REMARK    2  A    between atoms: O_2  and  C_3
REMARK    3  A    between atoms: C_6  and  C_7
REMARK    4  A    between atoms: C_7  and  C_9
REMARK    5  A    between atoms: N_14  and  C_15
REMARK    6  A    between atoms: C_23  and  O_24
REMARK                            x       y       z     vdW  Elec       q    Type
REMARK                         _______ _______ _______ _____ _____    ______ ____
ROOT
ATOM      1  C   UNL     1       1.573   8.889  19.012  0.00  0.00    +0.000 A 
ATOM      2  C   UNL     1       1.166   8.345  20.279  0.00  0.00    +0.000 A 
ATOM      3  C   UNL     1       1.670   7.183  20.702  0.00  0.00    +0.000 A 
ATOM      4  C   UNL     1       2.605   6.392  19.854  0.00  0.00    +0.000 A 
ATOM      5  O   UNL     1       3.119   5.414  20.389  0.00  0.00    +0.000 OA
ATOM      6  N   UNL     1       2.828   6.879  18.539  0.00  0.00    +0.000 N 
ATOM      7  C   UNL     1       2.309   8.131  18.180  0.00  0.00    +0.000 A 
ENDROOT
BRANCH   6   8
ATOM      8  C   UNL     1       3.676   6.124  17.626  0.00  0.00    +0.000 A 
ATOM      9  C   UNL     1       4.673   6.747  16.853  0.00  0.00    +0.000 A 
ATOM     10  C   UNL     1       5.455   6.032  15.936  0.00  0.00    +0.000 A 
ATOM     11  C   UNL     1       5.272   4.666  15.787  0.00  0.00    +0.000 A 
ATOM     12 CL   UNL     1       6.211   3.788  14.646  0.00  0.00    +0.000 Cl
ATOM     13  C   UNL     1       4.325   4.008  16.560  0.00  0.00    +0.000 A 
ATOM     14  C   UNL     1       3.537   4.730  17.470  0.00  0.00    +0.000 A 
ENDBRANCH   6   8
BRANCH   1  15
ATOM     15  C   UNL     1       1.250  10.279  18.542  0.00  0.00    +0.000 C 
ATOM     16  O   UNL     1       2.145  11.036  18.176  0.00  0.00    +0.000 OA
BRANCH  15  20
ATOM     17  C   UNL     1      -2.897  11.460  18.460  0.00  0.00    +0.000 A 
ATOM     18  C   UNL     1      -2.426  10.374  17.724  0.00  0.00    +0.000 A 
ATOM     19  C   UNL     1      -1.071  10.024  17.762  0.00  0.00    +0.000 A 
ATOM     20  C   UNL     1      -0.159  10.770  18.526  0.00  0.00    +0.000 A 
ATOM     21  C   UNL     1      -0.632  11.910  19.189  0.00  0.00    +0.000 A 
ATOM     22  C   UNL     1      -1.994  12.223  19.196  0.00  0.00    +0.000 A 
BRANCH  17  24
ATOM     23  C   UNL     1      -4.812  11.589  17.065  0.00  0.00    +0.000 C 
ATOM     24  O   UNL     1      -4.243  11.689  18.366  0.00  0.00    +0.000 OA
ENDBRANCH  17  24
BRANCH  21  25
ATOM     25  O   UNL     1       0.149  12.821  19.846  0.00  0.00    +0.000 OA
ATOM     26  H   UNL     1      -0.236  13.025  20.715  0.00  0.00    +0.000 HD
ENDBRANCH  21  25
ENDBRANCH  15  20
ENDBRANCH   1  15
TORSDOF 5
ENDMDL
MODEL 5
REMARK VINA RESULT:      -7.5      2.489      3.988
REMARK  Name = 
REMARK  6 active torsions:
REMARK  status: ('A' for Active; 'I' for Inactive)
REMARK    1  A    between atoms: C_1  and  O_2
REMARK    2  A    between atoms: O_2  and  C_3
REMARK    3  A    between atoms: C_6  and  C_7
REMARK    4  A    between atoms: C_7  and  C_9
REMARK    5  A    between atoms: N_14  and  C_15
REMARK    6  A    between atoms: C_23  and  O_24
REMARK                            x       y       z     vdW  Elec       q    Type
REMARK                         _______ _______ _______ _____ _____    ______ ____
ROOT
ATOM      1  C   UNL     1       5.270   4.791  17.384  0.00  0.00    +0.000 A 
ATOM      2  C   UNL     1       4.592   3.567  17.054  0.00  0.00    +0.000 A 
ATOM      3  C   UNL     1       3.261   3.492  17.148  0.00  0.00    +0.000 A 
ATOM      4  C   UNL     1       2.457   4.638  17.657  0.00  0.00    +0.000 A 
ATOM      5  O   UNL     1       1.238   4.518  17.573  0.00  0.00    +0.000 OA
ATOM      6  N   UNL     1       3.188   5.753  18.145  0.00  0.00    +0.000 N 
ATOM      7  C   UNL     1       4.578   5.787  17.966  0.00  0.00    +0.000 A 
ENDROOT
BRANCH   6   8
ATOM      8  C   UNL     1       2.474   6.885  18.721  0.00  0.00    +0.000 A 
ATOM      9  C   UNL     1       2.109   8.003  17.950  0.00  0.00    +0.000 A 
ATOM     10  C   UNL     1       1.470   9.116  18.512  0.00  0.00    +0.000 A 
ATOM     11  C   UNL     1       1.157   9.125  19.863  0.00  0.00    +0.000 A 
ATOM     12 CL   UNL     1       0.395  10.497  20.563  0.00  0.00    +0.000 Cl
ATOM     13  C   UNL     1       1.466   8.024  20.650  0.00  0.00    +0.000 A 
ATOM     14  C   UNL     1       2.116   6.917  20.084  0.00  0.00    +0.000 A 
ENDBRANCH   6   8
BRANCH   1  15
ATOM     15  C   UNL     1       6.721   5.060  17.103  0.00  0.00    +0.000 C 
ATOM     16  O   UNL     1       7.371   4.292  16.399  0.00  0.00    +0.000 OA
BRANCH  15  20
ATOM     17  C   UNL     1       8.525   8.655  18.658  0.00  0.00    +0.000 A 
ATOM     18  C   UNL     1       7.932   8.614  17.397  0.00  0.00    +0.000 A 
ATOM     19  C   UNL     1       7.366   7.428  16.916  0.00  0.00    +0.000 A 
ATOM     20  C   UNL     1       7.402   6.254  17.685  0.00  0.00    +0.000 A 
ATOM     21  C   UNL     1       8.079   6.288  18.911  0.00  0.00    +0.000 A 
ATOM     22  C   UNL     1       8.592   7.487  19.413  0.00  0.00    +0.000 A 
BRANCH  17  24
ATOM     23  C   UNL     1       9.033  10.886  18.029  0.00  0.00    +0.000 C 
ATOM     24  O   UNL     1       9.020   9.875  19.031  0.00  0.00    +0.000 OA
ENDBRANCH  17  24
BRANCH  21  25
ATOM     25  O   UNL     1       8.333   5.201  19.702  0.00  0.00    +0.000 OA
ATOM     26  H   UNL     1       8.121   4.382  19.221  0.00  0.00    +0.000 HD
ENDBRANCH  21  25
ENDBRANCH  15  20
ENDBRANCH   1  15
TORSDOF 5
ENDMDL
MODEL 6
REMARK VINA RESULT:      -7.4      3.223      4.393
REMARK  Name = 
REMARK  6 active torsions:
REMARK  status: ('A' for Active; 'I' for Inactive)
REMARK    1  A    between atoms: C_1  and  O_2
REMARK    2  A    between atoms: O_2  and  C_3
REMARK    3  A    between atoms: C_6  and  C_7
REMARK    4  A    between atoms: C_7  and  C_9
REMARK    5  A    between atoms: N_14  and  C_15
REMARK    6  A    between atoms: C_23  and  O_24
REMARK                            x       y       z     vdW  Elec       q    Type
REMARK                         _______ _______ _______ _____ _____    ______ ____
ROOT
ATOM      1  C   UNL     1       6.013   6.057  16.465  0.00  0.00    +0.000 A 
ATOM      2  C   UNL     1       7.273   6.490  17.004  0.00  0.00    +0.000 A 
ATOM      3  C   UNL     1       7.609   6.178  18.259  0.00  0.00    +0.000 A 
ATOM      4  C   UNL     1       6.669   5.438  19.148  0.00  0.00    +0.000 A 
ATOM      5  O   UNL     1       7.124   5.078  20.230  0.00  0.00    +0.000 OA
ATOM      6  N   UNL     1       5.369   5.198  18.630  0.00  0.00    +0.000 N 
ATOM      7  C   UNL     1       5.104   5.505  17.288  0.00  0.00    +0.000 A 
ENDROOT
BRANCH   6   8
ATOM      8  C   UNL     1       4.373   4.539  19.465  0.00  0.00    +0.000 A 
ATOM      9  C   UNL     1       4.407   3.155  19.710  0.00  0.00    +0.000 A 
ATOM     10  C   UNL     1       3.420   2.511  20.469  0.00  0.00    +0.000 A 
ATOM     11  C   UNL     1       2.383   3.246  21.022  0.00  0.00    +0.000 A 
ATOM     12 CL   UNL     1       1.156   2.458  21.931  0.00  0.00    +0.000 Cl
ATOM     13  C   UNL     1       2.335   4.621  20.834  0.00  0.00    +0.000 A 
ATOM     14  C   UNL     1       3.320   5.259  20.065  0.00  0.00    +0.000 A 
ENDBRANCH   6   8
BRANCH   1  15
ATOM     15  C   UNL     1       5.632   6.154  15.016  0.00  0.00    +0.000 C 
ATOM     16  O   UNL     1       4.927   7.077  14.617  0.00  0.00    +0.000 OA
BRANCH  15  20
ATOM     17  C   UNL     1       6.713   3.157  12.109  0.00  0.00    +0.000 A 
ATOM     18  C   UNL     1       5.466   3.163  12.732  0.00  0.00    +0.000 A 
ATOM     19  C   UNL     1       5.151   4.143  13.681  0.00  0.00    +0.000 A 
ATOM     20  C   UNL     1       6.089   5.124  14.036  0.00  0.00    +0.000 A 
ATOM     21  C   UNL     1       7.368   5.052  13.468  0.00  0.00    +0.000 A 
ATOM     22  C   UNL     1       7.660   4.110  12.479  0.00  0.00    +0.000 A 
BRANCH  17  24
ATOM     23  C   UNL     1       5.984   1.079  11.227  0.00  0.00    +0.000 C 
ATOM     24  O   UNL     1       6.897   2.170  11.180  0.00  0.00    +0.000 OA
ENDBRANCH  17  24
BRANCH  21  25
ATOM     25  O   UNL     1       8.432   5.835  13.820  0.00  0.00    +0.000 OA
ATOM     26  H   UNL     1       8.886   5.453  14.591  0.00  0.00    +0.000 HD
ENDBRANCH  21  25
ENDBRANCH  15  20
ENDBRANCH   1  15
TORSDOF 5
ENDMDL
MODEL 7
REMARK VINA RESULT:      -7.3      1.425      2.063
REMARK  Name = 
REMARK  6 active torsions:
REMARK  status: ('A' for Active; 'I' for Inactive)
REMARK    1  A    between atoms: C_1  and  O_2
REMARK    2  A    between atoms: O_2  and  C_3
REMARK    3  A    between atoms: C_6  and  C_7
REMARK    4  A    between atoms: C_7  and  C_9
REMARK    5  A    between atoms: N_14  and  C_15
REMARK    6  A    between atoms: C_23  and  O_24
REMARK                            x       y       z     vdW  Elec       q    Type
REMARK                         _______ _______ _______ _____ _____    ______ ____
ROOT
ATOM      1  C   UNL     1       5.050   5.262  16.820  0.00  0.00    +0.000 A 
ATOM      2  C   UNL     1       4.674   3.923  17.185  0.00  0.00    +0.000 A 
ATOM      3  C   UNL     1       3.552   3.708  17.879  0.00  0.00    +0.000 A 
ATOM      4  C   UNL     1       2.705   4.841  18.348  0.00  0.00    +0.000 A 
ATOM      5  O   UNL     1       1.629   4.534  18.853  0.00  0.00    +0.000 OA
ATOM      6  N   UNL     1       3.218   6.146  18.125  0.00  0.00    +0.000 N 
ATOM      7  C   UNL     1       4.373   6.299  17.344  0.00  0.00    +0.000 A 
ENDROOT
BRANCH   6   8
ATOM      8  C   UNL     1       2.480   7.303  18.615  0.00  0.00    +0.000 A 
ATOM      9  C   UNL     1       2.118   7.434  19.968  0.00  0.00    +0.000 A 
ATOM     10  C   UNL     1       1.363   8.519  20.432  0.00  0.00    +0.000 A 
ATOM     11  C   UNL     1       0.971   9.516  19.551  0.00  0.00    +0.000 A 
ATOM     12 CL   UNL     1       0.023  10.837  20.110  0.00  0.00    +0.000 Cl
ATOM     13  C   UNL     1       1.342   9.442  18.215  0.00  0.00    +0.000 A 
ATOM     14  C   UNL     1       2.089   8.348  17.754  0.00  0.00    +0.000 A 
ENDBRANCH   6   8
BRANCH   1  15
ATOM     15  C   UNL     1       6.155   5.601  15.860  0.00  0.00    +0.000 C 
ATOM     16  O   UNL     1       6.943   6.508  16.112  0.00  0.00    +0.000 OA
BRANCH  15  20
ATOM     17  C   UNL     1       6.339   3.415  12.147  0.00  0.00    +0.000 A 
ATOM     18  C   UNL     1       5.342   3.180  13.092  0.00  0.00    +0.000 A 
ATOM     19  C   UNL     1       5.317   3.898  14.293  0.00  0.00    +0.000 A 
ATOM     20  C   UNL     1       6.306   4.853  14.577  0.00  0.00    +0.000 A 
ATOM     21  C   UNL     1       7.351   5.015  13.659  0.00  0.00    +0.000 A 
ATOM     22  C   UNL     1       7.341   4.339  12.435  0.00  0.00    +0.000 A 
BRANCH  17  24
ATOM     23  C   UNL     1       6.430   1.269  11.139  0.00  0.00    +0.000 C 
ATOM     24  O   UNL     1       6.245   2.674  11.001  0.00  0.00    +0.000 OA
ENDBRANCH  17  24
BRANCH  21  25
ATOM     25  O   UNL     1       8.462   5.788  13.856  0.00  0.00    +0.000 OA
ATOM     26  H   UNL     1       8.689   5.809  14.802  0.00  0.00    +0.000 HD
ENDBRANCH  21  25
ENDBRANCH  15  20
ENDBRANCH   1  15
TORSDOF 5
ENDMDL
MODEL 8
REMARK VINA RESULT:      -7.2      2.312      3.689
REMARK  Name = 
REMARK  6 active torsions:
REMARK  status: ('A' for Active; 'I' for Inactive)
REMARK    1  A    between atoms: C_1  and  O_2
REMARK    2  A    between atoms: O_2  and  C_3
REMARK    3  A    between atoms: C_6  and  C_7
REMARK    4  A    between atoms: C_7  and  C_9
REMARK    5  A    between atoms: N_14  and  C_15
REMARK    6  A    between atoms: C_23  and  O_24
REMARK                            x       y       z     vdW  Elec       q    Type
REMARK                         _______ _______ _______ _____ _____    ______ ____
ROOT
ATOM      1  C   UNL     1       4.661   4.771  18.885  0.00  0.00    +0.000 A 
ATOM      2  C   UNL     1       4.150   3.551  19.449  0.00  0.00    +0.000 A 
ATOM      3  C   UNL     1       2.935   3.526  20.003  0.00  0.00    +0.000 A 
ATOM      4  C   UNL     1       2.111   4.763  20.114  0.00  0.00    +0.000 A 
ATOM      5  O   UNL     1       0.960   4.607  20.510  0.00  0.00    +0.000 OA
ATOM      6  N   UNL     1       2.735   5.973  19.714  0.00  0.00    +0.000 N 
ATOM      7  C   UNL     1       3.991   5.919  19.092  0.00  0.00    +0.000 A 
ENDROOT
BRANCH   6   8
ATOM      8  C   UNL     1       2.018   7.234  19.856  0.00  0.00    +0.000 A 
ATOM      9  C   UNL     1       1.907   8.148  18.793  0.00  0.00    +0.000 A 
ATOM     10  C   UNL     1       1.264   9.384  18.942  0.00  0.00    +0.000 A 
ATOM     11  C   UNL     1       0.692   9.725  20.159  0.00  0.00    +0.000 A 
ATOM     12 CL   UNL     1      -0.076  11.250  20.355  0.00  0.00    +0.000 Cl
ATOM     13  C   UNL     1       0.747   8.832  21.221  0.00  0.00    +0.000 A 
ATOM     14  C   UNL     1       1.402   7.601  21.069  0.00  0.00    +0.000 A 
ENDBRANCH   6   8
BRANCH   1  15
ATOM     15  C   UNL     1       5.903   4.863  18.045  0.00  0.00    +0.000 C 
ATOM     16  O   UNL     1       6.220   3.941  17.299  0.00  0.00    +0.000 OA
BRANCH  15  20
ATOM     17  C   UNL     1       8.249   8.481  18.149  0.00  0.00    +0.000 A 
ATOM     18  C   UNL     1       7.252   8.275  17.196  0.00  0.00    +0.000 A 
ATOM     19  C   UNL     1       6.517   7.085  17.182  0.00  0.00    +0.000 A 
ATOM     20  C   UNL     1       6.781   6.068  18.113  0.00  0.00    +0.000 A 
ATOM     21  C   UNL     1       7.844   6.252  19.007  0.00  0.00    +0.000 A 
ATOM     22  C   UNL     1       8.537   7.464  19.057  0.00  0.00    +0.000 A 
BRANCH  17  24
ATOM     23  C   UNL     1       9.273  10.270  19.323  0.00  0.00    +0.000 C 
ATOM     24  O   UNL     1       8.881   9.692  18.082  0.00  0.00    +0.000 OA
ENDBRANCH  17  24
BRANCH  21  25
ATOM     25  O   UNL     1       8.323   5.304  19.869  0.00  0.00    +0.000 OA
ATOM     26  H   UNL     1       7.613   4.682  20.107  0.00  0.00    +0.000 HD
ENDBRANCH  21  25
ENDBRANCH  15  20
ENDBRANCH   1  15
TORSDOF 5
ENDMDL
MODEL 9
REMARK VINA RESULT:      -7.1      4.108      8.666
REMARK  Name = 
REMARK  6 active torsions:
REMARK  status: ('A' for Active; 'I' for Inactive)
REMARK    1  A    between atoms: C_1  and  O_2
REMARK    2  A    between atoms: O_2  and  C_3
REMARK    3  A    between atoms: C_6  and  C_7
REMARK    4  A    between atoms: C_7  and  C_9
REMARK    5  A    between atoms: N_14  and  C_15
REMARK    6  A    between atoms: C_23  and  O_24
REMARK                            x       y       z     vdW  Elec       q    Type
REMARK                         _______ _______ _______ _____ _____    ______ ____
ROOT
ATOM      1  C   UNL     1       1.623   8.865  19.074  0.00  0.00    +0.000 A 
ATOM      2  C   UNL     1       1.189   8.292  20.320  0.00  0.00    +0.000 A 
ATOM      3  C   UNL     1       1.666   7.108  20.715  0.00  0.00    +0.000 A 
ATOM      4  C   UNL     1       2.598   6.325  19.855  0.00  0.00    +0.000 A 
ATOM      5  O   UNL     1       3.086   5.322  20.368  0.00  0.00    +0.000 OA
ATOM      6  N   UNL     1       2.847   6.846  18.559  0.00  0.00    +0.000 N 
ATOM      7  C   UNL     1       2.356   8.118  18.230  0.00  0.00    +0.000 A 
ENDROOT
BRANCH   6   8
ATOM      8  C   UNL     1       3.694   6.102  17.635  0.00  0.00    +0.000 A 
ATOM      9  C   UNL     1       4.672   6.738  16.849  0.00  0.00    +0.000 A 
ATOM     10  C   UNL     1       5.451   6.034  15.922  0.00  0.00    +0.000 A 
ATOM     11  C   UNL     1       5.285   4.665  15.776  0.00  0.00    +0.000 A 
ATOM     12 CL   UNL     1       6.220   3.800  14.622  0.00  0.00    +0.000 Cl
ATOM     13  C   UNL     1       4.357   3.995  16.561  0.00  0.00    +0.000 A 
ATOM     14  C   UNL     1       3.571   4.707  17.481  0.00  0.00    +0.000 A 
ENDBRANCH   6   8
BRANCH   1  15
ATOM     15  C   UNL     1       1.332  10.273  18.641  0.00  0.00    +0.000 C 
ATOM     16  O   UNL     1       2.169  10.918  18.016  0.00  0.00    +0.000 OA
BRANCH  15  20
ATOM     17  C   UNL     1      -2.303  12.322  19.732  0.00  0.00    +0.000 A 
ATOM     18  C   UNL     1      -1.173  12.342  20.547  0.00  0.00    +0.000 A 
ATOM     19  C   UNL     1      -0.012  11.656  20.171  0.00  0.00    +0.000 A 
ATOM     20  C   UNL     1       0.029  10.920  18.976  0.00  0.00    +0.000 A 
ATOM     21  C   UNL     1      -1.142  10.836  18.212  0.00  0.00    +0.000 A 
ATOM     22  C   UNL     1      -2.280  11.569  18.561  0.00  0.00    +0.000 A 
BRANCH  17  24
ATOM     23  C   UNL     1      -4.660  12.533  19.895  0.00  0.00    +0.000 C 
ATOM     24  O   UNL     1      -3.367  13.050  20.190  0.00  0.00    +0.000 OA
ENDBRANCH  17  24
BRANCH  21  25
ATOM     25  O   UNL     1      -1.309  10.042  17.110  0.00  0.00    +0.000 OA
ATOM     26  H   UNL     1      -2.195   9.640  17.121  0.00  0.00    +0.000 HD
ENDBRANCH  21  25
ENDBRANCH  15  20
ENDBRANCH   1  15
TORSDOF 5
ENDMDL
