MODEL 1
REMARK VINA RESULT:      -7.0      0.000      0.000
REMARK  Name = 
REMARK  10 active torsions:
REMARK  status: ('A' for Active; 'I' for Inactive)
REMARK    1  A    between atoms: C_1  and  C_2
REMARK    2  A    between atoms: C_2  and  C_3
REMARK    3  A    between atoms: C_3  and  N_4
REMARK    4  A    between atoms: N_4  and  C_5
REMARK    5  A    between atoms: N_4  and  C_8
REMARK    6  A    between atoms: C_5  and  C_6
REMARK    7  A    between atoms: C_6  and  C_7
REMARK    8  A    between atoms: C_10  and  C_11
REMARK    9  A    between atoms: C_14  and  C_15
REMARK   10  A    between atoms: N_23  and  C_24
REMARK                            x       y       z     vdW  Elec       q    Type
REMARK                         _______ _______ _______ _____ _____    ______ ____
ROOT
ATOM      1  C   UNL     1       3.760   5.988  17.875  0.00  0.00    +0.000 A 
ATOM      2  C   UNL     1       3.500   5.073  18.936  0.00  0.00    +0.000 A 
ATOM      3  C   UNL     1       2.574   5.291  19.986  0.00  0.00    +0.000 A 
ATOM      4  C   UNL     1       2.391   4.227  21.035  0.00  0.00    +0.000 C 
ATOM      5  N   UNL     1       1.847   6.416  20.169  0.00  0.00    +0.000 NA
ATOM      6  C   UNL     1       2.172   7.385  19.283  0.00  0.00    +0.000 A 
ATOM      7  C   UNL     1       1.714   8.685  19.339  0.00  0.00    +0.000 A 
ATOM      8  N   UNL     1       2.345   9.255  18.250  0.00  0.00    +0.000 N 
ATOM      9  C   UNL     1       2.315  10.630  17.800  0.00  0.00    +0.000 C 
ATOM     10  N   UNL     1       3.082   8.405  17.500  0.00  0.00    +0.000 NA
ATOM     11  C   UNL     1       3.075   7.224  18.153  0.00  0.00    +0.000 A 
ENDROOT
BRANCH   7  12
ATOM     12  C   UNL     1       0.780   9.356  20.281  0.00  0.00    +0.000 A 
ATOM     13  C   UNL     1       1.071   9.328  21.659  0.00  0.00    +0.000 A 
ATOM     14  C   UNL     1       0.243   9.953  22.602  0.00  0.00    +0.000 A 
ATOM     15  C   UNL     1      -0.858  10.683  22.179  0.00  0.00    +0.000 A 
ATOM     16 CL   UNL     1      -1.852  11.482  23.333  0.00  0.00    +0.000 Cl
ATOM     17  C   UNL     1      -1.164  10.757  20.828  0.00  0.00    +0.000 A 
ATOM     18  C   UNL     1      -0.377  10.072  19.886  0.00  0.00    +0.000 A 
ATOM     19 CL   UNL     1      -0.994  10.095  18.267  0.00  0.00    +0.000 Cl
ENDBRANCH   7  12
BRANCH   1  20
ATOM     20  N   UNL     1       4.640   5.632  16.818  0.00  0.00    +0.000 N 
BRANCH  20  21
ATOM     21  C   UNL     1       5.859   6.455  16.647  0.00  0.00    +0.000 C 
BRANCH  21  23
ATOM     22  C   UNL     1       7.575   5.495  18.291  0.00  0.00    +0.000 C 
ATOM     23  C   UNL     1       6.689   6.669  17.916  0.00  0.00    +0.000 C 
ENDBRANCH  21  23
ENDBRANCH  20  21
BRANCH  20  24
ATOM     24  C   UNL     1       4.658   4.233  16.345  0.00  0.00    +0.000 C 
BRANCH  24  25
ATOM     25  C   UNL     1       5.894   3.799  15.544  0.00  0.00    +0.000 C 
ATOM     26  C   UNL     1       5.821   3.998  14.040  0.00  0.00    +0.000 C 
ENDBRANCH  24  25
ENDBRANCH  20  24
ENDBRANCH   1  20
TORSDOF 6
ENDMDL
MODEL 2
REMARK VINA RESULT:      -6.9      0.934      2.012
REMARK  Name = 
REMARK  10 active torsions:
REMARK  status: ('A' for Active; 'I' for Inactive)
REMARK    1  A    between atoms: C_1  and  C_2
REMARK    2  A    between atoms: C_2  and  C_3
REMARK    3  A    between atoms: C_3  and  N_4
REMARK    4  A    between atoms: N_4  and  C_5
REMARK    5  A    between atoms: N_4  and  C_8
REMARK    6  A    between atoms: C_5  and  C_6
REMARK    7  A    between atoms: C_6  and  C_7
REMARK    8  A    between atoms: C_10  and  C_11
REMARK    9  A    between atoms: C_14  and  C_15
REMARK   10  A    between atoms: N_23  and  C_24
REMARK                            x       y       z     vdW  Elec       q    Type
REMARK                         _______ _______ _______ _____ _____    ______ ____
ROOT
ATOM      1  C   UNL     1       3.895   4.937  18.519  0.00  0.00    +0.000 A 
ATOM      2  C   UNL     1       3.492   4.157  19.640  0.00  0.00    +0.000 A 
ATOM      3  C   UNL     1       2.520   4.550  20.594  0.00  0.00    +0.000 A 
ATOM      4  C   UNL     1       2.181   3.615  21.724  0.00  0.00    +0.000 C 
ATOM      5  N   UNL     1       1.878   5.740  20.614  0.00  0.00    +0.000 NA
ATOM      6  C   UNL     1       2.340   6.587  19.665  0.00  0.00    +0.000 A 
ATOM      7  C   UNL     1       1.988   7.916  19.561  0.00  0.00    +0.000 A 
ATOM      8  N   UNL     1       2.734   8.323  18.472  0.00  0.00    +0.000 N 
ATOM      9  C   UNL     1       2.847   9.644  17.891  0.00  0.00    +0.000 C 
ATOM     10  N   UNL     1       3.446   7.347  17.863  0.00  0.00    +0.000 NA
ATOM     11  C   UNL     1       3.298   6.243  18.625  0.00  0.00    +0.000 A 
ENDROOT
BRANCH   7  12
ATOM     12  C   UNL     1       1.053   8.748  20.363  0.00  0.00    +0.000 A 
ATOM     13  C   UNL     1       1.150   8.716  21.768  0.00  0.00    +0.000 A 
ATOM     14  C   UNL     1       0.312   9.486  22.586  0.00  0.00    +0.000 A 
ATOM     15  C   UNL     1      -0.597  10.363  22.012  0.00  0.00    +0.000 A 
ATOM     16 CL   UNL     1      -1.598  11.337  23.015  0.00  0.00    +0.000 Cl
ATOM     17  C   UNL     1      -0.706  10.445  20.631  0.00  0.00    +0.000 A 
ATOM     18  C   UNL     1       0.084   9.621  19.810  0.00  0.00    +0.000 A 
ATOM     19 CL   UNL     1      -0.302   9.693  18.122  0.00  0.00    +0.000 Cl
ENDBRANCH   7  12
BRANCH   1  20
ATOM     20  N   UNL     1       4.810   4.410  17.568  0.00  0.00    +0.000 N 
BRANCH  20  21
ATOM     21  C   UNL     1       4.391   4.419  16.148  0.00  0.00    +0.000 C 
BRANCH  21  23
ATOM     22  C   UNL     1       5.965   4.083  14.154  0.00  0.00    +0.000 C 
ATOM     23  C   UNL     1       5.391   5.049  15.174  0.00  0.00    +0.000 C 
ENDBRANCH  21  23
ENDBRANCH  20  21
BRANCH  20  24
ATOM     24  C   UNL     1       6.254   4.429  17.880  0.00  0.00    +0.000 C 
BRANCH  24  25
ATOM     25  C   UNL     1       6.721   5.489  18.889  0.00  0.00    +0.000 C 
ATOM     26  C   UNL     1       7.721   6.509  18.374  0.00  0.00    +0.000 C 
ENDBRANCH  24  25
ENDBRANCH  20  24
ENDBRANCH   1  20
TORSDOF 6
ENDMDL
MODEL 3
REMARK VINA RESULT:      -6.7      0.418      1.930
REMARK  Name = 
REMARK  10 active torsions:
REMARK  status: ('A' for Active; 'I' for Inactive)
REMARK    1  A    between atoms: C_1  and  C_2
REMARK    2  A    between atoms: C_2  and  C_3
REMARK    3  A    between atoms: C_3  and  N_4
REMARK    4  A    between atoms: N_4  and  C_5
REMARK    5  A    between atoms: N_4  and  C_8
REMARK    6  A    between atoms: C_5  and  C_6
REMARK    7  A    between atoms: C_6  and  C_7
REMARK    8  A    between atoms: C_10  and  C_11
REMARK    9  A    between atoms: C_14  and  C_15
REMARK   10  A    between atoms: N_23  and  C_24
REMARK                            x       y       z     vdW  Elec       q    Type
REMARK                         _______ _______ _______ _____ _____    ______ ____
ROOT
ATOM      1  C   UNL     1       3.880   5.909  18.171  0.00  0.00    +0.000 A 
ATOM      2  C   UNL     1       3.563   5.018  19.237  0.00  0.00    +0.000 A 
ATOM      3  C   UNL     1       2.580   5.259  20.229  0.00  0.00    +0.000 A 
ATOM      4  C   UNL     1       2.340   4.219  21.291  0.00  0.00    +0.000 C 
ATOM      5  N   UNL     1       1.842   6.386  20.345  0.00  0.00    +0.000 NA
ATOM      6  C   UNL     1       2.215   7.335  19.455  0.00  0.00    +0.000 A 
ATOM      7  C   UNL     1       1.752   8.635  19.454  0.00  0.00    +0.000 A 
ATOM      8  N   UNL     1       2.443   9.179  18.389  0.00  0.00    +0.000 N 
ATOM      9  C   UNL     1       2.436  10.544  17.905  0.00  0.00    +0.000 C 
ATOM     10  N   UNL     1       3.221   8.314  17.701  0.00  0.00    +0.000 NA
ATOM     11  C   UNL     1       3.179   7.149  18.381  0.00  0.00    +0.000 A 
ENDROOT
BRANCH   7  12
ATOM     12  C   UNL     1       0.767   9.325  20.327  0.00  0.00    +0.000 A 
ATOM     13  C   UNL     1       0.968   9.311  21.721  0.00  0.00    +0.000 A 
ATOM     14  C   UNL     1       0.088   9.955  22.602  0.00  0.00    +0.000 A 
ATOM     15  C   UNL     1      -0.976  10.690  22.100  0.00  0.00    +0.000 A 
ATOM     16 CL   UNL     1      -2.033  11.512  23.179  0.00  0.00    +0.000 Cl
ATOM     17  C   UNL     1      -1.194  10.751  20.731  0.00  0.00    +0.000 A 
ATOM     18  C   UNL     1      -0.355  10.047  19.850  0.00  0.00    +0.000 A 
ATOM     19 CL   UNL     1      -0.866  10.057  18.194  0.00  0.00    +0.000 Cl
ENDBRANCH   7  12
BRANCH   1  20
ATOM     20  N   UNL     1       4.818   5.530  17.174  0.00  0.00    +0.000 N 
BRANCH  20  21
ATOM     21  C   UNL     1       4.451   4.394  16.297  0.00  0.00    +0.000 C 
BRANCH  21  23
ATOM     22  C   UNL     1       5.767   4.047  14.126  0.00  0.00    +0.000 C 
ATOM     23  C   UNL     1       5.623   3.701  15.597  0.00  0.00    +0.000 C 
ENDBRANCH  21  23
ENDBRANCH  20  21
BRANCH  20  24
ATOM     24  C   UNL     1       5.764   6.542  16.662  0.00  0.00    +0.000 C 
BRANCH  24  25
ATOM     25  C   UNL     1       7.133   6.607  17.354  0.00  0.00    +0.000 C 
ATOM     26  C   UNL     1       7.696   7.997  17.595  0.00  0.00    +0.000 C 
ENDBRANCH  24  25
ENDBRANCH  20  24
ENDBRANCH   1  20
TORSDOF 6
ENDMDL
MODEL 4
REMARK VINA RESULT:      -6.5      0.838      1.280
REMARK  Name = 
REMARK  10 active torsions:
REMARK  status: ('A' for Active; 'I' for Inactive)
REMARK    1  A    between atoms: C_1  and  C_2
REMARK    2  A    between atoms: C_2  and  C_3
REMARK    3  A    between atoms: C_3  and  N_4
REMARK    4  A    between atoms: N_4  and  C_5
REMARK    5  A    between atoms: N_4  and  C_8
REMARK    6  A    between atoms: C_5  and  C_6
REMARK    7  A    between atoms: C_6  and  C_7
REMARK    8  A    between atoms: C_10  and  C_11
REMARK    9  A    between atoms: C_14  and  C_15
REMARK   10  A    between atoms: N_23  and  C_24
REMARK                            x       y       z     vdW  Elec       q    Type
REMARK                         _______ _______ _______ _____ _____    ______ ____
ROOT
ATOM      1  C   UNL     1       3.584   5.752  18.224  0.00  0.00    +0.000 A 
ATOM      2  C   UNL     1       3.323   4.909  19.343  0.00  0.00    +0.000 A 
ATOM      3  C   UNL     1       2.416   5.210  20.390  0.00  0.00    +0.000 A 
ATOM      4  C   UNL     1       2.229   4.216  21.505  0.00  0.00    +0.000 C 
ATOM      5  N   UNL     1       1.711   6.357  20.511  0.00  0.00    +0.000 NA
ATOM      6  C   UNL     1       2.041   7.263  19.561  0.00  0.00    +0.000 A 
ATOM      7  C   UNL     1       1.606   8.572  19.541  0.00  0.00    +0.000 A 
ATOM      8  N   UNL     1       2.231   9.060  18.411  0.00  0.00    +0.000 N 
ATOM      9  C   UNL     1       2.219  10.405  17.876  0.00  0.00    +0.000 C 
ATOM     10  N   UNL     1       2.943   8.152  17.706  0.00  0.00    +0.000 NA
ATOM     11  C   UNL     1       2.924   7.014  18.432  0.00  0.00    +0.000 A 
ENDROOT
BRANCH   7  12
ATOM     12  C   UNL     1       0.697   9.317  20.451  0.00  0.00    +0.000 A 
ATOM     13  C   UNL     1       0.963   9.305  21.835  0.00  0.00    +0.000 A 
ATOM     14  C   UNL     1       0.158   9.998  22.749  0.00  0.00    +0.000 A 
ATOM     15  C   UNL     1      -0.892  10.780  22.290  0.00  0.00    +0.000 A 
ATOM     16 CL   UNL     1      -1.857  11.662  23.408  0.00  0.00    +0.000 Cl
ATOM     17  C   UNL     1      -1.172  10.840  20.932  0.00  0.00    +0.000 A 
ATOM     18  C   UNL     1      -0.410  10.088  20.020  0.00  0.00    +0.000 A 
ATOM     19 CL   UNL     1      -0.998  10.109  18.390  0.00  0.00    +0.000 Cl
ENDBRANCH   7  12
BRANCH   1  20
ATOM     20  N   UNL     1       4.443   5.314  17.180  0.00  0.00    +0.000 N 
BRANCH  20  21
ATOM     21  C   UNL     1       5.550   6.217  16.792  0.00  0.00    +0.000 C 
BRANCH  21  23
ATOM     22  C   UNL     1       7.616   7.503  17.598  0.00  0.00    +0.000 C 
ATOM     23  C   UNL     1       6.707   6.302  17.792  0.00  0.00    +0.000 C 
ENDBRANCH  21  23
ENDBRANCH  20  21
BRANCH  20  24
ATOM     24  C   UNL     1       4.595   3.864  16.941  0.00  0.00    +0.000 C 
BRANCH  24  25
ATOM     25  C   UNL     1       3.308   3.028  16.977  0.00  0.00    +0.000 C 
ATOM     26  C   UNL     1       3.323   1.813  17.889  0.00  0.00    +0.000 C 
ENDBRANCH  24  25
ENDBRANCH  20  24
ENDBRANCH   1  20
TORSDOF 6
ENDMDL
MODEL 5
REMARK VINA RESULT:      -6.4      0.922      2.095
REMARK  Name = 
REMARK  10 active torsions:
REMARK  status: ('A' for Active; 'I' for Inactive)
REMARK    1  A    between atoms: C_1  and  C_2
REMARK    2  A    between atoms: C_2  and  C_3
REMARK    3  A    between atoms: C_3  and  N_4
REMARK    4  A    between atoms: N_4  and  C_5
REMARK    5  A    between atoms: N_4  and  C_8
REMARK    6  A    between atoms: C_5  and  C_6
REMARK    7  A    between atoms: C_6  and  C_7
REMARK    8  A    between atoms: C_10  and  C_11
REMARK    9  A    between atoms: C_14  and  C_15
REMARK   10  A    between atoms: N_23  and  C_24
REMARK                            x       y       z     vdW  Elec       q    Type
REMARK                         _______ _______ _______ _____ _____    ______ ____
ROOT
ATOM      1  C   UNL     1       3.693   5.608  18.380  0.00  0.00    +0.000 A 
ATOM      2  C   UNL     1       3.415   4.788  19.511  0.00  0.00    +0.000 A 
ATOM      3  C   UNL     1       2.487   5.106  20.535  0.00  0.00    +0.000 A 
ATOM      4  C   UNL     1       2.283   4.136  21.667  0.00  0.00    +0.000 C 
ATOM      5  N   UNL     1       1.775   6.252  20.619  0.00  0.00    +0.000 NA
ATOM      6  C   UNL     1       2.119   7.140  19.656  0.00  0.00    +0.000 A 
ATOM      7  C   UNL     1       1.679   8.446  19.601  0.00  0.00    +0.000 A 
ATOM      8  N   UNL     1       2.324   8.914  18.472  0.00  0.00    +0.000 N 
ATOM      9  C   UNL     1       2.316  10.247  17.909  0.00  0.00    +0.000 C 
ATOM     10  N   UNL     1       3.053   7.994  17.800  0.00  0.00    +0.000 NA
ATOM     11  C   UNL     1       3.025   6.872  18.549  0.00  0.00    +0.000 A 
ENDROOT
BRANCH   7  12
ATOM     12  C   UNL     1       0.751   9.206  20.478  0.00  0.00    +0.000 A 
ATOM     13  C   UNL     1       0.963   9.186  21.871  0.00  0.00    +0.000 A 
ATOM     14  C   UNL     1       0.137   9.892  22.755  0.00  0.00    +0.000 A 
ATOM     15  C   UNL     1      -0.880  10.694  22.259  0.00  0.00    +0.000 A 
ATOM     16 CL   UNL     1      -1.870  11.591  23.342  0.00  0.00    +0.000 Cl
ATOM     17  C   UNL     1      -1.107  10.762  20.892  0.00  0.00    +0.000 A 
ATOM     18  C   UNL     1      -0.325   9.999  20.007  0.00  0.00    +0.000 A 
ATOM     19 CL   UNL     1      -0.850  10.034  18.356  0.00  0.00    +0.000 Cl
ENDBRANCH   7  12
BRANCH   1  20
ATOM     20  N   UNL     1       4.573   5.153  17.362  0.00  0.00    +0.000 N 
BRANCH  20  21
ATOM     21  C   UNL     1       4.240   3.868  16.705  0.00  0.00    +0.000 C 
BRANCH  21  23
ATOM     22  C   UNL     1       2.719   2.042  17.664  0.00  0.00    +0.000 C 
ATOM     23  C   UNL     1       2.811   3.368  16.931  0.00  0.00    +0.000 C 
ENDBRANCH  21  23
ENDBRANCH  20  21
BRANCH  20  24
ATOM     24  C   UNL     1       5.374   6.144  16.614  0.00  0.00    +0.000 C 
BRANCH  24  25
ATOM     25  C   UNL     1       6.896   6.074  16.803  0.00  0.00    +0.000 C 
ATOM     26  C   UNL     1       7.504   7.108  17.734  0.00  0.00    +0.000 C 
ENDBRANCH  24  25
ENDBRANCH  20  24
ENDBRANCH   1  20
TORSDOF 6
ENDMDL
MODEL 6
REMARK VINA RESULT:      -6.2      1.177      1.550
REMARK  Name = 
REMARK  10 active torsions:
REMARK  status: ('A' for Active; 'I' for Inactive)
REMARK    1  A    between atoms: C_1  and  C_2
REMARK    2  A    between atoms: C_2  and  C_3
REMARK    3  A    between atoms: C_3  and  N_4
REMARK    4  A    between atoms: N_4  and  C_5
REMARK    5  A    between atoms: N_4  and  C_8
REMARK    6  A    between atoms: C_5  and  C_6
REMARK    7  A    between atoms: C_6  and  C_7
REMARK    8  A    between atoms: C_10  and  C_11
REMARK    9  A    between atoms: C_14  and  C_15
REMARK   10  A    between atoms: N_23  and  C_24
REMARK                            x       y       z     vdW  Elec       q    Type
REMARK                         _______ _______ _______ _____ _____    ______ ____
ROOT
ATOM      1  C   UNL     1       3.498   6.189  18.010  0.00  0.00    +0.000 A 
ATOM      2  C   UNL     1       3.247   5.302  19.096  0.00  0.00    +0.000 A 
ATOM      3  C   UNL     1       2.355   5.562  20.166  0.00  0.00    +0.000 A 
ATOM      4  C   UNL     1       2.177   4.524  21.241  0.00  0.00    +0.000 C 
ATOM      5  N   UNL     1       1.656   6.706  20.343  0.00  0.00    +0.000 NA
ATOM      6  C   UNL     1       1.979   7.649  19.428  0.00  0.00    +0.000 A 
ATOM      7  C   UNL     1       1.549   8.959  19.467  0.00  0.00    +0.000 A 
ATOM      8  N   UNL     1       2.163   9.492  18.350  0.00  0.00    +0.000 N 
ATOM      9  C   UNL     1       2.150  10.858  17.872  0.00  0.00    +0.000 C 
ATOM     10  N   UNL     1       2.862   8.611  17.600  0.00  0.00    +0.000 NA
ATOM     11  C   UNL     1       2.847   7.444  18.278  0.00  0.00    +0.000 A 
ENDROOT
BRANCH   7  12
ATOM     12  C   UNL     1       0.655   9.670  20.419  0.00  0.00    +0.000 A 
ATOM     13  C   UNL     1      -0.450  10.380  19.911  0.00  0.00    +0.000 A 
ATOM     14  C   UNL     1      -1.343  11.060  20.752  0.00  0.00    +0.000 A 
ATOM     15  C   UNL     1      -1.189  10.982  22.128  0.00  0.00    +0.000 A 
ATOM     16 CL   UNL     1      -2.307  11.784  23.161  0.00  0.00    +0.000 Cl
ATOM     17  C   UNL     1      -0.129  10.270  22.670  0.00  0.00    +0.000 A 
ATOM     18  C   UNL     1       0.809   9.648  21.828  0.00  0.00    +0.000 A 
ATOM     19 CL   UNL     1       2.179   8.968  22.641  0.00  0.00    +0.000 Cl
ENDBRANCH   7  12
BRANCH   1  20
ATOM     20  N   UNL     1       4.342   5.791  16.938  0.00  0.00    +0.000 N 
BRANCH  20  21
ATOM     21  C   UNL     1       5.504   6.657  16.635  0.00  0.00    +0.000 C 
BRANCH  21  23
ATOM     22  C   UNL     1       7.721   7.642  17.463  0.00  0.00    +0.000 C 
ATOM     23  C   UNL     1       6.397   6.998  17.832  0.00  0.00    +0.000 C 
ENDBRANCH  21  23
ENDBRANCH  20  21
BRANCH  20  24
ATOM     24  C   UNL     1       4.412   4.360  16.577  0.00  0.00    +0.000 C 
BRANCH  24  25
ATOM     25  C   UNL     1       5.702   3.893  15.887  0.00  0.00    +0.000 C 
ATOM     26  C   UNL     1       5.742   4.034  14.375  0.00  0.00    +0.000 C 
ENDBRANCH  24  25
ENDBRANCH  20  24
ENDBRANCH   1  20
TORSDOF 6
ENDMDL
MODEL 7
REMARK VINA RESULT:      -6.0      2.412      4.143
REMARK  Name = 
REMARK  10 active torsions:
REMARK  status: ('A' for Active; 'I' for Inactive)
REMARK    1  A    between atoms: C_1  and  C_2
REMARK    2  A    between atoms: C_2  and  C_3
REMARK    3  A    between atoms: C_3  and  N_4
REMARK    4  A    between atoms: N_4  and  C_5
REMARK    5  A    between atoms: N_4  and  C_8
REMARK    6  A    between atoms: C_5  and  C_6
REMARK    7  A    between atoms: C_6  and  C_7
REMARK    8  A    between atoms: C_10  and  C_11
REMARK    9  A    between atoms: C_14  and  C_15
REMARK   10  A    between atoms: N_23  and  C_24
REMARK                            x       y       z     vdW  Elec       q    Type
REMARK                         _______ _______ _______ _____ _____    ______ ____
ROOT
ATOM      1  C   UNL     1       2.820   5.784  19.589  0.00  0.00    +0.000 A 
ATOM      2  C   UNL     1       3.416   6.116  18.339  0.00  0.00    +0.000 A 
ATOM      3  C   UNL     1       3.379   7.399  17.738  0.00  0.00    +0.000 A 
ATOM      4  C   UNL     1       4.067   7.610  16.416  0.00  0.00    +0.000 C 
ATOM      5  N   UNL     1       2.730   8.477  18.232  0.00  0.00    +0.000 NA
ATOM      6  C   UNL     1       2.010   8.178  19.338  0.00  0.00    +0.000 A 
ATOM      7  C   UNL     1       1.122   9.038  19.952  0.00  0.00    +0.000 A 
ATOM      8  N   UNL     1       0.649   8.260  20.991  0.00  0.00    +0.000 N 
ATOM      9  C   UNL     1      -0.365   8.579  21.974  0.00  0.00    +0.000 C 
ATOM     10  N   UNL     1       1.220   7.040  21.106  0.00  0.00    +0.000 NA
ATOM     11  C   UNL     1       2.032   6.903  20.037  0.00  0.00    +0.000 A 
ENDROOT
BRANCH   7  12
ATOM     12  C   UNL     1       0.740  10.440  19.640  0.00  0.00    +0.000 A 
ATOM     13  C   UNL     1       1.304  11.483  20.402  0.00  0.00    +0.000 A 
ATOM     14  C   UNL     1       1.001  12.828  20.152  0.00  0.00    +0.000 A 
ATOM     15  C   UNL     1       0.181  13.165  19.085  0.00  0.00    +0.000 A 
ATOM     16 CL   UNL     1      -0.160  14.818  18.755  0.00  0.00    +0.000 Cl
ATOM     17  C   UNL     1      -0.373  12.169  18.294  0.00  0.00    +0.000 A 
ATOM     18  C   UNL     1      -0.129  10.816  18.586  0.00  0.00    +0.000 A 
ATOM     19 CL   UNL     1      -1.043   9.690  17.637  0.00  0.00    +0.000 Cl
ENDBRANCH   7  12
BRANCH   1  20
ATOM     20  N   UNL     1       2.996   4.489  20.148  0.00  0.00    +0.000 N 
BRANCH  20  21
ATOM     21  C   UNL     1       4.289   3.814  19.896  0.00  0.00    +0.000 C 
BRANCH  21  23
ATOM     22  C   UNL     1       3.593   2.376  17.892  0.00  0.00    +0.000 C 
ATOM     23  C   UNL     1       4.189   2.412  19.288  0.00  0.00    +0.000 C 
ENDBRANCH  21  23
ENDBRANCH  20  21
BRANCH  20  24
ATOM     24  C   UNL     1       2.229   4.123  21.356  0.00  0.00    +0.000 C 
BRANCH  24  25
ATOM     25  C   UNL     1       1.196   2.999  21.195  0.00  0.00    +0.000 C 
ATOM     26  C   UNL     1       0.545   2.879  19.828  0.00  0.00    +0.000 C 
ENDBRANCH  24  25
ENDBRANCH  20  24
ENDBRANCH   1  20
TORSDOF 6
ENDMDL
MODEL 8
REMARK VINA RESULT:      -5.9      2.378      4.065
REMARK  Name = 
REMARK  10 active torsions:
REMARK  status: ('A' for Active; 'I' for Inactive)
REMARK    1  A    between atoms: C_1  and  C_2
REMARK    2  A    between atoms: C_2  and  C_3
REMARK    3  A    between atoms: C_3  and  N_4
REMARK    4  A    between atoms: N_4  and  C_5
REMARK    5  A    between atoms: N_4  and  C_8
REMARK    6  A    between atoms: C_5  and  C_6
REMARK    7  A    between atoms: C_6  and  C_7
REMARK    8  A    between atoms: C_10  and  C_11
REMARK    9  A    between atoms: C_14  and  C_15
REMARK   10  A    between atoms: N_23  and  C_24
REMARK                            x       y       z     vdW  Elec       q    Type
REMARK                         _______ _______ _______ _____ _____    ______ ____
ROOT
ATOM      1  C   UNL     1       2.778   5.869  19.719  0.00  0.00    +0.000 A 
ATOM      2  C   UNL     1       3.336   6.159  18.441  0.00  0.00    +0.000 A 
ATOM      3  C   UNL     1       3.278   7.421  17.799  0.00  0.00    +0.000 A 
ATOM      4  C   UNL     1       3.926   7.588  16.450  0.00  0.00    +0.000 C 
ATOM      5  N   UNL     1       2.641   8.515  18.275  0.00  0.00    +0.000 NA
ATOM      6  C   UNL     1       1.955   8.252  19.411  0.00  0.00    +0.000 A 
ATOM      7  C   UNL     1       1.084   9.131  20.022  0.00  0.00    +0.000 A 
ATOM      8  N   UNL     1       0.643   8.389  21.100  0.00  0.00    +0.000 N 
ATOM      9  C   UNL     1      -0.341   8.739  22.102  0.00  0.00    +0.000 C 
ATOM     10  N   UNL     1       1.221   7.174  21.240  0.00  0.00    +0.000 NA
ATOM     11  C   UNL     1       2.001   7.001  20.152  0.00  0.00    +0.000 A 
ENDROOT
BRANCH   7  12
ATOM     12  C   UNL     1       0.690  10.521  19.674  0.00  0.00    +0.000 A 
ATOM     13  C   UNL     1       1.221  11.586  20.428  0.00  0.00    +0.000 A 
ATOM     14  C   UNL     1       0.905  12.922  20.146  0.00  0.00    +0.000 A 
ATOM     15  C   UNL     1       0.106  13.227  19.054  0.00  0.00    +0.000 A 
ATOM     16 CL   UNL     1      -0.251  14.869  18.685  0.00  0.00    +0.000 Cl
ATOM     17  C   UNL     1      -0.416  12.209  18.269  0.00  0.00    +0.000 A 
ATOM     18  C   UNL     1      -0.159  10.865  18.593  0.00  0.00    +0.000 A 
ATOM     19 CL   UNL     1      -1.035   9.708  17.646  0.00  0.00    +0.000 Cl
ENDBRANCH   7  12
BRANCH   1  20
ATOM     20  N   UNL     1       2.973   4.594  20.315  0.00  0.00    +0.000 N 
BRANCH  20  21
ATOM     21  C   UNL     1       1.761   3.833  20.695  0.00  0.00    +0.000 C 
BRANCH  21  23
ATOM     22  C   UNL     1       0.563   2.339  18.992  0.00  0.00    +0.000 C 
ATOM     23  C   UNL     1       0.689   3.721  19.607  0.00  0.00    +0.000 C 
ENDBRANCH  21  23
ENDBRANCH  20  21
BRANCH  20  24
ATOM     24  C   UNL     1       4.213   3.848  20.017  0.00  0.00    +0.000 C 
BRANCH  24  25
ATOM     25  C   UNL     1       4.048   2.530  19.248  0.00  0.00    +0.000 C 
ATOM     26  C   UNL     1       3.887   2.648  17.743  0.00  0.00    +0.000 C 
ENDBRANCH  24  25
ENDBRANCH  20  24
ENDBRANCH   1  20
TORSDOF 6
ENDMDL
MODEL 9
REMARK VINA RESULT:      -5.8      3.468      8.775
REMARK  Name = 
REMARK  10 active torsions:
REMARK  status: ('A' for Active; 'I' for Inactive)
REMARK    1  A    between atoms: C_1  and  C_2
REMARK    2  A    between atoms: C_2  and  C_3
REMARK    3  A    between atoms: C_3  and  N_4
REMARK    4  A    between atoms: N_4  and  C_5
REMARK    5  A    between atoms: N_4  and  C_8
REMARK    6  A    between atoms: C_5  and  C_6
REMARK    7  A    between atoms: C_6  and  C_7
REMARK    8  A    between atoms: C_10  and  C_11
REMARK    9  A    between atoms: C_14  and  C_15
REMARK   10  A    between atoms: N_23  and  C_24
REMARK                            x       y       z     vdW  Elec       q    Type
REMARK                         _______ _______ _______ _____ _____    ______ ____
ROOT
ATOM      1  C   UNL     1      -1.789  12.161  20.730  0.00  0.00    +0.000 A 
ATOM      2  C   UNL     1      -2.136  12.105  19.349  0.00  0.00    +0.000 A 
ATOM      3  C   UNL     1      -1.701  11.106  18.444  0.00  0.00    +0.000 A 
ATOM      4  C   UNL     1      -2.159  11.164  17.011  0.00  0.00    +0.000 C 
ATOM      5  N   UNL     1      -0.852  10.095  18.740  0.00  0.00    +0.000 NA
ATOM      6  C   UNL     1      -0.362  10.191  19.997  0.00  0.00    +0.000 A 
ATOM      7  C   UNL     1       0.645   9.399  20.509  0.00  0.00    +0.000 A 
ATOM      8  N   UNL     1       0.782   9.906  21.787  0.00  0.00    +0.000 N 
ATOM      9  C   UNL     1       1.728   9.530  22.816  0.00  0.00    +0.000 C 
ATOM     10  N   UNL     1      -0.096  10.880  22.119  0.00  0.00    +0.000 NA
ATOM     11  C   UNL     1      -0.792  11.157  20.997  0.00  0.00    +0.000 A 
ENDROOT
BRANCH   7  12
ATOM     12  C   UNL     1       1.410   8.276  19.908  0.00  0.00    +0.000 A 
ATOM     13  C   UNL     1       1.448   7.041  20.585  0.00  0.00    +0.000 A 
ATOM     14  C   UNL     1       2.137   5.935  20.068  0.00  0.00    +0.000 A 
ATOM     15  C   UNL     1       2.744   6.019  18.823  0.00  0.00    +0.000 A 
ATOM     16 CL   UNL     1       3.556   4.650  18.172  0.00  0.00    +0.000 Cl
ATOM     17  C   UNL     1       2.707   7.209  18.112  0.00  0.00    +0.000 A 
ATOM     18  C   UNL     1       2.078   8.341  18.660  0.00  0.00    +0.000 A 
ATOM     19 CL   UNL     1       2.284   9.801  17.748  0.00  0.00    +0.000 Cl
ENDBRANCH   7  12
BRANCH   1  20
ATOM     20  N   UNL     1      -2.355  13.154  21.573  0.00  0.00    +0.000 N 
BRANCH  20  21
ATOM     21  C   UNL     1      -2.105  14.569  21.215  0.00  0.00    +0.000 C 
BRANCH  21  23
ATOM     22  C   UNL     1      -0.841  15.113  23.376  0.00  0.00    +0.000 C 
ATOM     23  C   UNL     1      -0.869  15.200  21.861  0.00  0.00    +0.000 C 
ENDBRANCH  21  23
ENDBRANCH  20  21
BRANCH  20  24
ATOM     24  C   UNL     1      -3.568  12.825  22.350  0.00  0.00    +0.000 C 
BRANCH  24  25
ATOM     25  C   UNL     1      -3.343  12.225  23.745  0.00  0.00    +0.000 C 
ATOM     26  C   UNL     1      -4.463  12.428  24.750  0.00  0.00    +0.000 C 
ENDBRANCH  24  25
ENDBRANCH  20  24
ENDBRANCH   1  20
TORSDOF 6
ENDMDL
