MODEL 1
REMARK VINA RESULT:      -8.0      0.000      0.000
REMARK  Name = 
REMARK  5 active torsions:
REMARK  status: ('A' for Active; 'I' for Inactive)
REMARK    1  A    between atoms: O_1  and  N_2
REMARK    2  A    between atoms: C_3  and  C_11
REMARK    3  A    between atoms: N_4  and  C_5
REMARK    4  A    between atoms: N_12  and  O_13
REMARK    5  A    between atoms: N_14  and  C_15
REMARK                            x       y       z     vdW  Elec       q    Type
REMARK                         _______ _______ _______ _____ _____    ______ ____
ROOT
ATOM      1  N   UNL     1       5.397   5.606  18.564  0.00  0.00    +0.000 NA
ATOM      2  C   UNL     1       5.481   4.363  18.173  0.00  0.00    +0.000 C 
ATOM      3  N   UNL     1       4.816   3.251  18.681  0.00  0.00    +0.000 N 
ATOM      4  H   UNL     1       5.326   2.379  18.695  0.00  0.00    +0.000 HD
ENDROOT
BRANCH   3   5
ATOM      5  C   UNL     1       3.484   3.186  19.156  0.00  0.00    +0.000 A 
ATOM      6  C   UNL     1       3.153   2.774  20.459  0.00  0.00    +0.000 A 
ATOM      7  C   UNL     1       1.822   2.646  20.877  0.00  0.00    +0.000 A 
ATOM      8  C   UNL     1       0.788   2.951  19.999  0.00  0.00    +0.000 A 
ATOM      9  C   UNL     1       1.085   3.367  18.709  0.00  0.00    +0.000 A 
ATOM     10  C   UNL     1       2.421   3.478  18.286  0.00  0.00    +0.000 A 
ENDBRANCH   3   5
BRANCH   2  11
ATOM     11  C   UNL     1       6.450   4.112  16.953  0.00  0.00    +0.000 C 
ATOM     12  N   UNL     1       7.754   4.246  17.040  0.00  0.00    +0.000 NA
ATOM     13  N   UNL     1       5.872   3.689  15.756  0.00  0.00    +0.000 N 
ATOM     14  H   UNL     1       4.867   3.556  15.756  0.00  0.00    +0.000 HD
BRANCH  13  15
ATOM     15  C   UNL     1       6.377   4.034  14.476  0.00  0.00    +0.000 A 
ATOM     16  C   UNL     1       7.312   5.067  14.353  0.00  0.00    +0.000 A 
ATOM     17  C   UNL     1       7.835   5.419  13.101  0.00  0.00    +0.000 A 
ATOM     18  C   UNL     1       7.445   4.724  11.958  0.00  0.00    +0.000 A 
ATOM     19  C   UNL     1       6.524   3.688  12.064  0.00  0.00    +0.000 A 
ATOM     20  C   UNL     1       5.993   3.349  13.316  0.00  0.00    +0.000 A 
ENDBRANCH  13  15
BRANCH  12  21
ATOM     21  O   UNL     1       8.210   4.612  18.304  0.00  0.00    +0.000 OA
ATOM     22  H   UNL     1       8.845   3.901  18.510  0.00  0.00    +0.000 HD
ENDBRANCH  12  21
ENDBRANCH   2  11
BRANCH   1  23
ATOM     23  O   UNL     1       4.744   5.732  19.797  0.00  0.00    +0.000 OA
ATOM     24  H   UNL     1       4.276   6.580  19.703  0.00  0.00    +0.000 HD
ENDBRANCH   1  23
TORSDOF 5
ENDMDL
MODEL 2
REMARK VINA RESULT:      -8.0      0.144      1.524
REMARK  Name = 
REMARK  5 active torsions:
REMARK  status: ('A' for Active; 'I' for Inactive)
REMARK    1  A    between atoms: O_1  and  N_2
REMARK    2  A    between atoms: C_3  and  C_11
REMARK    3  A    between atoms: N_4  and  C_5
REMARK    4  A    between atoms: N_12  and  O_13
REMARK    5  A    between atoms: N_14  and  C_15
REMARK                            x       y       z     vdW  Elec       q    Type
REMARK                         _______ _______ _______ _____ _____    ______ ____
ROOT
ATOM      1  N   UNL     1       5.183   5.629  18.451  0.00  0.00    +0.000 NA
ATOM      2  C   UNL     1       5.392   4.374  18.155  0.00  0.00    +0.000 C 
ATOM      3  N   UNL     1       4.824   3.244  18.736  0.00  0.00    +0.000 N 
ATOM      4  H   UNL     1       5.413   2.428  18.822  0.00  0.00    +0.000 HD
ENDROOT
BRANCH   3   5
ATOM      5  C   UNL     1       3.494   3.086  19.196  0.00  0.00    +0.000 A 
ATOM      6  C   UNL     1       2.370   3.296  18.378  0.00  0.00    +0.000 A 
ATOM      7  C   UNL     1       1.065   3.206  18.879  0.00  0.00    +0.000 A 
ATOM      8  C   UNL     1       0.857   2.881  20.214  0.00  0.00    +0.000 A 
ATOM      9  C   UNL     1       1.948   2.661  21.044  0.00  0.00    +0.000 A 
ATOM     10  C   UNL     1       3.257   2.769  20.543  0.00  0.00    +0.000 A 
ENDBRANCH   3   5
BRANCH   2  11
ATOM     11  C   UNL     1       6.405   4.128  16.971  0.00  0.00    +0.000 C 
ATOM     12  N   UNL     1       7.703   4.275  17.103  0.00  0.00    +0.000 NA
ATOM     13  N   UNL     1       5.873   3.695  15.756  0.00  0.00    +0.000 N 
ATOM     14  H   UNL     1       4.870   3.553  15.722  0.00  0.00    +0.000 HD
BRANCH  13  15
ATOM     15  C   UNL     1       6.419   4.041  14.493  0.00  0.00    +0.000 A 
ATOM     16  C   UNL     1       6.015   3.347  13.348  0.00  0.00    +0.000 A 
ATOM     17  C   UNL     1       6.531   3.677  12.087  0.00  0.00    +0.000 A 
ATOM     18  C   UNL     1       7.443   4.722  11.954  0.00  0.00    +0.000 A 
ATOM     19  C   UNL     1       7.848   5.429  13.082  0.00  0.00    +0.000 A 
ATOM     20  C   UNL     1       7.340   5.086  14.343  0.00  0.00    +0.000 A 
ENDBRANCH  13  15
BRANCH  12  21
ATOM     21  O   UNL     1       8.112   4.649  18.381  0.00  0.00    +0.000 OA
ATOM     22  H   UNL     1       7.263   4.795  18.837  0.00  0.00    +0.000 HD
ENDBRANCH  12  21
ENDBRANCH   2  11
BRANCH   1  23
ATOM     23  O   UNL     1       4.495   5.781  19.662  0.00  0.00    +0.000 OA
ATOM     24  H   UNL     1       3.712   6.294  19.398  0.00  0.00    +0.000 HD
ENDBRANCH   1  23
TORSDOF 5
ENDMDL
MODEL 3
REMARK VINA RESULT:      -8.0      1.515      1.884
REMARK  Name = 
REMARK  5 active torsions:
REMARK  status: ('A' for Active; 'I' for Inactive)
REMARK    1  A    between atoms: O_1  and  N_2
REMARK    2  A    between atoms: C_3  and  C_11
REMARK    3  A    between atoms: N_4  and  C_5
REMARK    4  A    between atoms: N_12  and  O_13
REMARK    5  A    between atoms: N_14  and  C_15
REMARK                            x       y       z     vdW  Elec       q    Type
REMARK                         _______ _______ _______ _____ _____    ______ ____
ROOT
ATOM      1  N   UNL     1       6.648   5.626  18.864  0.00  0.00    +0.000 NA
ATOM      2  C   UNL     1       5.882   5.033  17.988  0.00  0.00    +0.000 C 
ATOM      3  N   UNL     1       4.909   4.062  18.210  0.00  0.00    +0.000 N 
ATOM      4  H   UNL     1       4.806   3.348  17.503  0.00  0.00    +0.000 HD
ENDROOT
BRANCH   3   5
ATOM      5  C   UNL     1       4.013   3.972  19.302  0.00  0.00    +0.000 A 
ATOM      6  C   UNL     1       3.847   2.803  20.064  0.00  0.00    +0.000 A 
ATOM      7  C   UNL     1       2.899   2.719  21.091  0.00  0.00    +0.000 A 
ATOM      8  C   UNL     1       2.105   3.820  21.392  0.00  0.00    +0.000 A 
ATOM      9  C   UNL     1       2.252   4.991  20.661  0.00  0.00    +0.000 A 
ATOM     10  C   UNL     1       3.192   5.066  19.620  0.00  0.00    +0.000 A 
ENDBRANCH   3   5
BRANCH   2  11
ATOM     11  C   UNL     1       6.084   5.506  16.496  0.00  0.00    +0.000 C 
ATOM     12  N   UNL     1       5.376   6.470  15.954  0.00  0.00    +0.000 NA
ATOM     13  N   UNL     1       7.094   4.884  15.762  0.00  0.00    +0.000 N 
ATOM     14  H   UNL     1       7.642   4.180  16.244  0.00  0.00    +0.000 HD
BRANCH  13  15
ATOM     15  C   UNL     1       7.021   4.658  14.364  0.00  0.00    +0.000 A 
ATOM     16  C   UNL     1       7.837   5.392  13.497  0.00  0.00    +0.000 A 
ATOM     17  C   UNL     1       7.792   5.179  12.112  0.00  0.00    +0.000 A 
ATOM     18  C   UNL     1       6.944   4.210  11.579  0.00  0.00    +0.000 A 
ATOM     19  C   UNL     1       6.133   3.464  12.428  0.00  0.00    +0.000 A 
ATOM     20  C   UNL     1       6.171   3.691  13.811  0.00  0.00    +0.000 A 
ENDBRANCH  13  15
BRANCH  12  21
ATOM     21  O   UNL     1       4.445   7.051  16.810  0.00  0.00    +0.000 OA
ATOM     22  H   UNL     1       4.110   7.797  16.280  0.00  0.00    +0.000 HD
ENDBRANCH  12  21
ENDBRANCH   2  11
BRANCH   1  23
ATOM     23  O   UNL     1       6.619   4.990  20.112  0.00  0.00    +0.000 OA
ATOM     24  H   UNL     1       7.550   4.741  20.245  0.00  0.00    +0.000 HD
ENDBRANCH   1  23
TORSDOF 5
ENDMDL
MODEL 4
REMARK VINA RESULT:      -8.0      1.506      2.128
REMARK  Name = 
REMARK  5 active torsions:
REMARK  status: ('A' for Active; 'I' for Inactive)
REMARK    1  A    between atoms: O_1  and  N_2
REMARK    2  A    between atoms: C_3  and  C_11
REMARK    3  A    between atoms: N_4  and  C_5
REMARK    4  A    between atoms: N_12  and  O_13
REMARK    5  A    between atoms: N_14  and  C_15
REMARK                            x       y       z     vdW  Elec       q    Type
REMARK                         _______ _______ _______ _____ _____    ______ ____
ROOT
ATOM      1  N   UNL     1       6.692   5.682  18.819  0.00  0.00    +0.000 NA
ATOM      2  C   UNL     1       5.962   5.035  17.950  0.00  0.00    +0.000 C 
ATOM      3  N   UNL     1       5.041   4.017  18.184  0.00  0.00    +0.000 N 
ATOM      4  H   UNL     1       4.979   3.287  17.489  0.00  0.00    +0.000 HD
ENDROOT
BRANCH   3   5
ATOM      5  C   UNL     1       4.145   3.899  19.274  0.00  0.00    +0.000 A 
ATOM      6  C   UNL     1       3.998   2.717  20.021  0.00  0.00    +0.000 A 
ATOM      7  C   UNL     1       3.049   2.605  21.046  0.00  0.00    +0.000 A 
ATOM      8  C   UNL     1       2.238   3.689  21.360  0.00  0.00    +0.000 A 
ATOM      9  C   UNL     1       2.367   4.872  20.645  0.00  0.00    +0.000 A 
ATOM     10  C   UNL     1       3.307   4.976  19.605  0.00  0.00    +0.000 A 
ENDBRANCH   3   5
BRANCH   2  11
ATOM     11  C   UNL     1       6.147   5.492  16.451  0.00  0.00    +0.000 C 
ATOM     12  N   UNL     1       5.421   6.439  15.902  0.00  0.00    +0.000 NA
ATOM     13  N   UNL     1       7.160   4.876  15.717  0.00  0.00    +0.000 N 
ATOM     14  H   UNL     1       7.721   4.185  16.203  0.00  0.00    +0.000 HD
BRANCH  13  15
ATOM     15  C   UNL     1       7.080   4.631  14.322  0.00  0.00    +0.000 A 
ATOM     16  C   UNL     1       6.190   3.669  13.834  0.00  0.00    +0.000 A 
ATOM     17  C   UNL     1       6.083   3.417  12.460  0.00  0.00    +0.000 A 
ATOM     18  C   UNL     1       6.853   4.143  11.552  0.00  0.00    +0.000 A 
ATOM     19  C   UNL     1       7.736   5.111  12.019  0.00  0.00    +0.000 A 
ATOM     20  C   UNL     1       7.849   5.349  13.396  0.00  0.00    +0.000 A 
ENDBRANCH  13  15
BRANCH  12  21
ATOM     21  O   UNL     1       4.487   7.017  16.758  0.00  0.00    +0.000 OA
ATOM     22  H   UNL     1       3.644   6.681  16.404  0.00  0.00    +0.000 HD
ENDBRANCH  12  21
ENDBRANCH   2  11
BRANCH   1  23
ATOM     23  O   UNL     1       6.689   5.068  20.077  0.00  0.00    +0.000 OA
ATOM     24  H   UNL     1       7.212   4.262  19.921  0.00  0.00    +0.000 HD
ENDBRANCH   1  23
TORSDOF 5
ENDMDL
MODEL 5
REMARK VINA RESULT:      -7.9      1.480      1.838
REMARK  Name = 
REMARK  5 active torsions:
REMARK  status: ('A' for Active; 'I' for Inactive)
REMARK    1  A    between atoms: O_1  and  N_2
REMARK    2  A    between atoms: C_3  and  C_11
REMARK    3  A    between atoms: N_4  and  C_5
REMARK    4  A    between atoms: N_12  and  O_13
REMARK    5  A    between atoms: N_14  and  C_15
REMARK                            x       y       z     vdW  Elec       q    Type
REMARK                         _______ _______ _______ _____ _____    ______ ____
ROOT
ATOM      1  N   UNL     1       5.870   4.040  18.699  0.00  0.00    +0.000 NA
ATOM      2  C   UNL     1       5.040   4.190  17.703  0.00  0.00    +0.000 C 
ATOM      3  N   UNL     1       3.705   3.807  17.626  0.00  0.00    +0.000 N 
ATOM      4  H   UNL     1       3.372   3.482  16.730  0.00  0.00    +0.000 HD
ENDROOT
BRANCH   3   5
ATOM      5  C   UNL     1       2.735   3.850  18.657  0.00  0.00    +0.000 A 
ATOM      6  C   UNL     1       2.483   5.000  19.426  0.00  0.00    +0.000 A 
ATOM      7  C   UNL     1       1.571   4.992  20.489  0.00  0.00    +0.000 A 
ATOM      8  C   UNL     1       0.872   3.830  20.793  0.00  0.00    +0.000 A 
ATOM      9  C   UNL     1       1.094   2.681  20.046  0.00  0.00    +0.000 A 
ATOM     10  C   UNL     1       2.023   2.687  18.991  0.00  0.00    +0.000 A 
ENDBRANCH   3   5
BRANCH   2  11
ATOM     11  C   UNL     1       5.641   4.921  16.439  0.00  0.00    +0.000 C 
ATOM     12  N   UNL     1       5.265   6.123  16.067  0.00  0.00    +0.000 NA
ATOM     13  N   UNL     1       6.641   4.253  15.732  0.00  0.00    +0.000 N 
ATOM     14  H   UNL     1       6.927   3.348  16.089  0.00  0.00    +0.000 HD
BRANCH  13  15
ATOM     15  C   UNL     1       6.821   4.369  14.330  0.00  0.00    +0.000 A 
ATOM     16  C   UNL     1       7.734   5.298  13.820  0.00  0.00    +0.000 A 
ATOM     17  C   UNL     1       7.939   5.423  12.440  0.00  0.00    +0.000 A 
ATOM     18  C   UNL     1       7.247   4.602  11.551  0.00  0.00    +0.000 A 
ATOM     19  C   UNL     1       6.343   3.666  12.041  0.00  0.00    +0.000 A 
ATOM     20  C   UNL     1       6.131   3.554  13.423  0.00  0.00    +0.000 A 
ENDBRANCH  13  15
BRANCH  12  21
ATOM     21  O   UNL     1       4.306   6.706  16.891  0.00  0.00    +0.000 OA
ATOM     22  H   UNL     1       4.730   7.547  17.141  0.00  0.00    +0.000 HD
ENDBRANCH  12  21
ENDBRANCH   2  11
BRANCH   1  23
ATOM     23  O   UNL     1       5.377   3.165  19.675  0.00  0.00    +0.000 OA
ATOM     24  H   UNL     1       4.908   3.765  20.281  0.00  0.00    +0.000 HD
ENDBRANCH   1  23
TORSDOF 5
ENDMDL
MODEL 6
REMARK VINA RESULT:      -7.9      0.226      1.093
REMARK  Name = 
REMARK  5 active torsions:
REMARK  status: ('A' for Active; 'I' for Inactive)
REMARK    1  A    between atoms: O_1  and  N_2
REMARK    2  A    between atoms: C_3  and  C_11
REMARK    3  A    between atoms: N_4  and  C_5
REMARK    4  A    between atoms: N_12  and  O_13
REMARK    5  A    between atoms: N_14  and  C_15
REMARK                            x       y       z     vdW  Elec       q    Type
REMARK                         _______ _______ _______ _____ _____    ______ ____
ROOT
ATOM      1  N   UNL     1       5.082   5.664  18.500  0.00  0.00    +0.000 NA
ATOM      2  C   UNL     1       5.319   4.412  18.214  0.00  0.00    +0.000 C 
ATOM      3  N   UNL     1       4.783   3.274  18.810  0.00  0.00    +0.000 N 
ATOM      4  H   UNL     1       5.392   2.473  18.898  0.00  0.00    +0.000 HD
ENDROOT
BRANCH   3   5
ATOM      5  C   UNL     1       3.461   3.089  19.282  0.00  0.00    +0.000 A 
ATOM      6  C   UNL     1       2.326   3.257  18.469  0.00  0.00    +0.000 A 
ATOM      7  C   UNL     1       1.027   3.141  18.982  0.00  0.00    +0.000 A 
ATOM      8  C   UNL     1       0.838   2.832  20.324  0.00  0.00    +0.000 A 
ATOM      9  C   UNL     1       1.940   2.653  21.148  0.00  0.00    +0.000 A 
ATOM     10  C   UNL     1       3.241   2.787  20.635  0.00  0.00    +0.000 A 
ENDBRANCH   3   5
BRANCH   2  11
ATOM     11  C   UNL     1       6.328   4.179  17.023  0.00  0.00    +0.000 C 
ATOM     12  N   UNL     1       7.619   4.398  17.132  0.00  0.00    +0.000 NA
ATOM     13  N   UNL     1       5.804   3.678  15.832  0.00  0.00    +0.000 N 
ATOM     14  H   UNL     1       4.809   3.481  15.817  0.00  0.00    +0.000 HD
BRANCH  13  15
ATOM     15  C   UNL     1       6.315   4.007  14.550  0.00  0.00    +0.000 A 
ATOM     16  C   UNL     1       7.268   5.023  14.422  0.00  0.00    +0.000 A 
ATOM     17  C   UNL     1       7.797   5.360  13.168  0.00  0.00    +0.000 A 
ATOM     18  C   UNL     1       7.394   4.667  12.028  0.00  0.00    +0.000 A 
ATOM     19  C   UNL     1       6.456   3.647  12.140  0.00  0.00    +0.000 A 
ATOM     20  C   UNL     1       5.918   3.323  13.394  0.00  0.00    +0.000 A 
ENDBRANCH  13  15
BRANCH  12  21
ATOM     21  O   UNL     1       8.023   4.837  18.390  0.00  0.00    +0.000 OA
ATOM     22  H   UNL     1       8.050   5.804  18.275  0.00  0.00    +0.000 HD
ENDBRANCH  12  21
ENDBRANCH   2  11
BRANCH   1  23
ATOM     23  O   UNL     1       4.401   5.811  19.715  0.00  0.00    +0.000 OA
ATOM     24  H   UNL     1       4.783   6.632  20.073  0.00  0.00    +0.000 HD
ENDBRANCH   1  23
TORSDOF 5
ENDMDL
MODEL 7
REMARK VINA RESULT:      -7.9      1.506      2.129
REMARK  Name = 
REMARK  5 active torsions:
REMARK  status: ('A' for Active; 'I' for Inactive)
REMARK    1  A    between atoms: O_1  and  N_2
REMARK    2  A    between atoms: C_3  and  C_11
REMARK    3  A    between atoms: N_4  and  C_5
REMARK    4  A    between atoms: N_12  and  O_13
REMARK    5  A    between atoms: N_14  and  C_15
REMARK                            x       y       z     vdW  Elec       q    Type
REMARK                         _______ _______ _______ _____ _____    ______ ____
ROOT
ATOM      1  N   UNL     1       5.887   4.048  18.641  0.00  0.00    +0.000 NA
ATOM      2  C   UNL     1       5.059   4.222  17.647  0.00  0.00    +0.000 C 
ATOM      3  N   UNL     1       3.714   3.873  17.573  0.00  0.00    +0.000 N 
ATOM      4  H   UNL     1       3.371   3.561  16.676  0.00  0.00    +0.000 HD
ENDROOT
BRANCH   3   5
ATOM      5  C   UNL     1       2.748   3.936  18.606  0.00  0.00    +0.000 A 
ATOM      6  C   UNL     1       2.560   5.073  19.411  0.00  0.00    +0.000 A 
ATOM      7  C   UNL     1       1.649   5.081  20.476  0.00  0.00    +0.000 A 
ATOM      8  C   UNL     1       0.886   3.950  20.743  0.00  0.00    +0.000 A 
ATOM      9  C   UNL     1       1.045   2.815  19.959  0.00  0.00    +0.000 A 
ATOM     10  C   UNL     1       1.973   2.804  18.903  0.00  0.00    +0.000 A 
ENDBRANCH   3   5
BRANCH   2  11
ATOM     11  C   UNL     1       5.675   4.943  16.385  0.00  0.00    +0.000 C 
ATOM     12  N   UNL     1       5.304   6.142  15.999  0.00  0.00    +0.000 NA
ATOM     13  N   UNL     1       6.684   4.269  15.696  0.00  0.00    +0.000 N 
ATOM     14  H   UNL     1       6.964   3.367  16.064  0.00  0.00    +0.000 HD
BRANCH  13  15
ATOM     15  C   UNL     1       6.880   4.374  14.295  0.00  0.00    +0.000 A 
ATOM     16  C   UNL     1       6.174   3.533  13.429  0.00  0.00    +0.000 A 
ATOM     17  C   UNL     1       6.342   3.624  12.040  0.00  0.00    +0.000 A 
ATOM     18  C   UNL     1       7.204   4.577  11.500  0.00  0.00    +0.000 A 
ATOM     19  C   UNL     1       7.906   5.428  12.346  0.00  0.00    +0.000 A 
ATOM     20  C   UNL     1       7.746   5.323  13.735  0.00  0.00    +0.000 A 
ENDBRANCH  13  15
BRANCH  12  21
ATOM     21  O   UNL     1       4.335   6.732  16.808  0.00  0.00    +0.000 OA
ATOM     22  H   UNL     1       3.784   5.970  17.062  0.00  0.00    +0.000 HD
ENDBRANCH  12  21
ENDBRANCH   2  11
BRANCH   1  23
ATOM     23  O   UNL     1       5.374   3.181  19.614  0.00  0.00    +0.000 OA
ATOM     24  H   UNL     1       5.218   3.776  20.368  0.00  0.00    +0.000 HD
ENDBRANCH   1  23
TORSDOF 5
ENDMDL
MODEL 8
REMARK VINA RESULT:      -7.9      1.508      2.252
REMARK  Name = 
REMARK  5 active torsions:
REMARK  status: ('A' for Active; 'I' for Inactive)
REMARK    1  A    between atoms: O_1  and  N_2
REMARK    2  A    between atoms: C_3  and  C_11
REMARK    3  A    between atoms: N_4  and  C_5
REMARK    4  A    between atoms: N_12  and  O_13
REMARK    5  A    between atoms: N_14  and  C_15
REMARK                            x       y       z     vdW  Elec       q    Type
REMARK                         _______ _______ _______ _____ _____    ______ ____
ROOT
ATOM      1  N   UNL     1       6.559   5.570  18.872  0.00  0.00    +0.000 NA
ATOM      2  C   UNL     1       5.801   5.007  17.971  0.00  0.00    +0.000 C 
ATOM      3  N   UNL     1       4.798   4.059  18.157  0.00  0.00    +0.000 N 
ATOM      4  H   UNL     1       4.695   3.355  17.440  0.00  0.00    +0.000 HD
ENDROOT
BRANCH   3   5
ATOM      5  C   UNL     1       3.872   3.982  19.226  0.00  0.00    +0.000 A 
ATOM      6  C   UNL     1       3.077   5.067  19.630  0.00  0.00    +0.000 A 
ATOM      7  C   UNL     1       2.223   4.985  20.739  0.00  0.00    +0.000 A 
ATOM      8  C   UNL     1       2.133   3.797  21.456  0.00  0.00    +0.000 A 
ATOM      9  C   UNL     1       2.901   2.706  21.074  0.00  0.00    +0.000 A 
ATOM     10  C   UNL     1       3.769   2.797  19.972  0.00  0.00    +0.000 A 
ENDBRANCH   3   5
BRANCH   2  11
ATOM     11  C   UNL     1       6.054   5.489  16.490  0.00  0.00    +0.000 C 
ATOM     12  N   UNL     1       5.365   6.458  15.931  0.00  0.00    +0.000 NA
ATOM     13  N   UNL     1       7.087   4.871  15.786  0.00  0.00    +0.000 N 
ATOM     14  H   UNL     1       7.617   4.162  16.281  0.00  0.00    +0.000 HD
BRANCH  13  15
ATOM     15  C   UNL     1       7.060   4.654  14.384  0.00  0.00    +0.000 A 
ATOM     16  C   UNL     1       6.209   3.682  13.847  0.00  0.00    +0.000 A 
ATOM     17  C   UNL     1       6.156   3.457  12.464  0.00  0.00    +0.000 A 
ATOM     18  C   UNL     1       6.938   4.220  11.599  0.00  0.00    +0.000 A 
ATOM     19  C   UNL     1       7.782   5.197  12.116  0.00  0.00    +0.000 A 
ATOM     20  C   UNL     1       7.843   5.409  13.501  0.00  0.00    +0.000 A 
ENDBRANCH  13  15
BRANCH  12  21
ATOM     21  O   UNL     1       4.406   7.035  16.760  0.00  0.00    +0.000 OA
ATOM     22  H   UNL     1       4.838   7.864  17.032  0.00  0.00    +0.000 HD
ENDBRANCH  12  21
ENDBRANCH   2  11
BRANCH   1  23
ATOM     23  O   UNL     1       6.482   4.923  20.112  0.00  0.00    +0.000 OA
ATOM     24  H   UNL     1       6.770   4.019  19.898  0.00  0.00    +0.000 HD
ENDBRANCH   1  23
TORSDOF 5
ENDMDL
MODEL 9
REMARK VINA RESULT:      -7.9      1.512      2.028
REMARK  Name = 
REMARK  5 active torsions:
REMARK  status: ('A' for Active; 'I' for Inactive)
REMARK    1  A    between atoms: O_1  and  N_2
REMARK    2  A    between atoms: C_3  and  C_11
REMARK    3  A    between atoms: N_4  and  C_5
REMARK    4  A    between atoms: N_12  and  O_13
REMARK    5  A    between atoms: N_14  and  C_15
REMARK                            x       y       z     vdW  Elec       q    Type
REMARK                         _______ _______ _______ _____ _____    ______ ____
ROOT
ATOM      1  N   UNL     1       6.536   5.609  18.851  0.00  0.00    +0.000 NA
ATOM      2  C   UNL     1       5.784   5.032  17.952  0.00  0.00    +0.000 C 
ATOM      3  N   UNL     1       4.792   4.074  18.142  0.00  0.00    +0.000 N 
ATOM      4  H   UNL     1       4.697   3.366  17.428  0.00  0.00    +0.000 HD
ENDROOT
BRANCH   3   5
ATOM      5  C   UNL     1       3.866   3.992  19.210  0.00  0.00    +0.000 A 
ATOM      6  C   UNL     1       3.061   5.072  19.611  0.00  0.00    +0.000 A 
ATOM      7  C   UNL     1       2.208   4.985  20.719  0.00  0.00    +0.000 A 
ATOM      8  C   UNL     1       2.128   3.799  21.439  0.00  0.00    +0.000 A 
ATOM      9  C   UNL     1       2.905   2.713  21.061  0.00  0.00    +0.000 A 
ATOM     10  C   UNL     1       3.773   2.809  19.960  0.00  0.00    +0.000 A 
ENDBRANCH   3   5
BRANCH   2  11
ATOM     11  C   UNL     1       6.033   5.510  16.469  0.00  0.00    +0.000 C 
ATOM     12  N   UNL     1       5.357   6.490  15.915  0.00  0.00    +0.000 NA
ATOM     13  N   UNL     1       7.050   4.875  15.756  0.00  0.00    +0.000 N 
ATOM     14  H   UNL     1       7.572   4.157  16.246  0.00  0.00    +0.000 HD
BRANCH  13  15
ATOM     15  C   UNL     1       7.008   4.658  14.355  0.00  0.00    +0.000 A 
ATOM     16  C   UNL     1       7.829   5.412  13.510  0.00  0.00    +0.000 A 
ATOM     17  C   UNL     1       7.815   5.209  12.123  0.00  0.00    +0.000 A 
ATOM     18  C   UNL     1       6.992   4.231  11.566  0.00  0.00    +0.000 A 
ATOM     19  C   UNL     1       6.177   3.466  12.393  0.00  0.00    +0.000 A 
ATOM     20  C   UNL     1       6.184   3.683  13.778  0.00  0.00    +0.000 A 
ENDBRANCH  13  15
BRANCH  12  21
ATOM     21  O   UNL     1       4.414   7.084  16.752  0.00  0.00    +0.000 OA
ATOM     22  H   UNL     1       4.913   7.830  17.131  0.00  0.00    +0.000 HD
ENDBRANCH  12  21
ENDBRANCH   2  11
BRANCH   1  23
ATOM     23  O   UNL     1       6.464   4.967  20.094  0.00  0.00    +0.000 OA
ATOM     24  H   UNL     1       5.508   4.965  20.277  0.00  0.00    +0.000 HD
ENDBRANCH   1  23
TORSDOF 5
ENDMDL
