MODEL 1
REMARK VINA RESULT:      -8.7      0.000      0.000
REMARK  Name = 
REMARK  5 active torsions:
REMARK  status: ('A' for Active; 'I' for Inactive)
REMARK    1  A    between atoms: C_2  and  C_19
REMARK    2  A    between atoms: N_3  and  C_4
REMARK    3  A    between atoms: C_4  and  C_5
REMARK    4  A    between atoms: C_5  and  C_6
REMARK    5  A    between atoms: C_9  and  C_10
REMARK                            x       y       z     vdW  Elec       q    Type
REMARK                         _______ _______ _______ _____ _____    ______ ____
ROOT
ATOM      1  C   UNL     1       7.295   6.930  17.503  0.00  0.00    +0.000 A 
ATOM      2  N   UNL     1       7.918   6.433  18.576  0.00  0.00    +0.000 NA
ATOM      3  N   UNL     1       8.537   7.523  19.052  0.00  0.00    +0.000 N 
ATOM      4  C   UNL     1       8.284   8.633  18.293  0.00  0.00    +0.000 A 
ATOM      5  N   UNL     1       7.480   8.274  17.311  0.00  0.00    +0.000 NA
ATOM      6  H   UNL     1       9.107   7.439  19.886  0.00  0.00    +0.000 HD
ENDROOT
BRANCH   4   7
ATOM      7  C   UNL     1       8.817   9.971  18.542  0.00  0.00    +0.000 A 
ATOM      8  C   UNL     1       8.519  11.014  17.645  0.00  0.00    +0.000 A 
ATOM      9  C   UNL     1       9.017  12.307  17.850  0.00  0.00    +0.000 A 
ATOM     10  C   UNL     1       9.820  12.559  18.957  0.00  0.00    +0.000 A 
ATOM     11  F   UNL     1      10.300  13.793  19.157  0.00  0.00    +0.000 F 
ATOM     12  C   UNL     1      10.120  11.540  19.848  0.00  0.00    +0.000 A 
ATOM     13  F   UNL     1      10.895  11.779  20.914  0.00  0.00    +0.000 F 
ATOM     14  C   UNL     1       9.626  10.253  19.650  0.00  0.00    +0.000 A 
ENDBRANCH   4   7
BRANCH   1  15
ATOM     15  C   UNL     1       6.451   6.093  16.608  0.00  0.00    +0.000 C 
BRANCH  15  16
ATOM     16  C   UNL     1       6.716   4.598  16.790  0.00  0.00    +0.000 C 
BRANCH  16  19
ATOM     17  O   UNL     1       5.579   3.913  19.240  0.00  0.00    +0.000 OA
ATOM     18  C   UNL     1       5.002   3.550  18.219  0.00  0.00    +0.000 C 
ATOM     19  N   UNL     1       5.499   3.824  16.962  0.00  0.00    +0.000 N 
ATOM     20  H   UNL     1       5.042   3.450  16.143  0.00  0.00    +0.000 HD
BRANCH  18  21
ATOM     21  C   UNL     1       3.707   2.732  18.234  0.00  0.00    +0.000 C 
ATOM     22  C   UNL     1       3.163   2.559  19.662  0.00  0.00    +0.000 C 
ATOM     23  C   UNL     1       2.548   3.841  20.230  0.00  0.00    +0.000 C 
ATOM     24  C   UNL     1       1.513   4.448  19.292  0.00  0.00    +0.000 C 
ATOM     25  C   UNL     1       2.059   4.634  17.880  0.00  0.00    +0.000 C 
ATOM     26  C   UNL     1       2.630   3.334  17.320  0.00  0.00    +0.000 C 
ENDBRANCH  18  21
ENDBRANCH  16  19
ENDBRANCH  15  16
ENDBRANCH   1  15
TORSDOF 5
ENDMDL
MODEL 2
REMARK VINA RESULT:      -8.7      0.987      1.589
REMARK  Name = 
REMARK  5 active torsions:
REMARK  status: ('A' for Active; 'I' for Inactive)
REMARK    1  A    between atoms: C_2  and  C_19
REMARK    2  A    between atoms: N_3  and  C_4
REMARK    3  A    between atoms: C_4  and  C_5
REMARK    4  A    between atoms: C_5  and  C_6
REMARK    5  A    between atoms: C_9  and  C_10
REMARK                            x       y       z     vdW  Elec       q    Type
REMARK                         _______ _______ _______ _____ _____    ______ ____
ROOT
ATOM      1  C   UNL     1       7.174   6.925  17.388  0.00  0.00    +0.000 A 
ATOM      2  N   UNL     1       7.833   6.383  18.417  0.00  0.00    +0.000 NA
ATOM      3  N   UNL     1       8.473   7.451  18.915  0.00  0.00    +0.000 N 
ATOM      4  C   UNL     1       8.196   8.592  18.212  0.00  0.00    +0.000 A 
ATOM      5  N   UNL     1       7.356   8.276  17.246  0.00  0.00    +0.000 NA
ATOM      6  H   UNL     1       9.071   7.331  19.725  0.00  0.00    +0.000 HD
ENDROOT
BRANCH   4   7
ATOM      7  C   UNL     1       8.741   9.918  18.498  0.00  0.00    +0.000 A 
ATOM      8  C   UNL     1       8.469  10.983  17.620  0.00  0.00    +0.000 A 
ATOM      9  C   UNL     1       8.981  12.266  17.859  0.00  0.00    +0.000 A 
ATOM     10  C   UNL     1       9.771  12.483  18.983  0.00  0.00    +0.000 A 
ATOM     11  F   UNL     1      10.264  13.706  19.216  0.00  0.00    +0.000 F 
ATOM     12  C   UNL     1      10.046  11.442  19.855  0.00  0.00    +0.000 A 
ATOM     13  F   UNL     1      10.808  11.648  20.937  0.00  0.00    +0.000 F 
ATOM     14  C   UNL     1       9.538  10.165  19.623  0.00  0.00    +0.000 A 
ENDBRANCH   4   7
BRANCH   1  15
ATOM     15  C   UNL     1       6.295   6.128  16.491  0.00  0.00    +0.000 C 
BRANCH  15  16
ATOM     16  C   UNL     1       5.725   4.890  17.185  0.00  0.00    +0.000 C 
BRANCH  16  19
ATOM     17  O   UNL     1       4.554   5.426  19.656  0.00  0.00    +0.000 OA
ATOM     18  C   UNL     1       3.811   5.276  18.690  0.00  0.00    +0.000 C 
ATOM     19  N   UNL     1       4.296   4.989  17.432  0.00  0.00    +0.000 N 
ATOM     20  H   UNL     1       3.658   4.799  16.672  0.00  0.00    +0.000 HD
BRANCH  18  21
ATOM     21  C   UNL     1       2.284   5.355  18.787  0.00  0.00    +0.000 C 
ATOM     22  C   UNL     1       1.604   4.357  17.834  0.00  0.00    +0.000 C 
ATOM     23  C   UNL     1       1.719   2.904  18.302  0.00  0.00    +0.000 C 
ATOM     24  C   UNL     1       1.257   2.726  19.743  0.00  0.00    +0.000 C 
ATOM     25  C   UNL     1       1.944   3.704  20.690  0.00  0.00    +0.000 C 
ATOM     26  C   UNL     1       1.782   5.149  20.223  0.00  0.00    +0.000 C 
ENDBRANCH  18  21
ENDBRANCH  16  19
ENDBRANCH  15  16
ENDBRANCH   1  15
TORSDOF 5
ENDMDL
MODEL 3
REMARK VINA RESULT:      -8.7      1.019      1.413
REMARK  Name = 
REMARK  5 active torsions:
REMARK  status: ('A' for Active; 'I' for Inactive)
REMARK    1  A    between atoms: C_2  and  C_19
REMARK    2  A    between atoms: N_3  and  C_4
REMARK    3  A    between atoms: C_4  and  C_5
REMARK    4  A    between atoms: C_5  and  C_6
REMARK    5  A    between atoms: C_9  and  C_10
REMARK                            x       y       z     vdW  Elec       q    Type
REMARK                         _______ _______ _______ _____ _____    ______ ____
ROOT
ATOM      1  C   UNL     1       7.692   6.934  18.117  0.00  0.00    +0.000 A 
ATOM      2  N   UNL     1       7.014   7.471  17.098  0.00  0.00    +0.000 NA
ATOM      3  N   UNL     1       7.405   8.752  17.164  0.00  0.00    +0.000 N 
ATOM      4  C   UNL     1       8.294   8.969  18.182  0.00  0.00    +0.000 A 
ATOM      5  N   UNL     1       8.500   7.815  18.788  0.00  0.00    +0.000 NA
ATOM      6  H   UNL     1       7.033   9.414  16.492  0.00  0.00    +0.000 HD
ENDROOT
BRANCH   4   7
ATOM      7  C   UNL     1       8.899  10.255  18.521  0.00  0.00    +0.000 A 
ATOM      8  C   UNL     1       8.659  11.371  17.699  0.00  0.00    +0.000 A 
ATOM      9  C   UNL     1       9.228  12.619  17.989  0.00  0.00    +0.000 A 
ATOM     10  C   UNL     1      10.044  12.749  19.108  0.00  0.00    +0.000 A 
ATOM     11  F   UNL     1      10.592  13.938  19.390  0.00  0.00    +0.000 F 
ATOM     12  C   UNL     1      10.287  11.656  19.926  0.00  0.00    +0.000 A 
ATOM     13  F   UNL     1      11.073  11.779  21.003  0.00  0.00    +0.000 F 
ATOM     14  C   UNL     1       9.722  10.415  19.643  0.00  0.00    +0.000 A 
ENDBRANCH   4   7
BRANCH   1  15
ATOM     15  C   UNL     1       7.595   5.493  18.472  0.00  0.00    +0.000 C 
BRANCH  15  16
ATOM     16  C   UNL     1       6.359   5.186  19.319  0.00  0.00    +0.000 C 
BRANCH  16  19
ATOM     17  O   UNL     1       4.922   2.805  19.490  0.00  0.00    +0.000 OA
ATOM     18  C   UNL     1       4.536   3.650  18.688  0.00  0.00    +0.000 C 
ATOM     19  N   UNL     1       5.194   4.850  18.518  0.00  0.00    +0.000 N 
ATOM     20  H   UNL     1       4.897   5.495  17.800  0.00  0.00    +0.000 HD
BRANCH  18  21
ATOM     21  C   UNL     1       3.322   3.449  17.775  0.00  0.00    +0.000 C 
ATOM     22  C   UNL     1       2.653   2.086  18.017  0.00  0.00    +0.000 C 
ATOM     23  C   UNL     1       1.875   2.022  19.333  0.00  0.00    +0.000 C 
ATOM     24  C   UNL     1       0.891   3.177  19.476  0.00  0.00    +0.000 C 
ATOM     25  C   UNL     1       1.560   4.529  19.253  0.00  0.00    +0.000 C 
ATOM     26  C   UNL     1       2.296   4.581  17.917  0.00  0.00    +0.000 C 
ENDBRANCH  18  21
ENDBRANCH  16  19
ENDBRANCH  15  16
ENDBRANCH   1  15
TORSDOF 5
ENDMDL
MODEL 4
REMARK VINA RESULT:      -8.6      1.257      1.875
REMARK  Name = 
REMARK  5 active torsions:
REMARK  status: ('A' for Active; 'I' for Inactive)
REMARK    1  A    between atoms: C_2  and  C_19
REMARK    2  A    between atoms: N_3  and  C_4
REMARK    3  A    between atoms: C_4  and  C_5
REMARK    4  A    between atoms: C_5  and  C_6
REMARK    5  A    between atoms: C_9  and  C_10
REMARK                            x       y       z     vdW  Elec       q    Type
REMARK                         _______ _______ _______ _____ _____    ______ ____
ROOT
ATOM      1  C   UNL     1       7.751   6.975  18.109  0.00  0.00    +0.000 A 
ATOM      2  N   UNL     1       7.116   7.609  17.118  0.00  0.00    +0.000 NA
ATOM      3  N   UNL     1       7.558   8.864  17.279  0.00  0.00    +0.000 N 
ATOM      4  C   UNL     1       8.435   8.973  18.325  0.00  0.00    +0.000 A 
ATOM      5  N   UNL     1       8.581   7.773  18.853  0.00  0.00    +0.000 NA
ATOM      6  H   UNL     1       7.227   9.586  16.649  0.00  0.00    +0.000 HD
ENDROOT
BRANCH   4   7
ATOM      7  C   UNL     1       9.086  10.206  18.762  0.00  0.00    +0.000 A 
ATOM      8  C   UNL     1       9.361  10.398  20.129  0.00  0.00    +0.000 A 
ATOM      9  C   UNL     1       9.978  11.570  20.584  0.00  0.00    +0.000 A 
ATOM     10  C   UNL     1      10.320  12.558  19.667  0.00  0.00    +0.000 A 
ATOM     11  F   UNL     1      10.909  13.682  20.097  0.00  0.00    +0.000 F 
ATOM     12  C   UNL     1      10.055  12.381  18.318  0.00  0.00    +0.000 A 
ATOM     13  F   UNL     1      10.382  13.331  17.433  0.00  0.00    +0.000 F 
ATOM     14  C   UNL     1       9.443  11.216  17.860  0.00  0.00    +0.000 A 
ENDBRANCH   4   7
BRANCH   1  15
ATOM     15  C   UNL     1       7.588   5.519  18.362  0.00  0.00    +0.000 C 
BRANCH  15  16
ATOM     16  C   UNL     1       6.462   5.224  19.355  0.00  0.00    +0.000 C 
BRANCH  16  19
ATOM     17  O   UNL     1       4.240   5.326  17.676  0.00  0.00    +0.000 OA
ATOM     18  C   UNL     1       4.577   4.230  18.114  0.00  0.00    +0.000 C 
ATOM     19  N   UNL     1       5.651   4.083  18.967  0.00  0.00    +0.000 N 
ATOM     20  H   UNL     1       5.860   3.180  19.369  0.00  0.00    +0.000 HD
BRANCH  18  21
ATOM     21  C   UNL     1       3.828   2.933  17.794  0.00  0.00    +0.000 C 
ATOM     22  C   UNL     1       3.684   2.041  19.038  0.00  0.00    +0.000 C 
ATOM     23  C   UNL     1       2.660   2.572  20.044  0.00  0.00    +0.000 C 
ATOM     24  C   UNL     1       1.314   2.869  19.393  0.00  0.00    +0.000 C 
ATOM     25  C   UNL     1       1.457   3.768  18.169  0.00  0.00    +0.000 C 
ATOM     26  C   UNL     1       2.454   3.197  17.163  0.00  0.00    +0.000 C 
ENDBRANCH  18  21
ENDBRANCH  16  19
ENDBRANCH  15  16
ENDBRANCH   1  15
TORSDOF 5
ENDMDL
MODEL 5
REMARK VINA RESULT:      -8.6      0.530      1.343
REMARK  Name = 
REMARK  5 active torsions:
REMARK  status: ('A' for Active; 'I' for Inactive)
REMARK    1  A    between atoms: C_2  and  C_19
REMARK    2  A    between atoms: N_3  and  C_4
REMARK    3  A    between atoms: C_4  and  C_5
REMARK    4  A    between atoms: C_5  and  C_6
REMARK    5  A    between atoms: C_9  and  C_10
REMARK                            x       y       z     vdW  Elec       q    Type
REMARK                         _______ _______ _______ _____ _____    ______ ____
ROOT
ATOM      1  C   UNL     1       7.348   6.940  17.519  0.00  0.00    +0.000 A 
ATOM      2  N   UNL     1       7.957   6.422  18.591  0.00  0.00    +0.000 NA
ATOM      3  N   UNL     1       8.573   7.502  19.093  0.00  0.00    +0.000 N 
ATOM      4  C   UNL     1       8.331   8.627  18.352  0.00  0.00    +0.000 A 
ATOM      5  N   UNL     1       7.537   8.288  17.354  0.00  0.00    +0.000 NA
ATOM      6  H   UNL     1       9.132   7.401  19.933  0.00  0.00    +0.000 HD
ENDROOT
BRANCH   4   7
ATOM      7  C   UNL     1       8.863   9.959  18.632  0.00  0.00    +0.000 A 
ATOM      8  C   UNL     1       9.494  10.207  19.866  0.00  0.00    +0.000 A 
ATOM      9  C   UNL     1      10.009  11.474  20.171  0.00  0.00    +0.000 A 
ATOM     10  C   UNL     1       9.892  12.498  19.238  0.00  0.00    +0.000 A 
ATOM     11  F   UNL     1      10.381  13.711  19.525  0.00  0.00    +0.000 F 
ATOM     12  C   UNL     1       9.273  12.266  18.019  0.00  0.00    +0.000 A 
ATOM     13  F   UNL     1       9.157  13.251  17.120  0.00  0.00    +0.000 F 
ATOM     14  C   UNL     1       8.760  11.008  17.710  0.00  0.00    +0.000 A 
ENDBRANCH   4   7
BRANCH   1  15
ATOM     15  C   UNL     1       6.513   6.122  16.599  0.00  0.00    +0.000 C 
BRANCH  15  16
ATOM     16  C   UNL     1       6.741   4.621  16.787  0.00  0.00    +0.000 C 
BRANCH  16  19
ATOM     17  O   UNL     1       5.614   3.992  19.256  0.00  0.00    +0.000 OA
ATOM     18  C   UNL     1       5.017   3.633  18.246  0.00  0.00    +0.000 C 
ATOM     19  N   UNL     1       5.506   3.881  16.981  0.00  0.00    +0.000 N 
ATOM     20  H   UNL     1       5.031   3.511  16.170  0.00  0.00    +0.000 HD
BRANCH  18  21
ATOM     21  C   UNL     1       3.701   2.849  18.284  0.00  0.00    +0.000 C 
ATOM     22  C   UNL     1       3.187   2.675  19.722  0.00  0.00    +0.000 C 
ATOM     23  C   UNL     1       2.620   3.966  20.319  0.00  0.00    +0.000 C 
ATOM     24  C   UNL     1       1.579   4.610  19.411  0.00  0.00    +0.000 C 
ATOM     25  C   UNL     1       2.096   4.797  17.989  0.00  0.00    +0.000 C 
ATOM     26  C   UNL     1       2.619   3.488  17.402  0.00  0.00    +0.000 C 
ENDBRANCH  18  21
ENDBRANCH  16  19
ENDBRANCH  15  16
ENDBRANCH   1  15
TORSDOF 5
ENDMDL
MODEL 6
REMARK VINA RESULT:      -8.5      1.026      1.630
REMARK  Name = 
REMARK  5 active torsions:
REMARK  status: ('A' for Active; 'I' for Inactive)
REMARK    1  A    between atoms: C_2  and  C_19
REMARK    2  A    between atoms: N_3  and  C_4
REMARK    3  A    between atoms: C_4  and  C_5
REMARK    4  A    between atoms: C_5  and  C_6
REMARK    5  A    between atoms: C_9  and  C_10
REMARK                            x       y       z     vdW  Elec       q    Type
REMARK                         _______ _______ _______ _____ _____    ______ ____
ROOT
ATOM      1  C   UNL     1       7.595   6.766  18.025  0.00  0.00    +0.000 A 
ATOM      2  N   UNL     1       6.985   7.304  16.964  0.00  0.00    +0.000 NA
ATOM      3  N   UNL     1       7.383   8.581  17.049  0.00  0.00    +0.000 N 
ATOM      4  C   UNL     1       8.209   8.795  18.119  0.00  0.00    +0.000 A 
ATOM      5  N   UNL     1       8.367   7.643  18.742  0.00  0.00    +0.000 NA
ATOM      6  H   UNL     1       7.059   9.243  16.353  0.00  0.00    +0.000 HD
ENDROOT
BRANCH   4   7
ATOM      7  C   UNL     1       8.803  10.078  18.489  0.00  0.00    +0.000 A 
ATOM      8  C   UNL     1       8.687  11.174  17.613  0.00  0.00    +0.000 A 
ATOM      9  C   UNL     1       9.250  12.417  17.932  0.00  0.00    +0.000 A 
ATOM     10  C   UNL     1       9.935  12.564  19.133  0.00  0.00    +0.000 A 
ATOM     11  F   UNL     1      10.477  13.749  19.442  0.00  0.00    +0.000 F 
ATOM     12  C   UNL     1      10.056  11.492  20.004  0.00  0.00    +0.000 A 
ATOM     13  F   UNL     1      10.716  11.631  21.161  0.00  0.00    +0.000 F 
ATOM     14  C   UNL     1       9.496  10.255  19.693  0.00  0.00    +0.000 A 
ENDBRANCH   4   7
BRANCH   1  15
ATOM     15  C   UNL     1       7.464   5.328  18.381  0.00  0.00    +0.000 C 
BRANCH  15  16
ATOM     16  C   UNL     1       6.499   4.585  17.454  0.00  0.00    +0.000 C 
BRANCH  16  19
ATOM     17  O   UNL     1       4.274   3.264  18.486  0.00  0.00    +0.000 OA
ATOM     18  C   UNL     1       4.113   4.398  18.044  0.00  0.00    +0.000 C 
ATOM     19  N   UNL     1       5.150   5.122  17.496  0.00  0.00    +0.000 N 
ATOM     20  H   UNL     1       4.973   6.023  17.074  0.00  0.00    +0.000 HD
BRANCH  18  21
ATOM     21  C   UNL     1       2.753   5.103  18.021  0.00  0.00    +0.000 C 
ATOM     22  C   UNL     1       1.603   4.108  17.793  0.00  0.00    +0.000 C 
ATOM     23  C   UNL     1       1.310   3.237  19.017  0.00  0.00    +0.000 C 
ATOM     24  C   UNL     1       1.108   4.067  20.279  0.00  0.00    +0.000 C 
ATOM     25  C   UNL     1       2.257   5.041  20.513  0.00  0.00    +0.000 C 
ATOM     26  C   UNL     1       2.505   5.925  19.294  0.00  0.00    +0.000 C 
ENDBRANCH  18  21
ENDBRANCH  16  19
ENDBRANCH  15  16
ENDBRANCH   1  15
TORSDOF 5
ENDMDL
MODEL 7
REMARK VINA RESULT:      -8.5      1.242      2.156
REMARK  Name = 
REMARK  5 active torsions:
REMARK  status: ('A' for Active; 'I' for Inactive)
REMARK    1  A    between atoms: C_2  and  C_19
REMARK    2  A    between atoms: N_3  and  C_4
REMARK    3  A    between atoms: C_4  and  C_5
REMARK    4  A    between atoms: C_5  and  C_6
REMARK    5  A    between atoms: C_9  and  C_10
REMARK                            x       y       z     vdW  Elec       q    Type
REMARK                         _______ _______ _______ _____ _____    ______ ____
ROOT
ATOM      1  C   UNL     1       7.703   6.924  18.172  0.00  0.00    +0.000 A 
ATOM      2  N   UNL     1       7.103   7.537  17.146  0.00  0.00    +0.000 NA
ATOM      3  N   UNL     1       7.577   8.784  17.269  0.00  0.00    +0.000 N 
ATOM      4  C   UNL     1       8.438   8.909  18.326  0.00  0.00    +0.000 A 
ATOM      5  N   UNL     1       8.542   7.726  18.901  0.00  0.00    +0.000 NA
ATOM      6  H   UNL     1       7.278   9.490  16.606  0.00  0.00    +0.000 HD
ENDROOT
BRANCH   4   7
ATOM      7  C   UNL     1       9.116  10.139  18.728  0.00  0.00    +0.000 A 
ATOM      8  C   UNL     1       9.343  10.391  20.094  0.00  0.00    +0.000 A 
ATOM      9  C   UNL     1       9.984  11.563  20.517  0.00  0.00    +0.000 A 
ATOM     10  C   UNL     1      10.399  12.490  19.567  0.00  0.00    +0.000 A 
ATOM     11  F   UNL     1      11.010  13.613  19.965  0.00  0.00    +0.000 F 
ATOM     12  C   UNL     1      10.182  12.254  18.218  0.00  0.00    +0.000 A 
ATOM     13  F   UNL     1      10.579  13.146  17.302  0.00  0.00    +0.000 F 
ATOM     14  C   UNL     1       9.547  11.089  17.793  0.00  0.00    +0.000 A 
ENDBRANCH   4   7
BRANCH   1  15
ATOM     15  C   UNL     1       7.495   5.483  18.477  0.00  0.00    +0.000 C 
BRANCH  15  16
ATOM     16  C   UNL     1       6.495   4.826  17.524  0.00  0.00    +0.000 C 
BRANCH  16  19
ATOM     17  O   UNL     1       4.583   3.866  19.309  0.00  0.00    +0.000 OA
ATOM     18  C   UNL     1       4.275   4.817  18.598  0.00  0.00    +0.000 C 
ATOM     19  N   UNL     1       5.147   5.349  17.671  0.00  0.00    +0.000 N 
ATOM     20  H   UNL     1       4.841   6.083  17.049  0.00  0.00    +0.000 HD
BRANCH  18  21
ATOM     21  C   UNL     1       2.895   5.482  18.637  0.00  0.00    +0.000 C 
ATOM     22  C   UNL     1       1.858   4.681  17.832  0.00  0.00    +0.000 C 
ATOM     23  C   UNL     1       1.430   3.385  18.523  0.00  0.00    +0.000 C 
ATOM     24  C   UNL     1       0.983   3.620  19.960  0.00  0.00    +0.000 C 
ATOM     25  C   UNL     1       2.019   4.399  20.763  0.00  0.00    +0.000 C 
ATOM     26  C   UNL     1       2.400   5.706  20.073  0.00  0.00    +0.000 C 
ENDBRANCH  18  21
ENDBRANCH  16  19
ENDBRANCH  15  16
ENDBRANCH   1  15
TORSDOF 5
ENDMDL
MODEL 8
REMARK VINA RESULT:      -8.4      1.122      1.960
REMARK  Name = 
REMARK  5 active torsions:
REMARK  status: ('A' for Active; 'I' for Inactive)
REMARK    1  A    between atoms: C_2  and  C_19
REMARK    2  A    between atoms: N_3  and  C_4
REMARK    3  A    between atoms: C_4  and  C_5
REMARK    4  A    between atoms: C_5  and  C_6
REMARK    5  A    between atoms: C_9  and  C_10
REMARK                            x       y       z     vdW  Elec       q    Type
REMARK                         _______ _______ _______ _____ _____    ______ ____
ROOT
ATOM      1  C   UNL     1       7.296   6.743  17.438  0.00  0.00    +0.000 A 
ATOM      2  N   UNL     1       7.906   6.278  18.533  0.00  0.00    +0.000 NA
ATOM      3  N   UNL     1       8.481   7.392  19.009  0.00  0.00    +0.000 N 
ATOM      4  C   UNL     1       8.214   8.485  18.229  0.00  0.00    +0.000 A 
ATOM      5  N   UNL     1       7.445   8.090  17.232  0.00  0.00    +0.000 NA
ATOM      6  H   UNL     1       9.031   7.336  19.858  0.00  0.00    +0.000 HD
ENDROOT
BRANCH   4   7
ATOM      7  C   UNL     1       8.700   9.841  18.474  0.00  0.00    +0.000 A 
ATOM      8  C   UNL     1       9.520  10.092  19.590  0.00  0.00    +0.000 A 
ATOM      9  C   UNL     1       9.999  11.382  19.859  0.00  0.00    +0.000 A 
ATOM     10  C   UNL     1       9.654  12.426  19.008  0.00  0.00    +0.000 A 
ATOM     11  F   UNL     1      10.108  13.660  19.261  0.00  0.00    +0.000 F 
ATOM     12  C   UNL     1       8.848  12.191  17.905  0.00  0.00    +0.000 A 
ATOM     13  F   UNL     1       8.513  13.194  17.085  0.00  0.00    +0.000 F 
ATOM     14  C   UNL     1       8.371  10.911  17.632  0.00  0.00    +0.000 A 
ENDBRANCH   4   7
BRANCH   1  15
ATOM     15  C   UNL     1       6.500   5.870  16.534  0.00  0.00    +0.000 C 
BRANCH  15  16
ATOM     16  C   UNL     1       5.824   4.720  17.283  0.00  0.00    +0.000 C 
BRANCH  16  19
ATOM     17  O   UNL     1       3.838   2.781  17.524  0.00  0.00    +0.000 OA
ATOM     18  C   UNL     1       3.518   3.953  17.698  0.00  0.00    +0.000 C 
ATOM     19  N   UNL     1       4.426   4.984  17.580  0.00  0.00    +0.000 N 
ATOM     20  H   UNL     1       4.119   5.942  17.657  0.00  0.00    +0.000 HD
BRANCH  18  21
ATOM     21  C   UNL     1       2.086   4.391  18.023  0.00  0.00    +0.000 C 
ATOM     22  C   UNL     1       1.196   3.192  18.390  0.00  0.00    +0.000 C 
ATOM     23  C   UNL     1       1.504   2.616  19.774  0.00  0.00    +0.000 C 
ATOM     24  C   UNL     1       1.498   3.688  20.858  0.00  0.00    +0.000 C 
ATOM     25  C   UNL     1       2.394   4.869  20.500  0.00  0.00    +0.000 C 
ATOM     26  C   UNL     1       2.042   5.451  19.133  0.00  0.00    +0.000 C 
ENDBRANCH  18  21
ENDBRANCH  16  19
ENDBRANCH  15  16
ENDBRANCH   1  15
TORSDOF 5
ENDMDL
MODEL 9
REMARK VINA RESULT:      -8.4      1.011      1.252
REMARK  Name = 
REMARK  5 active torsions:
REMARK  status: ('A' for Active; 'I' for Inactive)
REMARK    1  A    between atoms: C_2  and  C_19
REMARK    2  A    between atoms: N_3  and  C_4
REMARK    3  A    between atoms: C_4  and  C_5
REMARK    4  A    between atoms: C_5  and  C_6
REMARK    5  A    between atoms: C_9  and  C_10
REMARK                            x       y       z     vdW  Elec       q    Type
REMARK                         _______ _______ _______ _____ _____    ______ ____
ROOT
ATOM      1  C   UNL     1       7.868   6.953  18.259  0.00  0.00    +0.000 A 
ATOM      2  N   UNL     1       7.235   7.469  17.201  0.00  0.00    +0.000 NA
ATOM      3  N   UNL     1       7.603   8.756  17.274  0.00  0.00    +0.000 N 
ATOM      4  C   UNL     1       8.434   8.997  18.334  0.00  0.00    +0.000 A 
ATOM      5  N   UNL     1       8.626   7.853  18.962  0.00  0.00    +0.000 NA
ATOM      6  H   UNL     1       7.256   9.406  16.577  0.00  0.00    +0.000 HD
ENDROOT
BRANCH   4   7
ATOM      7  C   UNL     1       9.001  10.296  18.691  0.00  0.00    +0.000 A 
ATOM      8  C   UNL     1       9.064  11.314  17.721  0.00  0.00    +0.000 A 
ATOM      9  C   UNL     1       9.607  12.570  18.025  0.00  0.00    +0.000 A 
ATOM     10  C   UNL     1      10.091  12.807  19.307  0.00  0.00    +0.000 A 
ATOM     11  F   UNL     1      10.613  14.005  19.603  0.00  0.00    +0.000 F 
ATOM     12  C   UNL     1      10.035  11.813  20.271  0.00  0.00    +0.000 A 
ATOM     13  F   UNL     1      10.502  12.038  21.505  0.00  0.00    +0.000 F 
ATOM     14  C   UNL     1       9.494  10.564  19.974  0.00  0.00    +0.000 A 
ENDBRANCH   4   7
BRANCH   1  15
ATOM     15  C   UNL     1       7.775   5.514  18.624  0.00  0.00    +0.000 C 
BRANCH  15  16
ATOM     16  C   UNL     1       7.048   4.690  17.560  0.00  0.00    +0.000 C 
BRANCH  16  19
ATOM     17  O   UNL     1       4.637   4.154  16.271  0.00  0.00    +0.000 OA
ATOM     18  C   UNL     1       4.813   3.665  17.383  0.00  0.00    +0.000 C 
ATOM     19  N   UNL     1       5.965   3.891  18.106  0.00  0.00    +0.000 N 
ATOM     20  H   UNL     1       6.051   3.536  19.048  0.00  0.00    +0.000 HD
BRANCH  18  21
ATOM     21  C   UNL     1       3.769   2.796  18.092  0.00  0.00    +0.000 C 
ATOM     22  C   UNL     1       3.732   3.075  19.604  0.00  0.00    +0.000 C 
ATOM     23  C   UNL     1       3.085   4.418  19.952  0.00  0.00    +0.000 C 
ATOM     24  C   UNL     1       1.714   4.581  19.306  0.00  0.00    +0.000 C 
ATOM     25  C   UNL     1       1.755   4.320  17.804  0.00  0.00    +0.000 C 
ATOM     26  C   UNL     1       2.369   2.959  17.484  0.00  0.00    +0.000 C 
ENDBRANCH  18  21
ENDBRANCH  16  19
ENDBRANCH  15  16
ENDBRANCH   1  15
TORSDOF 5
ENDMDL
