MODEL 1
REMARK VINA RESULT:      -8.0      0.000      0.000
REMARK  Name = 
REMARK  5 active torsions:
REMARK  status: ('A' for Active; 'I' for Inactive)
REMARK    1  A    between atoms: N_6  and  C1*_7
REMARK    2  A    between atoms: C3*_9  and  O3*_10
REMARK    3  A    between atoms: C4*_11  and  C5*_12
REMARK    4  A    between atoms: C5*_12  and  O5*_13
REMARK    5  A    between atoms: C_16  and  C_17
REMARK                            x       y       z     vdW  Elec       q    Type
REMARK                         _______ _______ _______ _____ _____    ______ ____
ROOT
ATOM      1  O   UNL     1       8.077   4.442  17.080  0.00  0.00    +0.000 OA
ATOM      2  C   UNL     1       6.872   4.280  17.231  0.00  0.00    +0.000 A 
ATOM      3  N   UNL     1       6.351   4.017  18.471  0.00  0.00    +0.000 N 
ATOM      4  C   UNL     1       5.046   3.704  18.756  0.00  0.00    +0.000 A 
ATOM      5  O   UNL     1       4.710   3.413  19.900  0.00  0.00    +0.000 OA
ATOM      6  N   UNL     1       4.178   3.733  17.672  0.00  0.00    +0.000 N 
ATOM      7  C   UNL     1       4.618   4.088  16.411  0.00  0.00    +0.000 A 
ATOM      8  C   UNL     1       5.903   4.348  16.131  0.00  0.00    +0.000 A 
ATOM      9  H   UNL     1       7.006   3.956  19.235  0.00  0.00    +0.000 HD
ENDROOT
BRANCH   6  10
ATOM     10  C1* UNL     1       2.790   3.357  17.915  0.00  0.00    +0.000 C 
ATOM     11  C2* UNL     1       2.625   2.052  18.678  0.00  0.00    +0.000 C 
ATOM     12  C3* UNL     1       1.291   2.250  19.363  0.00  0.00    +0.000 C 
ATOM     13  C4* UNL     1       1.274   3.746  19.667  0.00  0.00    +0.000 C 
ATOM     14  O4* UNL     1       2.114   4.380  18.674  0.00  0.00    +0.000 OA
BRANCH  12  15
ATOM     15  O3* UNL     1       0.238   1.890  18.469  0.00  0.00    +0.000 OA
ATOM     16  H3* UNL     1      -0.407   2.617  18.408  0.00  0.00    +0.000 HD
ENDBRANCH  12  15
BRANCH  13  17
ATOM     17  C5* UNL     1       1.848   4.069  21.050  0.00  0.00    +0.000 C 
BRANCH  17  18
ATOM     18  O5* UNL     1       2.592   5.285  21.007  0.00  0.00    +0.000 OA
ATOM     19  H5* UNL     1       3.482   5.061  20.675  0.00  0.00    +0.000 HD
ENDBRANCH  17  18
ENDBRANCH  13  17
ENDBRANCH   6  10
BRANCH   8  20
ATOM     20  C   UNL     1       6.371   4.660  14.759  0.00  0.00    +0.000 C 
ATOM     21  F   UNL     1       7.486   5.416  14.662  0.00  0.00    +0.000 F 
ATOM     22  F   UNL     1       6.621   3.512  14.069  0.00  0.00    +0.000 F 
ATOM     23  F   UNL     1       5.401   5.309  14.057  0.00  0.00    +0.000 F 
ENDBRANCH   8  20
TORSDOF 5
ENDMDL
MODEL 2
REMARK VINA RESULT:      -7.8      1.824      2.185
REMARK  Name = 
REMARK  5 active torsions:
REMARK  status: ('A' for Active; 'I' for Inactive)
REMARK    1  A    between atoms: N_6  and  C1*_7
REMARK    2  A    between atoms: C3*_9  and  O3*_10
REMARK    3  A    between atoms: C4*_11  and  C5*_12
REMARK    4  A    between atoms: C5*_12  and  O5*_13
REMARK    5  A    between atoms: C_16  and  C_17
REMARK                            x       y       z     vdW  Elec       q    Type
REMARK                         _______ _______ _______ _____ _____    ______ ____
ROOT
ATOM      1  O   UNL     1       6.528   7.217  16.726  0.00  0.00    +0.000 OA
ATOM      2  C   UNL     1       5.548   6.502  16.903  0.00  0.00    +0.000 A 
ATOM      3  N   UNL     1       4.411   7.002  17.482  0.00  0.00    +0.000 N 
ATOM      4  C   UNL     1       3.297   6.287  17.839  0.00  0.00    +0.000 A 
ATOM      5  O   UNL     1       2.364   6.833  18.421  0.00  0.00    +0.000 OA
ATOM      6  N   UNL     1       3.325   4.938  17.506  0.00  0.00    +0.000 N 
ATOM      7  C   UNL     1       4.399   4.389  16.832  0.00  0.00    +0.000 A 
ATOM      8  C   UNL     1       5.504   5.084  16.527  0.00  0.00    +0.000 A 
ATOM      9  H   UNL     1       4.431   7.972  17.756  0.00  0.00    +0.000 HD
ENDROOT
BRANCH   6  10
ATOM     10  C1* UNL     1       2.184   4.124  17.911  0.00  0.00    +0.000 C 
ATOM     11  C2* UNL     1       2.477   2.632  17.969  0.00  0.00    +0.000 C 
ATOM     12  C3* UNL     1       1.481   2.153  19.002  0.00  0.00    +0.000 C 
ATOM     13  C4* UNL     1       1.396   3.327  19.975  0.00  0.00    +0.000 C 
ATOM     14  O4* UNL     1       1.721   4.517  19.218  0.00  0.00    +0.000 OA
BRANCH  12  15
ATOM     15  O3* UNL     1       0.222   1.908  18.373  0.00  0.00    +0.000 OA
ATOM     16  H3* UNL     1      -0.154   2.746  18.050  0.00  0.00    +0.000 HD
ENDBRANCH  12  15
BRANCH  13  17
ATOM     17  C5* UNL     1       2.400   3.208  21.125  0.00  0.00    +0.000 C 
BRANCH  17  18
ATOM     18  O5* UNL     1       1.835   2.468  22.205  0.00  0.00    +0.000 OA
ATOM     19  H5* UNL     1       0.872   2.620  22.178  0.00  0.00    +0.000 HD
ENDBRANCH  17  18
ENDBRANCH  13  17
ENDBRANCH   6  10
BRANCH   8  20
ATOM     20  C   UNL     1       6.677   4.463  15.866  0.00  0.00    +0.000 C 
ATOM     21  F   UNL     1       7.195   5.130  14.811  0.00  0.00    +0.000 F 
ATOM     22  F   UNL     1       7.695   4.300  16.757  0.00  0.00    +0.000 F 
ATOM     23  F   UNL     1       6.371   3.213  15.421  0.00  0.00    +0.000 F 
ENDBRANCH   8  20
TORSDOF 5
ENDMDL
MODEL 3
REMARK VINA RESULT:      -7.7      2.068      2.572
REMARK  Name = 
REMARK  5 active torsions:
REMARK  status: ('A' for Active; 'I' for Inactive)
REMARK    1  A    between atoms: N_6  and  C1*_7
REMARK    2  A    between atoms: C3*_9  and  O3*_10
REMARK    3  A    between atoms: C4*_11  and  C5*_12
REMARK    4  A    between atoms: C5*_12  and  O5*_13
REMARK    5  A    between atoms: C_16  and  C_17
REMARK                            x       y       z     vdW  Elec       q    Type
REMARK                         _______ _______ _______ _____ _____    ______ ____
ROOT
ATOM      1  O   UNL     1       5.692   7.153  15.538  0.00  0.00    +0.000 OA
ATOM      2  C   UNL     1       4.941   6.518  16.269  0.00  0.00    +0.000 A 
ATOM      3  N   UNL     1       4.080   7.162  17.118  0.00  0.00    +0.000 N 
ATOM      4  C   UNL     1       3.277   6.575  18.062  0.00  0.00    +0.000 A 
ATOM      5  O   UNL     1       2.599   7.264  18.820  0.00  0.00    +0.000 OA
ATOM      6  N   UNL     1       3.310   5.187  18.090  0.00  0.00    +0.000 N 
ATOM      7  C   UNL     1       4.081   4.471  17.195  0.00  0.00    +0.000 A 
ATOM      8  C   UNL     1       4.898   5.051  16.305  0.00  0.00    +0.000 A 
ATOM      9  H   UNL     1       4.106   8.170  17.112  0.00  0.00    +0.000 HD
ENDROOT
BRANCH   6  10
ATOM     10  C1* UNL     1       2.512   4.518  19.112  0.00  0.00    +0.000 C 
ATOM     11  C2* UNL     1       1.835   3.242  18.634  0.00  0.00    +0.000 C 
ATOM     12  C3* UNL     1       1.704   2.452  19.917  0.00  0.00    +0.000 C 
ATOM     13  C4* UNL     1       2.958   2.841  20.696  0.00  0.00    +0.000 C 
ATOM     14  O4* UNL     1       3.333   4.164  20.243  0.00  0.00    +0.000 OA
BRANCH  12  15
ATOM     15  O3* UNL     1       0.519   2.853  20.605  0.00  0.00    +0.000 OA
ATOM     16  H3* UNL     1       0.407   3.818  20.535  0.00  0.00    +0.000 HD
ENDBRANCH  12  15
BRANCH  13  17
ATOM     17  C5* UNL     1       4.133   1.897  20.425  0.00  0.00    +0.000 C 
BRANCH  17  18
ATOM     18  O5* UNL     1       5.230   2.617  19.867  0.00  0.00    +0.000 OA
ATOM     19  H5* UNL     1       5.493   2.147  19.054  0.00  0.00    +0.000 HD
ENDBRANCH  17  18
ENDBRANCH  13  17
ENDBRANCH   6  10
BRANCH   8  20
ATOM     20  C   UNL     1       5.771   4.269  15.398  0.00  0.00    +0.000 C 
ATOM     21  F   UNL     1       7.076   4.617  15.372  0.00  0.00    +0.000 F 
ATOM     22  F   UNL     1       5.731   2.946  15.721  0.00  0.00    +0.000 F 
ATOM     23  F   UNL     1       5.324   4.348  14.114  0.00  0.00    +0.000 F 
ENDBRANCH   8  20
TORSDOF 5
ENDMDL
MODEL 4
REMARK VINA RESULT:      -7.6      1.598      1.880
REMARK  Name = 
REMARK  5 active torsions:
REMARK  status: ('A' for Active; 'I' for Inactive)
REMARK    1  A    between atoms: N_6  and  C1*_7
REMARK    2  A    between atoms: C3*_9  and  O3*_10
REMARK    3  A    between atoms: C4*_11  and  C5*_12
REMARK    4  A    between atoms: C5*_12  and  O5*_13
REMARK    5  A    between atoms: C_16  and  C_17
REMARK                            x       y       z     vdW  Elec       q    Type
REMARK                         _______ _______ _______ _____ _____    ______ ____
ROOT
ATOM      1  O   UNL     1       6.535   7.128  16.705  0.00  0.00    +0.000 OA
ATOM      2  C   UNL     1       5.541   6.430  16.870  0.00  0.00    +0.000 A 
ATOM      3  N   UNL     1       4.449   6.913  17.544  0.00  0.00    +0.000 N 
ATOM      4  C   UNL     1       3.329   6.203  17.893  0.00  0.00    +0.000 A 
ATOM      5  O   UNL     1       2.444   6.725  18.564  0.00  0.00    +0.000 OA
ATOM      6  N   UNL     1       3.297   4.887  17.448  0.00  0.00    +0.000 N 
ATOM      7  C   UNL     1       4.320   4.366  16.679  0.00  0.00    +0.000 A 
ATOM      8  C   UNL     1       5.432   5.051  16.379  0.00  0.00    +0.000 A 
ATOM      9  H   UNL     1       4.514   7.855  17.896  0.00  0.00    +0.000 HD
ENDROOT
BRANCH   6  10
ATOM     10  C1* UNL     1       2.150   4.076  17.839  0.00  0.00    +0.000 C 
ATOM     11  C2* UNL     1       2.503   2.647  18.225  0.00  0.00    +0.000 C 
ATOM     12  C3* UNL     1       1.387   2.291  19.181  0.00  0.00    +0.000 C 
ATOM     13  C4* UNL     1       1.097   3.613  19.888  0.00  0.00    +0.000 C 
ATOM     14  O4* UNL     1       1.474   4.665  18.968  0.00  0.00    +0.000 OA
BRANCH  12  15
ATOM     15  O3* UNL     1       0.252   1.837  18.442  0.00  0.00    +0.000 OA
ATOM     16  H3* UNL     1       0.537   1.222  17.743  0.00  0.00    +0.000 HD
ENDBRANCH  12  15
BRANCH  13  17
ATOM     17  C5* UNL     1       1.919   3.785  21.168  0.00  0.00    +0.000 C 
BRANCH  17  18
ATOM     18  O5* UNL     1       2.474   5.098  21.229  0.00  0.00    +0.000 OA
ATOM     19  H5* UNL     1       2.532   5.336  22.174  0.00  0.00    +0.000 HD
ENDBRANCH  17  18
ENDBRANCH  13  17
ENDBRANCH   6  10
BRANCH   8  20
ATOM     20  C   UNL     1       6.552   4.455  15.612  0.00  0.00    +0.000 C 
ATOM     21  F   UNL     1       7.738   4.364  16.252  0.00  0.00    +0.000 F 
ATOM     22  F   UNL     1       6.233   3.193  15.208  0.00  0.00    +0.000 F 
ATOM     23  F   UNL     1       6.780   5.160  14.470  0.00  0.00    +0.000 F 
ENDBRANCH   8  20
TORSDOF 5
ENDMDL
MODEL 5
REMARK VINA RESULT:      -7.5      3.733      6.249
REMARK  Name = 
REMARK  5 active torsions:
REMARK  status: ('A' for Active; 'I' for Inactive)
REMARK    1  A    between atoms: N_6  and  C1*_7
REMARK    2  A    between atoms: C3*_9  and  O3*_10
REMARK    3  A    between atoms: C4*_11  and  C5*_12
REMARK    4  A    between atoms: C5*_12  and  O5*_13
REMARK    5  A    between atoms: C_16  and  C_17
REMARK                            x       y       z     vdW  Elec       q    Type
REMARK                         _______ _______ _______ _____ _____    ______ ____
ROOT
ATOM      1  O   UNL     1       0.890   4.563  20.766  0.00  0.00    +0.000 OA
ATOM      2  C   UNL     1       1.888   4.907  20.144  0.00  0.00    +0.000 A 
ATOM      3  N   UNL     1       1.973   6.159  19.592  0.00  0.00    +0.000 N 
ATOM      4  C   UNL     1       2.976   6.625  18.781  0.00  0.00    +0.000 A 
ATOM      5  O   UNL     1       2.906   7.745  18.284  0.00  0.00    +0.000 OA
ATOM      6  N   UNL     1       4.029   5.744  18.573  0.00  0.00    +0.000 N 
ATOM      7  C   UNL     1       4.055   4.503  19.179  0.00  0.00    +0.000 A 
ATOM      8  C   UNL     1       3.050   4.036  19.934  0.00  0.00    +0.000 A 
ATOM      9  H   UNL     1       1.177   6.765  19.718  0.00  0.00    +0.000 HD
ENDROOT
BRANCH   6  10
ATOM     10  C1* UNL     1       5.095   6.175  17.676  0.00  0.00    +0.000 C 
ATOM     11  C2* UNL     1       6.454   5.566  17.990  0.00  0.00    +0.000 C 
ATOM     12  C3* UNL     1       7.131   5.585  16.637  0.00  0.00    +0.000 C 
ATOM     13  C4* UNL     1       5.980   5.337  15.667  0.00  0.00    +0.000 C 
ATOM     14  O4* UNL     1       4.780   5.828  16.312  0.00  0.00    +0.000 OA
BRANCH  12  15
ATOM     15  O3* UNL     1       7.726   6.865  16.421  0.00  0.00    +0.000 OA
ATOM     16  H3* UNL     1       7.031   7.539  16.316  0.00  0.00    +0.000 HD
ENDBRANCH  12  15
BRANCH  13  17
ATOM     17  C5* UNL     1       5.779   3.849  15.364  0.00  0.00    +0.000 C 
BRANCH  17  18
ATOM     18  O5* UNL     1       6.433   3.497  14.147  0.00  0.00    +0.000 OA
ATOM     19  H5* UNL     1       7.280   3.981  14.131  0.00  0.00    +0.000 HD
ENDBRANCH  17  18
ENDBRANCH  13  17
ENDBRANCH   6  10
BRANCH   8  20
ATOM     20  C   UNL     1       3.062   2.674  20.521  0.00  0.00    +0.000 C 
ATOM     21  F   UNL     1       2.853   2.592  21.853  0.00  0.00    +0.000 F 
ATOM     22  F   UNL     1       2.114   1.894  19.932  0.00  0.00    +0.000 F 
ATOM     23  F   UNL     1       4.251   2.057  20.277  0.00  0.00    +0.000 F 
ENDBRANCH   8  20
TORSDOF 5
ENDMDL
MODEL 6
REMARK VINA RESULT:      -7.5      1.853      2.976
REMARK  Name = 
REMARK  5 active torsions:
REMARK  status: ('A' for Active; 'I' for Inactive)
REMARK    1  A    between atoms: N_6  and  C1*_7
REMARK    2  A    between atoms: C3*_9  and  O3*_10
REMARK    3  A    between atoms: C4*_11  and  C5*_12
REMARK    4  A    between atoms: C5*_12  and  O5*_13
REMARK    5  A    between atoms: C_16  and  C_17
REMARK                            x       y       z     vdW  Elec       q    Type
REMARK                         _______ _______ _______ _____ _____    ______ ____
ROOT
ATOM      1  O   UNL     1       8.244   5.474  13.873  0.00  0.00    +0.000 OA
ATOM      2  C   UNL     1       7.381   5.389  14.739  0.00  0.00    +0.000 A 
ATOM      3  N   UNL     1       7.514   6.055  15.929  0.00  0.00    +0.000 N 
ATOM      4  C   UNL     1       6.684   5.954  17.016  0.00  0.00    +0.000 A 
ATOM      5  O   UNL     1       6.947   6.545  18.059  0.00  0.00    +0.000 OA
ATOM      6  N   UNL     1       5.571   5.142  16.840  0.00  0.00    +0.000 N 
ATOM      7  C   UNL     1       5.323   4.518  15.632  0.00  0.00    +0.000 A 
ATOM      8  C   UNL     1       6.162   4.586  14.588  0.00  0.00    +0.000 A 
ATOM      9  H   UNL     1       8.352   6.602  16.051  0.00  0.00    +0.000 HD
ENDROOT
BRANCH   6  10
ATOM     10  C1* UNL     1       4.686   4.961  17.984  0.00  0.00    +0.000 C 
ATOM     11  C2* UNL     1       3.206   4.969  17.632  0.00  0.00    +0.000 C 
ATOM     12  C3* UNL     1       2.611   4.123  18.736  0.00  0.00    +0.000 C 
ATOM     13  C4* UNL     1       3.701   3.090  19.010  0.00  0.00    +0.000 C 
ATOM     14  O4* UNL     1       4.958   3.706  18.641  0.00  0.00    +0.000 OA
BRANCH  12  15
ATOM     15  O3* UNL     1       2.368   4.938  19.883  0.00  0.00    +0.000 OA
ATOM     16  H3* UNL     1       2.378   5.878  19.628  0.00  0.00    +0.000 HD
ENDBRANCH  12  15
BRANCH  13  17
ATOM     17  C5* UNL     1       3.531   1.822  18.168  0.00  0.00    +0.000 C 
BRANCH  17  18
ATOM     18  O5* UNL     1       2.153   1.601  17.875  0.00  0.00    +0.000 OA
ATOM     19  H5* UNL     1       1.729   1.318  18.707  0.00  0.00    +0.000 HD
ENDBRANCH  17  18
ENDBRANCH  13  17
ENDBRANCH   6  10
BRANCH   8  20
ATOM     20  C   UNL     1       5.917   3.854  13.322  0.00  0.00    +0.000 C 
ATOM     21  F   UNL     1       6.617   4.269  12.244  0.00  0.00    +0.000 F 
ATOM     22  F   UNL     1       6.193   2.530  13.476  0.00  0.00    +0.000 F 
ATOM     23  F   UNL     1       4.601   3.919  12.978  0.00  0.00    +0.000 F 
ENDBRANCH   8  20
TORSDOF 5
ENDMDL
MODEL 7
REMARK VINA RESULT:      -7.4      1.619      2.553
REMARK  Name = 
REMARK  5 active torsions:
REMARK  status: ('A' for Active; 'I' for Inactive)
REMARK    1  A    between atoms: N_6  and  C1*_7
REMARK    2  A    between atoms: C3*_9  and  O3*_10
REMARK    3  A    between atoms: C4*_11  and  C5*_12
REMARK    4  A    between atoms: C5*_12  and  O5*_13
REMARK    5  A    between atoms: C_16  and  C_17
REMARK                            x       y       z     vdW  Elec       q    Type
REMARK                         _______ _______ _______ _____ _____    ______ ____
ROOT
ATOM      1  O   UNL     1       7.864   6.618  16.171  0.00  0.00    +0.000 OA
ATOM      2  C   UNL     1       7.094   6.009  16.905  0.00  0.00    +0.000 A 
ATOM      3  N   UNL     1       7.321   5.941  18.255  0.00  0.00    +0.000 N 
ATOM      4  C   UNL     1       6.607   5.201  19.163  0.00  0.00    +0.000 A 
ATOM      5  O   UNL     1       6.950   5.160  20.341  0.00  0.00    +0.000 OA
ATOM      6  N   UNL     1       5.512   4.521  18.646  0.00  0.00    +0.000 N 
ATOM      7  C   UNL     1       5.169   4.625  17.312  0.00  0.00    +0.000 A 
ATOM      8  C   UNL     1       5.897   5.313  16.421  0.00  0.00    +0.000 A 
ATOM      9  H   UNL     1       8.146   6.405  18.600  0.00  0.00    +0.000 HD
ENDROOT
BRANCH   6  10
ATOM     10  C1* UNL     1       4.752   3.679  19.563  0.00  0.00    +0.000 C 
ATOM     11  C2* UNL     1       3.552   4.372  20.192  0.00  0.00    +0.000 C 
ATOM     12  C3* UNL     1       2.628   3.209  20.478  0.00  0.00    +0.000 C 
ATOM     13  C4* UNL     1       2.901   2.252  19.320  0.00  0.00    +0.000 C 
ATOM     14  O4* UNL     1       4.258   2.508  18.883  0.00  0.00    +0.000 OA
BRANCH  12  15
ATOM     15  O3* UNL     1       2.977   2.620  21.732  0.00  0.00    +0.000 OA
ATOM     16  H3* UNL     1       3.816   2.997  22.051  0.00  0.00    +0.000 HD
ENDBRANCH  12  15
BRANCH  13  17
ATOM     17  C5* UNL     1       1.968   2.491  18.130  0.00  0.00    +0.000 C 
BRANCH  17  18
ATOM     18  O5* UNL     1       0.735   1.800  18.319  0.00  0.00    +0.000 OA
ATOM     19  H5* UNL     1       0.918   0.852  18.179  0.00  0.00    +0.000 HD
ENDBRANCH  17  18
ENDBRANCH  13  17
ENDBRANCH   6  10
BRANCH   8  20
ATOM     20  C   UNL     1       5.553   5.359  14.979  0.00  0.00    +0.000 C 
ATOM     21  F   UNL     1       4.978   6.497  14.534  0.00  0.00    +0.000 F 
ATOM     22  F   UNL     1       6.667   5.166  14.218  0.00  0.00    +0.000 F 
ATOM     23  F   UNL     1       4.705   4.344  14.655  0.00  0.00    +0.000 F 
ENDBRANCH   8  20
TORSDOF 5
ENDMDL
MODEL 8
REMARK VINA RESULT:      -7.4      3.613      6.028
REMARK  Name = 
REMARK  5 active torsions:
REMARK  status: ('A' for Active; 'I' for Inactive)
REMARK    1  A    between atoms: N_6  and  C1*_7
REMARK    2  A    between atoms: C3*_9  and  O3*_10
REMARK    3  A    between atoms: C4*_11  and  C5*_12
REMARK    4  A    between atoms: C5*_12  and  O5*_13
REMARK    5  A    between atoms: C_16  and  C_17
REMARK                            x       y       z     vdW  Elec       q    Type
REMARK                         _______ _______ _______ _____ _____    ______ ____
ROOT
ATOM      1  O   UNL     1       1.240   2.302  20.104  0.00  0.00    +0.000 OA
ATOM      2  C   UNL     1       2.147   2.826  19.470  0.00  0.00    +0.000 A 
ATOM      3  N   UNL     1       2.817   2.129  18.498  0.00  0.00    +0.000 N 
ATOM      4  C   UNL     1       3.918   2.558  17.802  0.00  0.00    +0.000 A 
ATOM      5  O   UNL     1       4.481   1.813  17.004  0.00  0.00    +0.000 OA
ATOM      6  N   UNL     1       4.330   3.855  18.081  0.00  0.00    +0.000 N 
ATOM      7  C   UNL     1       3.640   4.648  18.977  0.00  0.00    +0.000 A 
ATOM      8  C   UNL     1       2.592   4.208  19.688  0.00  0.00    +0.000 A 
ATOM      9  H   UNL     1       2.530   1.175  18.345  0.00  0.00    +0.000 HD
ENDROOT
BRANCH   6  10
ATOM     10  C1* UNL     1       5.528   4.338  17.403  0.00  0.00    +0.000 C 
ATOM     11  C2* UNL     1       5.485   5.816  17.044  0.00  0.00    +0.000 C 
ATOM     12  C3* UNL     1       6.952   6.183  17.032  0.00  0.00    +0.000 C 
ATOM     13  C4* UNL     1       7.541   5.305  18.133  0.00  0.00    +0.000 C 
ATOM     14  O4* UNL     1       6.692   4.136  18.229  0.00  0.00    +0.000 OA
BRANCH  12  15
ATOM     15  O3* UNL     1       7.512   5.864  15.757  0.00  0.00    +0.000 OA
ATOM     16  H3* UNL     1       7.526   4.898  15.636  0.00  0.00    +0.000 HD
ENDBRANCH  12  15
BRANCH  13  17
ATOM     17  C5* UNL     1       7.546   6.000  19.497  0.00  0.00    +0.000 C 
BRANCH  17  18
ATOM     18  O5* UNL     1       8.269   5.222  20.449  0.00  0.00    +0.000 OA
ATOM     19  H5* UNL     1       8.452   4.361  20.030  0.00  0.00    +0.000 HD
ENDBRANCH  17  18
ENDBRANCH  13  17
ENDBRANCH   6  10
BRANCH   8  20
ATOM     20  C   UNL     1       1.905   5.049  20.697  0.00  0.00    +0.000 C 
ATOM     21  F   UNL     1       0.555   5.001  20.702  0.00  0.00    +0.000 F 
ATOM     22  F   UNL     1       2.308   4.711  21.953  0.00  0.00    +0.000 F 
ATOM     23  F   UNL     1       2.245   6.359  20.541  0.00  0.00    +0.000 F 
ENDBRANCH   8  20
TORSDOF 5
ENDMDL
MODEL 9
REMARK VINA RESULT:      -7.3      1.543      2.464
REMARK  Name = 
REMARK  5 active torsions:
REMARK  status: ('A' for Active; 'I' for Inactive)
REMARK    1  A    between atoms: N_6  and  C1*_7
REMARK    2  A    between atoms: C3*_9  and  O3*_10
REMARK    3  A    between atoms: C4*_11  and  C5*_12
REMARK    4  A    between atoms: C5*_12  and  O5*_13
REMARK    5  A    between atoms: C_16  and  C_17
REMARK                            x       y       z     vdW  Elec       q    Type
REMARK                         _______ _______ _______ _____ _____    ______ ____
ROOT
ATOM      1  O   UNL     1       7.735   5.725  15.740  0.00  0.00    +0.000 OA
ATOM      2  C   UNL     1       6.924   5.357  16.582  0.00  0.00    +0.000 A 
ATOM      3  N   UNL     1       7.145   5.584  17.915  0.00  0.00    +0.000 N 
ATOM      4  C   UNL     1       6.380   5.126  18.957  0.00  0.00    +0.000 A 
ATOM      5  O   UNL     1       6.720   5.332  20.119  0.00  0.00    +0.000 OA
ATOM      6  N   UNL     1       5.239   4.423  18.592  0.00  0.00    +0.000 N 
ATOM      7  C   UNL     1       4.903   4.242  17.264  0.00  0.00    +0.000 A 
ATOM      8  C   UNL     1       5.678   4.654  16.251  0.00  0.00    +0.000 A 
ATOM      9  H   UNL     1       8.002   6.056  18.159  0.00  0.00    +0.000 HD
ENDROOT
BRANCH   6  10
ATOM     10  C1* UNL     1       4.420   3.870  19.665  0.00  0.00    +0.000 C 
ATOM     11  C2* UNL     1       3.203   4.714  20.015  0.00  0.00    +0.000 C 
ATOM     12  C3* UNL     1       2.245   3.679  20.563  0.00  0.00    +0.000 C 
ATOM     13  C4* UNL     1       2.558   2.438  19.730  0.00  0.00    +0.000 C 
ATOM     14  O4* UNL     1       3.939   2.558  19.310  0.00  0.00    +0.000 OA
BRANCH  12  15
ATOM     15  O3* UNL     1       2.522   3.458  21.946  0.00  0.00    +0.000 OA
ATOM     16  H3* UNL     1       2.324   4.265  22.455  0.00  0.00    +0.000 HD
ENDBRANCH  12  15
BRANCH  13  17
ATOM     17  C5* UNL     1       1.688   2.342  18.473  0.00  0.00    +0.000 C 
BRANCH  17  18
ATOM     18  O5* UNL     1       2.421   1.745  17.405  0.00  0.00    +0.000 OA
ATOM     19  H5* UNL     1       2.041   0.858  17.263  0.00  0.00    +0.000 HD
ENDBRANCH  17  18
ENDBRANCH  13  17
ENDBRANCH   6  10
BRANCH   8  20
ATOM     20  C   UNL     1       5.339   4.391  14.832  0.00  0.00    +0.000 C 
ATOM     21  F   UNL     1       6.227   3.657  14.127  0.00  0.00    +0.000 F 
ATOM     22  F   UNL     1       4.144   3.744  14.740  0.00  0.00    +0.000 F 
ATOM     23  F   UNL     1       5.179   5.561  14.152  0.00  0.00    +0.000 F 
ENDBRANCH   8  20
TORSDOF 5
ENDMDL
