MODEL 1
REMARK VINA RESULT:      -7.5      0.000      0.000
REMARK  Name = 
REMARK  11 active torsions:
REMARK  status: ('A' for Active; 'I' for Inactive)
REMARK    1  A    between atoms: C_1  and  O_2
REMARK    2  A    between atoms: O_2  and  C_3
REMARK    3  A    between atoms: C_3  and  C_4
REMARK    4  A    between atoms: C_4  and  N_5
REMARK    5  A    between atoms: N_5  and  C_6
REMARK    6  A    between atoms: C_6  and  C_7
REMARK    7  A    between atoms: C_7  and  C_8
REMARK    8  A    between atoms: N_10  and  C_11
REMARK    9  A    between atoms: C_15  and  C_16
REMARK   10  A    between atoms: C_19  and  O_20
REMARK   11  A    between atoms: O_20  and  C_21
REMARK                            x       y       z     vdW  Elec       q    Type
REMARK                         _______ _______ _______ _____ _____    ______ ____
ROOT
ATOM      1  C   UNL     1       4.733   5.407  18.400  0.00  0.00    +0.000 A 
ATOM      2  S   UNL     1       5.152   3.766  18.198  0.00  0.00    +0.000 S 
ATOM      3  C   UNL     1       3.571   3.263  18.551  0.00  0.00    +0.000 A 
ATOM      4  C   UNL     1       2.718   4.323  18.809  0.00  0.00    +0.000 A 
ATOM      5  C   UNL     1       3.398   5.589  18.717  0.00  0.00    +0.000 A 
ATOM      6  C   UNL     1       1.266   4.056  19.095  0.00  0.00    +0.000 C 
ATOM      7  C   UNL     1       1.029   2.564  19.425  0.00  0.00    +0.000 C 
ATOM      8  N   UNL     1       1.722   1.648  18.496  0.00  0.00    +0.000 NA
ATOM      9  C   UNL     1       3.186   1.815  18.597  0.00  0.00    +0.000 C 
ATOM     10  H   UNL     1       1.453   1.896  17.543  0.00  0.00    +0.000 HD
ENDROOT
BRANCH   5  11
ATOM     11  C   UNL     1       2.726   6.940  18.871  0.00  0.00    +0.000 A 
ATOM     12  N   UNL     1       2.194   7.318  20.007  0.00  0.00    +0.000 NA
ATOM     13  C   UNL     1       1.565   8.557  19.881  0.00  0.00    +0.000 A 
ATOM     14  C   UNL     1       0.873   9.264  20.900  0.00  0.00    +0.000 A 
ATOM     15  C   UNL     1       0.282  10.496  20.572  0.00  0.00    +0.000 A 
ATOM     16  C   UNL     1       0.370  11.024  19.285  0.00  0.00    +0.000 A 
ATOM     17  C   UNL     1       1.055  10.344  18.281  0.00  0.00    +0.000 A 
ATOM     18  C   UNL     1       1.646   9.114  18.605  0.00  0.00    +0.000 A 
ATOM     19  S   UNL     1       2.549   8.074  17.589  0.00  0.00    +0.000 S 
BRANCH  14  20
ATOM     20  O   UNL     1       0.828   8.685  22.141  0.00  0.00    +0.000 OA
ATOM     21  C   UNL     1       0.150   9.394  23.169  0.00  0.00    +0.000 C 
ENDBRANCH  14  20
ENDBRANCH   5  11
BRANCH   1  24
ATOM     22  C   UNL     1       6.185   6.857  17.143  0.00  0.00    +0.000 C 
ATOM     23  O   UNL     1       5.728   6.587  16.038  0.00  0.00    +0.000 OA
ATOM     24  N   UNL     1       5.767   6.325  18.356  0.00  0.00    +0.000 N 
ATOM     25  H   UNL     1       5.813   6.971  19.137  0.00  0.00    +0.000 HD
BRANCH  22  26
ATOM     26  C   UNL     1       7.271   7.899  17.308  0.00  0.00    +0.000 C 
BRANCH  26  27
ATOM     27  C   UNL     1       8.200   7.503  18.449  0.00  0.00    +0.000 C 
BRANCH  27  28
ATOM     28  N   UNL     1       8.833   8.687  19.038  0.00  0.00    +0.000 NA
ATOM     29  H   UNL     1       8.423   8.863  19.958  0.00  0.00    +0.000 HD
BRANCH  28  30
ATOM     30  C   UNL     1       8.599   9.857  18.181  0.00  0.00    +0.000 C 
BRANCH  30  31
ATOM     31  C   UNL     1       9.656  10.946  18.397  0.00  0.00    +0.000 C 
BRANCH  31  33
ATOM     32  C   UNL     1       9.899  13.231  18.923  0.00  0.00    +0.000 C 
ATOM     33  O   UNL     1       8.993  12.205  18.543  0.00  0.00    +0.000 OA
ENDBRANCH  31  33
ENDBRANCH  30  31
ENDBRANCH  28  30
ENDBRANCH  27  28
ENDBRANCH  26  27
ENDBRANCH  22  26
ENDBRANCH   1  24
TORSDOF 9
ENDMDL
MODEL 2
REMARK VINA RESULT:      -7.1      2.428      3.764
REMARK  Name = 
REMARK  11 active torsions:
REMARK  status: ('A' for Active; 'I' for Inactive)
REMARK    1  A    between atoms: C_1  and  O_2
REMARK    2  A    between atoms: O_2  and  C_3
REMARK    3  A    between atoms: C_3  and  C_4
REMARK    4  A    between atoms: C_4  and  N_5
REMARK    5  A    between atoms: N_5  and  C_6
REMARK    6  A    between atoms: C_6  and  C_7
REMARK    7  A    between atoms: C_7  and  C_8
REMARK    8  A    between atoms: N_10  and  C_11
REMARK    9  A    between atoms: C_15  and  C_16
REMARK   10  A    between atoms: C_19  and  O_20
REMARK   11  A    between atoms: O_20  and  C_21
REMARK                            x       y       z     vdW  Elec       q    Type
REMARK                         _______ _______ _______ _____ _____    ______ ____
ROOT
ATOM      1  C   UNL     1       4.121   5.331  18.251  0.00  0.00    +0.000 A 
ATOM      2  S   UNL     1       4.396   3.649  18.171  0.00  0.00    +0.000 S 
ATOM      3  C   UNL     1       3.015   3.324  19.101  0.00  0.00    +0.000 A 
ATOM      4  C   UNL     1       2.334   4.474  19.465  0.00  0.00    +0.000 A 
ATOM      5  C   UNL     1       2.980   5.659  18.963  0.00  0.00    +0.000 A 
ATOM      6  C   UNL     1       1.059   4.363  20.255  0.00  0.00    +0.000 C 
ATOM      7  C   UNL     1       0.904   2.951  20.865  0.00  0.00    +0.000 C 
ATOM      8  N   UNL     1       1.210   1.869  19.908  0.00  0.00    +0.000 NA
ATOM      9  C   UNL     1       2.625   1.930  19.490  0.00  0.00    +0.000 C 
ATOM     10  H   UNL     1       0.640   2.011  19.073  0.00  0.00    +0.000 HD
ENDROOT
BRANCH   5  11
ATOM     11  C   UNL     1       2.443   7.068  19.126  0.00  0.00    +0.000 A 
ATOM     12  N   UNL     1       1.962   7.491  20.269  0.00  0.00    +0.000 NA
ATOM     13  C   UNL     1       1.453   8.785  20.151  0.00  0.00    +0.000 A 
ATOM     14  C   UNL     1       0.842   9.553  21.178  0.00  0.00    +0.000 A 
ATOM     15  C   UNL     1       0.369  10.837  20.859  0.00  0.00    +0.000 A 
ATOM     16  C   UNL     1       0.493  11.357  19.572  0.00  0.00    +0.000 A 
ATOM     17  C   UNL     1       1.100  10.618  18.559  0.00  0.00    +0.000 A 
ATOM     18  C   UNL     1       1.574   9.335  18.875  0.00  0.00    +0.000 A 
ATOM     19  S   UNL     1       2.362   8.216  17.848  0.00  0.00    +0.000 S 
BRANCH  14  20
ATOM     20  O   UNL     1       0.755   8.977  22.419  0.00  0.00    +0.000 OA
ATOM     21  C   UNL     1      -0.128   9.577  23.357  0.00  0.00    +0.000 C 
ENDBRANCH  14  20
ENDBRANCH   5  11
BRANCH   1  24
ATOM     22  C   UNL     1       6.357   6.216  18.328  0.00  0.00    +0.000 C 
ATOM     23  O   UNL     1       6.712   5.612  19.334  0.00  0.00    +0.000 OA
ATOM     24  N   UNL     1       5.106   6.149  17.728  0.00  0.00    +0.000 N 
ATOM     25  H   UNL     1       5.121   6.225  16.717  0.00  0.00    +0.000 HD
BRANCH  22  26
ATOM     26  C   UNL     1       7.321   7.102  17.566  0.00  0.00    +0.000 C 
BRANCH  26  27
ATOM     27  C   UNL     1       7.490   6.580  16.144  0.00  0.00    +0.000 C 
BRANCH  27  28
ATOM     28  N   UNL     1       7.438   5.115  16.120  0.00  0.00    +0.000 NA
ATOM     29  H   UNL     1       8.364   4.743  16.340  0.00  0.00    +0.000 HD
BRANCH  28  30
ATOM     30  C   UNL     1       7.044   4.651  14.782  0.00  0.00    +0.000 C 
BRANCH  30  31
ATOM     31  C   UNL     1       5.533   4.418  14.677  0.00  0.00    +0.000 C 
BRANCH  31  33
ATOM     32  C   UNL     1       6.414   3.627  12.640  0.00  0.00    +0.000 C 
ATOM     33  O   UNL     1       5.233   3.948  13.361  0.00  0.00    +0.000 OA
ENDBRANCH  31  33
ENDBRANCH  30  31
ENDBRANCH  28  30
ENDBRANCH  27  28
ENDBRANCH  26  27
ENDBRANCH  22  26
ENDBRANCH   1  24
TORSDOF 9
ENDMDL
MODEL 3
REMARK VINA RESULT:      -6.9      2.875      7.807
REMARK  Name = 
REMARK  11 active torsions:
REMARK  status: ('A' for Active; 'I' for Inactive)
REMARK    1  A    between atoms: C_1  and  O_2
REMARK    2  A    between atoms: O_2  and  C_3
REMARK    3  A    between atoms: C_3  and  C_4
REMARK    4  A    between atoms: C_4  and  N_5
REMARK    5  A    between atoms: N_5  and  C_6
REMARK    6  A    between atoms: C_6  and  C_7
REMARK    7  A    between atoms: C_7  and  C_8
REMARK    8  A    between atoms: N_10  and  C_11
REMARK    9  A    between atoms: C_15  and  C_16
REMARK   10  A    between atoms: C_19  and  O_20
REMARK   11  A    between atoms: O_20  and  C_21
REMARK                            x       y       z     vdW  Elec       q    Type
REMARK                         _______ _______ _______ _____ _____    ______ ____
ROOT
ATOM      1  C   UNL     1       1.797   6.553  20.451  0.00  0.00    +0.000 A 
ATOM      2  S   UNL     1       0.713   7.703  21.095  0.00  0.00    +0.000 S 
ATOM      3  C   UNL     1       1.106   8.829  19.888  0.00  0.00    +0.000 A 
ATOM      4  C   UNL     1       2.041   8.344  18.989  0.00  0.00    +0.000 A 
ATOM      5  C   UNL     1       2.448   7.001  19.315  0.00  0.00    +0.000 A 
ATOM      6  C   UNL     1       2.468   9.198  17.828  0.00  0.00    +0.000 C 
ATOM      7  C   UNL     1       2.049  10.672  18.038  0.00  0.00    +0.000 C 
ATOM      8  N   UNL     1       0.659  10.816  18.518  0.00  0.00    +0.000 NA
ATOM      9  C   UNL     1       0.504  10.201  19.852  0.00  0.00    +0.000 C 
ATOM     10  H   UNL     1       0.046  10.312  17.877  0.00  0.00    +0.000 HD
ENDROOT
BRANCH   5  11
ATOM     11  C   UNL     1       3.402   6.165  18.483  0.00  0.00    +0.000 A 
ATOM     12  N   UNL     1       4.696   6.375  18.503  0.00  0.00    +0.000 NA
ATOM     13  C   UNL     1       5.354   5.542  17.599  0.00  0.00    +0.000 A 
ATOM     14  C   UNL     1       6.750   5.504  17.341  0.00  0.00    +0.000 A 
ATOM     15  C   UNL     1       7.225   4.605  16.371  0.00  0.00    +0.000 A 
ATOM     16  C   UNL     1       6.359   3.764  15.674  0.00  0.00    +0.000 A 
ATOM     17  C   UNL     1       4.989   3.785  15.926  0.00  0.00    +0.000 A 
ATOM     18  C   UNL     1       4.512   4.681  16.894  0.00  0.00    +0.000 A 
ATOM     19  S   UNL     1       2.898   4.916  17.414  0.00  0.00    +0.000 S 
BRANCH  14  20
ATOM     20  O   UNL     1       7.541   6.359  18.064  0.00  0.00    +0.000 OA
ATOM     21  C   UNL     1       7.743   7.663  17.538  0.00  0.00    +0.000 C 
ENDBRANCH  14  20
ENDBRANCH   5  11
BRANCH   1  24
ATOM     22  C   UNL     1       1.304   4.235  20.866  0.00  0.00    +0.000 C 
ATOM     23  O   UNL     1       0.489   4.102  19.961  0.00  0.00    +0.000 OA
ATOM     24  N   UNL     1       1.991   5.399  21.188  0.00  0.00    +0.000 N 
ATOM     25  H   UNL     1       2.935   5.249  21.528  0.00  0.00    +0.000 HD
BRANCH  22  26
ATOM     26  C   UNL     1       1.709   3.061  21.735  0.00  0.00    +0.000 C 
BRANCH  26  27
ATOM     27  C   UNL     1       3.123   2.618  21.380  0.00  0.00    +0.000 C 
BRANCH  27  28
ATOM     28  N   UNL     1       3.258   2.427  19.932  0.00  0.00    +0.000 NA
ATOM     29  H   UNL     1       2.468   1.875  19.592  0.00  0.00    +0.000 HD
BRANCH  28  30
ATOM     30  C   UNL     1       4.504   1.705  19.637  0.00  0.00    +0.000 C 
BRANCH  30  31
ATOM     31  C   UNL     1       5.371   1.523  20.888  0.00  0.00    +0.000 C 
BRANCH  31  33
ATOM     32  C   UNL     1       6.297  -0.206  22.195  0.00  0.00    +0.000 C 
ATOM     33  O   UNL     1       5.894   0.192  20.892  0.00  0.00    +0.000 OA
ENDBRANCH  31  33
ENDBRANCH  30  31
ENDBRANCH  28  30
ENDBRANCH  27  28
ENDBRANCH  26  27
ENDBRANCH  22  26
ENDBRANCH   1  24
TORSDOF 9
ENDMDL
MODEL 4
REMARK VINA RESULT:      -6.8      1.184      1.239
REMARK  Name = 
REMARK  11 active torsions:
REMARK  status: ('A' for Active; 'I' for Inactive)
REMARK    1  A    between atoms: C_1  and  O_2
REMARK    2  A    between atoms: O_2  and  C_3
REMARK    3  A    between atoms: C_3  and  C_4
REMARK    4  A    between atoms: C_4  and  N_5
REMARK    5  A    between atoms: N_5  and  C_6
REMARK    6  A    between atoms: C_6  and  C_7
REMARK    7  A    between atoms: C_7  and  C_8
REMARK    8  A    between atoms: N_10  and  C_11
REMARK    9  A    between atoms: C_15  and  C_16
REMARK   10  A    between atoms: C_19  and  O_20
REMARK   11  A    between atoms: O_20  and  C_21
REMARK                            x       y       z     vdW  Elec       q    Type
REMARK                         _______ _______ _______ _____ _____    ______ ____
ROOT
ATOM      1  C   UNL     1       4.742   5.172  18.129  0.00  0.00    +0.000 A 
ATOM      2  S   UNL     1       5.044   3.501  17.954  0.00  0.00    +0.000 S 
ATOM      3  C   UNL     1       3.466   3.111  18.437  0.00  0.00    +0.000 A 
ATOM      4  C   UNL     1       2.701   4.230  18.720  0.00  0.00    +0.000 A 
ATOM      5  C   UNL     1       3.448   5.447  18.535  0.00  0.00    +0.000 A 
ATOM      6  C   UNL     1       1.261   4.064  19.120  0.00  0.00    +0.000 C 
ATOM      7  C   UNL     1       0.959   2.601  19.518  0.00  0.00    +0.000 C 
ATOM      8  N   UNL     1       1.523   1.615  18.573  0.00  0.00    +0.000 NA
ATOM      9  C   UNL     1       2.998   1.692  18.562  0.00  0.00    +0.000 C 
ATOM     10  H   UNL     1       1.199   1.852  17.634  0.00  0.00    +0.000 HD
ENDROOT
BRANCH   5  11
ATOM     11  C   UNL     1       2.873   6.842  18.690  0.00  0.00    +0.000 A 
ATOM     12  N   UNL     1       2.307   7.231  19.806  0.00  0.00    +0.000 NA
ATOM     13  C   UNL     1       1.782   8.518  19.681  0.00  0.00    +0.000 A 
ATOM     14  C   UNL     1       1.087   9.251  20.679  0.00  0.00    +0.000 A 
ATOM     15  C   UNL     1       0.612  10.534  20.354  0.00  0.00    +0.000 A 
ATOM     16  C   UNL     1       0.816  11.085  19.091  0.00  0.00    +0.000 A 
ATOM     17  C   UNL     1       1.505  10.380  18.107  0.00  0.00    +0.000 A 
ATOM     18  C   UNL     1       1.981   9.100  18.428  0.00  0.00    +0.000 A 
ATOM     19  S   UNL     1       2.860   8.018  17.435  0.00  0.00    +0.000 S 
BRANCH  14  20
ATOM     20  O   UNL     1       0.925   8.646  21.898  0.00  0.00    +0.000 OA
ATOM     21  C   UNL     1      -0.370   8.691  22.482  0.00  0.00    +0.000 C 
ENDBRANCH  14  20
ENDBRANCH   5  11
BRANCH   1  24
ATOM     22  C   UNL     1       6.904   5.945  18.849  0.00  0.00    +0.000 C 
ATOM     23  O   UNL     1       7.015   5.181  19.801  0.00  0.00    +0.000 OA
ATOM     24  N   UNL     1       5.825   6.020  17.978  0.00  0.00    +0.000 N 
ATOM     25  H   UNL     1       6.072   6.248  17.021  0.00  0.00    +0.000 HD
BRANCH  22  26
ATOM     26  C   UNL     1       8.021   6.897  18.474  0.00  0.00    +0.000 C 
BRANCH  26  27
ATOM     27  C   UNL     1       7.498   7.956  17.511  0.00  0.00    +0.000 C 
BRANCH  27  28
ATOM     28  N   UNL     1       8.484   9.025  17.329  0.00  0.00    +0.000 NA
ATOM     29  H   UNL     1       9.424   8.631  17.411  0.00  0.00    +0.000 HD
BRANCH  28  30
ATOM     30  C   UNL     1       8.307  10.051  18.367  0.00  0.00    +0.000 C 
BRANCH  30  31
ATOM     31  C   UNL     1       9.639  10.451  19.011  0.00  0.00    +0.000 C 
BRANCH  31  33
ATOM     32  C   UNL     1       9.696  11.864  20.897  0.00  0.00    +0.000 C 
ATOM     33  O   UNL     1       9.453  10.545  20.425  0.00  0.00    +0.000 OA
ENDBRANCH  31  33
ENDBRANCH  30  31
ENDBRANCH  28  30
ENDBRANCH  27  28
ENDBRANCH  26  27
ENDBRANCH  22  26
ENDBRANCH   1  24
TORSDOF 9
ENDMDL
MODEL 5
REMARK VINA RESULT:      -6.6      1.593      2.130
REMARK  Name = 
REMARK  11 active torsions:
REMARK  status: ('A' for Active; 'I' for Inactive)
REMARK    1  A    between atoms: C_1  and  O_2
REMARK    2  A    between atoms: O_2  and  C_3
REMARK    3  A    between atoms: C_3  and  C_4
REMARK    4  A    between atoms: C_4  and  N_5
REMARK    5  A    between atoms: N_5  and  C_6
REMARK    6  A    between atoms: C_6  and  C_7
REMARK    7  A    between atoms: C_7  and  C_8
REMARK    8  A    between atoms: N_10  and  C_11
REMARK    9  A    between atoms: C_15  and  C_16
REMARK   10  A    between atoms: C_19  and  O_20
REMARK   11  A    between atoms: O_20  and  C_21
REMARK                            x       y       z     vdW  Elec       q    Type
REMARK                         _______ _______ _______ _____ _____    ______ ____
ROOT
ATOM      1  C   UNL     1       4.215   5.744  17.689  0.00  0.00    +0.000 A 
ATOM      2  S   UNL     1       4.714   4.255  17.023  0.00  0.00    +0.000 S 
ATOM      3  C   UNL     1       3.511   3.411  17.871  0.00  0.00    +0.000 A 
ATOM      4  C   UNL     1       2.721   4.243  18.647  0.00  0.00    +0.000 A 
ATOM      5  C   UNL     1       3.130   5.620  18.539  0.00  0.00    +0.000 A 
ATOM      6  C   UNL     1       1.575   3.663  19.429  0.00  0.00    +0.000 C 
ATOM      7  C   UNL     1       1.694   2.124  19.530  0.00  0.00    +0.000 C 
ATOM      8  N   UNL     1       2.036   1.484  18.243  0.00  0.00    +0.000 NA
ATOM      9  C   UNL     1       3.370   1.922  17.785  0.00  0.00    +0.000 C 
ATOM     10  H   UNL     1       1.359   1.790  17.544  0.00  0.00    +0.000 HD
ENDROOT
BRANCH   5  11
ATOM     11  C   UNL     1       2.421   6.783  19.206  0.00  0.00    +0.000 A 
ATOM     12  N   UNL     1       2.342   7.959  18.634  0.00  0.00    +0.000 NA
ATOM     13  C   UNL     1       1.719   8.885  19.471  0.00  0.00    +0.000 A 
ATOM     14  C   UNL     1       1.477  10.256  19.189  0.00  0.00    +0.000 A 
ATOM     15  C   UNL     1       0.853  11.039  20.174  0.00  0.00    +0.000 A 
ATOM     16  C   UNL     1       0.473  10.496  21.400  0.00  0.00    +0.000 A 
ATOM     17  C   UNL     1       0.696   9.151  21.685  0.00  0.00    +0.000 A 
ATOM     18  C   UNL     1       1.318   8.366  20.702  0.00  0.00    +0.000 A 
ATOM     19  S   UNL     1       1.706   6.701  20.768  0.00  0.00    +0.000 S 
BRANCH  14  20
ATOM     20  O   UNL     1       1.878  10.720  17.963  0.00  0.00    +0.000 OA
ATOM     21  C   UNL     1       2.470  12.011  17.915  0.00  0.00    +0.000 C 
ENDBRANCH  14  20
ENDBRANCH   5  11
BRANCH   1  24
ATOM     22  C   UNL     1       6.343   6.862  17.793  0.00  0.00    +0.000 C 
ATOM     23  O   UNL     1       6.940   5.970  18.386  0.00  0.00    +0.000 OA
ATOM     24  N   UNL     1       5.007   6.845  17.416  0.00  0.00    +0.000 N 
ATOM     25  H   UNL     1       4.811   7.319  16.541  0.00  0.00    +0.000 HD
BRANCH  22  26
ATOM     26  C   UNL     1       7.061   8.116  17.338  0.00  0.00    +0.000 C 
BRANCH  26  27
ATOM     27  C   UNL     1       8.269   8.374  18.231  0.00  0.00    +0.000 C 
BRANCH  27  28
ATOM     28  N   UNL     1       8.701   9.771  18.129  0.00  0.00    +0.000 NA
ATOM     29  H   UNL     1       9.426   9.846  17.412  0.00  0.00    +0.000 HD
BRANCH  28  30
ATOM     30  C   UNL     1       9.254  10.219  19.414  0.00  0.00    +0.000 C 
BRANCH  30  31
ATOM     31  C   UNL     1       9.433  11.740  19.463  0.00  0.00    +0.000 C 
BRANCH  31  33
ATOM     32  C   UNL     1      11.763  11.655  19.120  0.00  0.00    +0.000 C 
ATOM     33  O   UNL     1      10.517  12.101  18.603  0.00  0.00    +0.000 OA
ENDBRANCH  31  33
ENDBRANCH  30  31
ENDBRANCH  28  30
ENDBRANCH  27  28
ENDBRANCH  26  27
ENDBRANCH  22  26
ENDBRANCH   1  24
TORSDOF 9
ENDMDL
MODEL 6
REMARK VINA RESULT:      -6.4      2.675      7.712
REMARK  Name = 
REMARK  11 active torsions:
REMARK  status: ('A' for Active; 'I' for Inactive)
REMARK    1  A    between atoms: C_1  and  O_2
REMARK    2  A    between atoms: O_2  and  C_3
REMARK    3  A    between atoms: C_3  and  C_4
REMARK    4  A    between atoms: C_4  and  N_5
REMARK    5  A    between atoms: N_5  and  C_6
REMARK    6  A    between atoms: C_6  and  C_7
REMARK    7  A    between atoms: C_7  and  C_8
REMARK    8  A    between atoms: N_10  and  C_11
REMARK    9  A    between atoms: C_15  and  C_16
REMARK   10  A    between atoms: C_19  and  O_20
REMARK   11  A    between atoms: O_20  and  C_21
REMARK                            x       y       z     vdW  Elec       q    Type
REMARK                         _______ _______ _______ _____ _____    ______ ____
ROOT
ATOM      1  C   UNL     1       1.906   6.758  20.546  0.00  0.00    +0.000 A 
ATOM      2  S   UNL     1       0.803   7.882  21.204  0.00  0.00    +0.000 S 
ATOM      3  C   UNL     1       1.052   8.960  19.919  0.00  0.00    +0.000 A 
ATOM      4  C   UNL     1       1.954   8.479  18.984  0.00  0.00    +0.000 A 
ATOM      5  C   UNL     1       2.457   7.179  19.348  0.00  0.00    +0.000 A 
ATOM      6  C   UNL     1       2.256   9.292  17.756  0.00  0.00    +0.000 C 
ATOM      7  C   UNL     1       1.769  10.750  17.920  0.00  0.00    +0.000 C 
ATOM      8  N   UNL     1       0.407  10.846  18.485  0.00  0.00    +0.000 NA
ATOM      9  C   UNL     1       0.373  10.295  19.855  0.00  0.00    +0.000 C 
ATOM     10  H   UNL     1      -0.217  10.276  17.912  0.00  0.00    +0.000 HD
ENDROOT
BRANCH   5  11
ATOM     11  C   UNL     1       3.401   6.352  18.497  0.00  0.00    +0.000 A 
ATOM     12  N   UNL     1       4.692   6.573  18.490  0.00  0.00    +0.000 NA
ATOM     13  C   UNL     1       5.339   5.746  17.571  0.00  0.00    +0.000 A 
ATOM     14  C   UNL     1       6.730   5.721  17.285  0.00  0.00    +0.000 A 
ATOM     15  C   UNL     1       7.193   4.827  16.304  0.00  0.00    +0.000 A 
ATOM     16  C   UNL     1       6.320   3.978  15.626  0.00  0.00    +0.000 A 
ATOM     17  C   UNL     1       4.956   3.986  15.906  0.00  0.00    +0.000 A 
ATOM     18  C   UNL     1       4.491   4.877  16.885  0.00  0.00    +0.000 A 
ATOM     19  S   UNL     1       2.886   5.098  17.438  0.00  0.00    +0.000 S 
BRANCH  14  20
ATOM     20  O   UNL     1       7.528   6.584  17.991  0.00  0.00    +0.000 OA
ATOM     21  C   UNL     1       7.590   7.931  17.543  0.00  0.00    +0.000 C 
ENDBRANCH  14  20
ENDBRANCH   5  11
BRANCH   1  24
ATOM     22  C   UNL     1       1.621   4.426  21.067  0.00  0.00    +0.000 C 
ATOM     23  O   UNL     1       0.802   4.187  20.186  0.00  0.00    +0.000 OA
ATOM     24  N   UNL     1       2.212   5.657  21.325  0.00  0.00    +0.000 N 
ATOM     25  H   UNL     1       3.172   5.602  21.649  0.00  0.00    +0.000 HD
BRANCH  22  26
ATOM     26  C   UNL     1       2.141   3.329  21.973  0.00  0.00    +0.000 C 
BRANCH  26  27
ATOM     27  C   UNL     1       2.666   2.170  21.133  0.00  0.00    +0.000 C 
BRANCH  27  28
ATOM     28  N   UNL     1       4.118   2.269  20.964  0.00  0.00    +0.000 NA
ATOM     29  H   UNL     1       4.463   3.075  21.490  0.00  0.00    +0.000 HD
BRANCH  28  30
ATOM     30  C   UNL     1       4.445   2.452  19.543  0.00  0.00    +0.000 C 
BRANCH  30  31
ATOM     31  C   UNL     1       4.288   1.153  18.746  0.00  0.00    +0.000 C 
BRANCH  31  33
ATOM     32  C   UNL     1       2.271   1.912  17.792  0.00  0.00    +0.000 C 
ATOM     33  O   UNL     1       3.587   1.441  17.534  0.00  0.00    +0.000 OA
ENDBRANCH  31  33
ENDBRANCH  30  31
ENDBRANCH  28  30
ENDBRANCH  27  28
ENDBRANCH  26  27
ENDBRANCH  22  26
ENDBRANCH   1  24
TORSDOF 9
ENDMDL
MODEL 7
REMARK VINA RESULT:      -6.2      4.614      8.989
REMARK  Name = 
REMARK  11 active torsions:
REMARK  status: ('A' for Active; 'I' for Inactive)
REMARK    1  A    between atoms: C_1  and  O_2
REMARK    2  A    between atoms: O_2  and  C_3
REMARK    3  A    between atoms: C_3  and  C_4
REMARK    4  A    between atoms: C_4  and  N_5
REMARK    5  A    between atoms: N_5  and  C_6
REMARK    6  A    between atoms: C_6  and  C_7
REMARK    7  A    between atoms: C_7  and  C_8
REMARK    8  A    between atoms: N_10  and  C_11
REMARK    9  A    between atoms: C_15  and  C_16
REMARK   10  A    between atoms: C_19  and  O_20
REMARK   11  A    between atoms: O_20  and  C_21
REMARK                            x       y       z     vdW  Elec       q    Type
REMARK                         _______ _______ _______ _____ _____    ______ ____
ROOT
ATOM      1  C   UNL     1       1.087  12.430  20.212  0.00  0.00    +0.000 A 
ATOM      2  S   UNL     1       2.478  13.347  20.578  0.00  0.00    +0.000 S 
ATOM      3  C   UNL     1       1.809  14.741  19.879  0.00  0.00    +0.000 A 
ATOM      4  C   UNL     1       0.536  14.529  19.379  0.00  0.00    +0.000 A 
ATOM      5  C   UNL     1       0.104  13.169  19.577  0.00  0.00    +0.000 A 
ATOM      6  C   UNL     1      -0.222  15.674  18.765  0.00  0.00    +0.000 C 
ATOM      7  C   UNL     1       0.721  16.859  18.452  0.00  0.00    +0.000 C 
ATOM      8  N   UNL     1       1.649  17.170  19.558  0.00  0.00    +0.000 NA
ATOM      9  C   UNL     1       2.562  16.035  19.803  0.00  0.00    +0.000 C 
ATOM     10  H   UNL     1       1.099  17.307  20.407  0.00  0.00    +0.000 HD
ENDROOT
BRANCH   5  11
ATOM     11  C   UNL     1      -1.269  12.640  19.209  0.00  0.00    +0.000 A 
ATOM     12  N   UNL     1      -1.533  12.190  18.007  0.00  0.00    +0.000 NA
ATOM     13  C   UNL     1      -2.877  11.837  17.886  0.00  0.00    +0.000 A 
ATOM     14  C   UNL     1      -3.519  11.330  16.725  0.00  0.00    +0.000 A 
ATOM     15  C   UNL     1      -4.895  11.052  16.792  0.00  0.00    +0.000 A 
ATOM     16  C   UNL     1      -5.621  11.261  17.963  0.00  0.00    +0.000 A 
ATOM     17  C   UNL     1      -5.000  11.748  19.111  0.00  0.00    +0.000 A 
ATOM     18  C   UNL     1      -3.627  12.026  19.047  0.00  0.00    +0.000 A 
ATOM     19  S   UNL     1      -2.608  12.618  20.288  0.00  0.00    +0.000 S 
BRANCH  14  20
ATOM     20  O   UNL     1      -2.742  11.150  15.610  0.00  0.00    +0.000 OA
ATOM     21  C   UNL     1      -2.920   9.945  14.878  0.00  0.00    +0.000 C 
ENDBRANCH  14  20
ENDBRANCH   5  11
BRANCH   1  24
ATOM     22  C   UNL     1       0.588  10.541  21.617  0.00  0.00    +0.000 C 
ATOM     23  O   UNL     1       0.016  11.171  22.499  0.00  0.00    +0.000 OA
ATOM     24  N   UNL     1       1.152  11.072  20.463  0.00  0.00    +0.000 N 
ATOM     25  H   UNL     1       1.084  10.471  19.648  0.00  0.00    +0.000 HD
BRANCH  22  26
ATOM     26  C   UNL     1       0.692   9.031  21.674  0.00  0.00    +0.000 C 
BRANCH  26  27
ATOM     27  C   UNL     1       1.388   8.512  20.421  0.00  0.00    +0.000 C 
BRANCH  27  28
ATOM     28  N   UNL     1       1.900   7.155  20.637  0.00  0.00    +0.000 NA
ATOM     29  H   UNL     1       2.656   7.188  21.324  0.00  0.00    +0.000 HD
BRANCH  28  30
ATOM     30  C   UNL     1       2.425   6.613  19.376  0.00  0.00    +0.000 C 
BRANCH  30  31
ATOM     31  C   UNL     1       3.537   5.584  19.614  0.00  0.00    +0.000 C 
BRANCH  31  33
ATOM     32  C   UNL     1       5.804   5.178  19.114  0.00  0.00    +0.000 C 
ATOM     33  O   UNL     1       4.625   5.875  18.734  0.00  0.00    +0.000 OA
ENDBRANCH  31  33
ENDBRANCH  30  31
ENDBRANCH  28  30
ENDBRANCH  27  28
ENDBRANCH  26  27
ENDBRANCH  22  26
ENDBRANCH   1  24
TORSDOF 9
ENDMDL
MODEL 8
REMARK VINA RESULT:      -6.1      4.950      9.258
REMARK  Name = 
REMARK  11 active torsions:
REMARK  status: ('A' for Active; 'I' for Inactive)
REMARK    1  A    between atoms: C_1  and  O_2
REMARK    2  A    between atoms: O_2  and  C_3
REMARK    3  A    between atoms: C_3  and  C_4
REMARK    4  A    between atoms: C_4  and  N_5
REMARK    5  A    between atoms: N_5  and  C_6
REMARK    6  A    between atoms: C_6  and  C_7
REMARK    7  A    between atoms: C_7  and  C_8
REMARK    8  A    between atoms: N_10  and  C_11
REMARK    9  A    between atoms: C_15  and  C_16
REMARK   10  A    between atoms: C_19  and  O_20
REMARK   11  A    between atoms: O_20  and  C_21
REMARK                            x       y       z     vdW  Elec       q    Type
REMARK                         _______ _______ _______ _____ _____    ______ ____
ROOT
ATOM      1  C   UNL     1       0.783  12.324  20.265  0.00  0.00    +0.000 A 
ATOM      2  S   UNL     1       2.204  13.186  20.654  0.00  0.00    +0.000 S 
ATOM      3  C   UNL     1       1.583  14.616  19.984  0.00  0.00    +0.000 A 
ATOM      4  C   UNL     1       0.304  14.458  19.478  0.00  0.00    +0.000 A 
ATOM      5  C   UNL     1      -0.173  13.109  19.645  0.00  0.00    +0.000 A 
ATOM      6  C   UNL     1      -0.413  15.640  18.888  0.00  0.00    +0.000 C 
ATOM      7  C   UNL     1       0.569  16.800  18.602  0.00  0.00    +0.000 C 
ATOM      8  N   UNL     1       1.504  17.055  19.717  0.00  0.00    +0.000 NA
ATOM      9  C   UNL     1       2.379  15.885  19.938  0.00  0.00    +0.000 C 
ATOM     10  H   UNL     1       0.957  17.192  20.567  0.00  0.00    +0.000 HD
ENDROOT
BRANCH   5  11
ATOM     11  C   UNL     1      -1.562  12.634  19.264  0.00  0.00    +0.000 A 
ATOM     12  N   UNL     1      -2.598  12.846  20.037  0.00  0.00    +0.000 NA
ATOM     13  C   UNL     1      -3.745  12.246  19.517  0.00  0.00    +0.000 A 
ATOM     14  C   UNL     1      -5.043  12.255  20.094  0.00  0.00    +0.000 A 
ATOM     15  C   UNL     1      -6.074  11.571  19.427  0.00  0.00    +0.000 A 
ATOM     16  C   UNL     1      -5.842  10.900  18.228  0.00  0.00    +0.000 A 
ATOM     17  C   UNL     1      -4.576  10.893  17.647  0.00  0.00    +0.000 A 
ATOM     18  C   UNL     1      -3.545  11.576  18.311  0.00  0.00    +0.000 A 
ATOM     19  S   UNL     1      -1.910  11.743  17.833  0.00  0.00    +0.000 S 
BRANCH  14  20
ATOM     20  O   UNL     1      -5.196  12.935  21.275  0.00  0.00    +0.000 OA
ATOM     21  C   UNL     1      -6.436  12.793  21.954  0.00  0.00    +0.000 C 
ENDBRANCH  14  20
ENDBRANCH   5  11
BRANCH   1  24
ATOM     22  C   UNL     1       0.372  10.437  21.700  0.00  0.00    +0.000 C 
ATOM     23  O   UNL     1      -0.037  11.079  22.661  0.00  0.00    +0.000 OA
ATOM     24  N   UNL     1       0.803  10.959  20.487  0.00  0.00    +0.000 N 
ATOM     25  H   UNL     1       0.589  10.381  19.681  0.00  0.00    +0.000 HD
BRANCH  22  26
ATOM     26  C   UNL     1       0.394   8.922  21.722  0.00  0.00    +0.000 C 
BRANCH  26  27
ATOM     27  C   UNL     1       1.199   8.398  20.539  0.00  0.00    +0.000 C 
BRANCH  27  28
ATOM     28  N   UNL     1       1.885   7.151  20.890  0.00  0.00    +0.000 NA
ATOM     29  H   UNL     1       2.649   7.360  21.536  0.00  0.00    +0.000 HD
BRANCH  28  30
ATOM     30  C   UNL     1       2.442   6.530  19.680  0.00  0.00    +0.000 C 
BRANCH  30  31
ATOM     31  C   UNL     1       2.088   5.042  19.585  0.00  0.00    +0.000 C 
BRANCH  31  33
ATOM     32  C   UNL     1       1.855   3.365  21.224  0.00  0.00    +0.000 C 
ATOM     33  O   UNL     1       1.429   4.650  20.792  0.00  0.00    +0.000 OA
ENDBRANCH  31  33
ENDBRANCH  30  31
ENDBRANCH  28  30
ENDBRANCH  27  28
ENDBRANCH  26  27
ENDBRANCH  22  26
ENDBRANCH   1  24
TORSDOF 9
ENDMDL
MODEL 9
REMARK VINA RESULT:      -6.0      6.968     11.706
REMARK  Name = 
REMARK  11 active torsions:
REMARK  status: ('A' for Active; 'I' for Inactive)
REMARK    1  A    between atoms: C_1  and  O_2
REMARK    2  A    between atoms: O_2  and  C_3
REMARK    3  A    between atoms: C_3  and  C_4
REMARK    4  A    between atoms: C_4  and  N_5
REMARK    5  A    between atoms: N_5  and  C_6
REMARK    6  A    between atoms: C_6  and  C_7
REMARK    7  A    between atoms: C_7  and  C_8
REMARK    8  A    between atoms: N_10  and  C_11
REMARK    9  A    between atoms: C_15  and  C_16
REMARK   10  A    between atoms: C_19  and  O_20
REMARK   11  A    between atoms: O_20  and  C_21
REMARK                            x       y       z     vdW  Elec       q    Type
REMARK                         _______ _______ _______ _____ _____    ______ ____
ROOT
ATOM      1  C   UNL     1      -4.101  14.262  20.904  0.00  0.00    +0.000 A 
ATOM      2  S   UNL     1      -4.961  15.733  20.991  0.00  0.00    +0.000 S 
ATOM      3  C   UNL     1      -4.163  16.177  22.421  0.00  0.00    +0.000 A 
ATOM      4  C   UNL     1      -3.239  15.232  22.833  0.00  0.00    +0.000 A 
ATOM      5  C   UNL     1      -3.196  14.103  21.939  0.00  0.00    +0.000 A 
ATOM      6  C   UNL     1      -2.409  15.489  24.060  0.00  0.00    +0.000 C 
ATOM      7  C   UNL     1      -3.000  16.646  24.898  0.00  0.00    +0.000 C 
ATOM      8  N   UNL     1      -3.391  17.813  24.081  0.00  0.00    +0.000 NA
ATOM      9  C   UNL     1      -4.475  17.452  23.146  0.00  0.00    +0.000 C 
ATOM     10  H   UNL     1      -2.586  18.094  23.520  0.00  0.00    +0.000 HD
ENDROOT
BRANCH   5  11
ATOM     11  C   UNL     1      -2.236  12.936  22.072  0.00  0.00    +0.000 A 
ATOM     12  N   UNL     1      -1.370  12.648  21.133  0.00  0.00    +0.000 NA
ATOM     13  C   UNL     1      -0.659  11.488  21.443  0.00  0.00    +0.000 A 
ATOM     14  C   UNL     1       0.346  10.872  20.651  0.00  0.00    +0.000 A 
ATOM     15  C   UNL     1       0.936   9.688  21.125  0.00  0.00    +0.000 A 
ATOM     16  C   UNL     1       0.557   9.125  22.342  0.00  0.00    +0.000 A 
ATOM     17  C   UNL     1      -0.420   9.726  23.133  0.00  0.00    +0.000 A 
ATOM     18  C   UNL     1      -1.010  10.908  22.662  0.00  0.00    +0.000 A 
ATOM     19  S   UNL     1      -2.216  11.861  23.415  0.00  0.00    +0.000 S 
BRANCH  14  20
ATOM     20  O   UNL     1       0.667  11.482  19.465  0.00  0.00    +0.000 OA
ATOM     21  C   UNL     1       1.360  10.705  18.498  0.00  0.00    +0.000 C 
ENDBRANCH  14  20
ENDBRANCH   5  11
BRANCH   1  24
ATOM     22  C   UNL     1      -5.372  12.341  20.210  0.00  0.00    +0.000 C 
ATOM     23  O   UNL     1      -5.874  12.104  21.303  0.00  0.00    +0.000 OA
ATOM     24  N   UNL     1      -4.487  13.372  19.919  0.00  0.00    +0.000 N 
ATOM     25  H   UNL     1      -4.590  13.764  18.989  0.00  0.00    +0.000 HD
BRANCH  22  26
ATOM     26  C   UNL     1      -5.735  11.523  18.987  0.00  0.00    +0.000 C 
BRANCH  26  27
ATOM     27  C   UNL     1      -6.041  12.450  17.816  0.00  0.00    +0.000 C 
BRANCH  27  28
ATOM     28  N   UNL     1      -4.981  12.377  16.807  0.00  0.00    +0.000 NA
ATOM     29  H   UNL     1      -5.391  12.512  15.880  0.00  0.00    +0.000 HD
BRANCH  28  30
ATOM     30  C   UNL     1      -4.335  11.058  16.854  0.00  0.00    +0.000 C 
BRANCH  30  31
ATOM     31  C   UNL     1      -3.449  10.809  15.629  0.00  0.00    +0.000 C 
BRANCH  31  33
ATOM     32  C   UNL     1      -2.220   9.991  17.466  0.00  0.00    +0.000 C 
ATOM     33  O   UNL     1      -2.214  10.235  16.066  0.00  0.00    +0.000 OA
ENDBRANCH  31  33
ENDBRANCH  30  31
ENDBRANCH  28  30
ENDBRANCH  27  28
ENDBRANCH  26  27
ENDBRANCH  22  26
ENDBRANCH   1  24
TORSDOF 9
ENDMDL
