MODEL 1
REMARK VINA RESULT:      -8.2      0.000      0.000
REMARK  Name = 
REMARK  5 active torsions:
REMARK  status: ('A' for Active; 'I' for Inactive)
REMARK    1  A    between atoms: C_2  and  C_23
REMARK    2  A    between atoms: N_3  and  C_4
REMARK    3  A    between atoms: C_8  and  C_9
REMARK    4  A    between atoms: N_11  and  C_12
REMARK    5  A    between atoms: C_28  and  O_29
REMARK                            x       y       z     vdW  Elec       q    Type
REMARK                         _______ _______ _______ _____ _____    ______ ____
ROOT
ATOM      1  C   UNL     1       3.728   4.145  17.094  0.00  0.00    +0.000 A 
ATOM      2  S   UNL     1       3.436   2.518  17.422  0.00  0.00    +0.000 S 
ATOM      3  C   UNL     1       2.984   2.874  19.033  0.00  0.00    +0.000 A 
ATOM      4  C   UNL     1       2.874   4.245  19.252  0.00  0.00    +0.000 A 
ATOM      5  C   UNL     1       3.286   5.012  18.074  0.00  0.00    +0.000 A 
ATOM      6  C   UNL     1       2.384   4.864  20.543  0.00  0.00    +0.000 C 
ATOM      7  C   UNL     1       1.245   4.077  21.194  0.00  0.00    +0.000 C 
ATOM      8  C   UNL     1       1.694   2.860  22.005  0.00  0.00    +0.000 C 
ATOM      9  C   UNL     1       2.871   2.067  21.435  0.00  0.00    +0.000 C 
ATOM     10  C   UNL     1       2.718   1.719  19.959  0.00  0.00    +0.000 C 
ENDROOT
BRANCH   1  13
ATOM     11  O   UNL     1       6.488   4.022  16.731  0.00  0.00    +0.000 OA
ATOM     12  C   UNL     1       5.730   4.224  15.789  0.00  0.00    +0.000 C 
ATOM     13  N   UNL     1       4.353   4.346  15.886  0.00  0.00    +0.000 N 
ATOM     14  H   UNL     1       3.838   4.076  15.051  0.00  0.00    +0.000 HD
BRANCH  12  15
ATOM     15  C   UNL     1       6.285   4.329  14.409  0.00  0.00    +0.000 A 
ATOM     16  C   UNL     1       5.685   3.542  13.414  0.00  0.00    +0.000 A 
ATOM     17  C   UNL     1       6.179   3.552  12.110  0.00  0.00    +0.000 A 
ATOM     18  C   UNL     1       7.277   4.350  11.788  0.00  0.00    +0.000 A 
ATOM     19  C   UNL     1       7.871   5.154  12.762  0.00  0.00    +0.000 A 
ATOM     20  C   UNL     1       7.370   5.149  14.065  0.00  0.00    +0.000 A 
BRANCH  20  21
ATOM     21  O   UNL     1       7.949   5.972  14.998  0.00  0.00    +0.000 OA
ATOM     22  H   UNL     1       7.540   6.853  14.932  0.00  0.00    +0.000 HD
ENDBRANCH  20  21
ENDBRANCH  12  15
ENDBRANCH   1  13
BRANCH   5  23
ATOM     23  C   UNL     1       3.244   6.481  17.934  0.00  0.00    +0.000 C 
ATOM     24  O   UNL     1       4.055   7.072  17.229  0.00  0.00    +0.000 OA
ATOM     25  N   UNL     1       2.301   7.099  18.750  0.00  0.00    +0.000 N 
ATOM     26  H   UNL     1       1.798   6.495  19.386  0.00  0.00    +0.000 HD
BRANCH  25  27
ATOM     27  C   UNL     1       1.957   8.470  18.783  0.00  0.00    +0.000 A 
ATOM     28  C   UNL     1       2.306   9.365  17.774  0.00  0.00    +0.000 A 
ATOM     29  C   UNL     1       1.923  10.709  17.852  0.00  0.00    +0.000 A 
ATOM     30  C   UNL     1       1.190  11.164  18.948  0.00  0.00    +0.000 A 
ATOM     31  C   UNL     1       0.828  10.275  19.957  0.00  0.00    +0.000 A 
ATOM     32  C   UNL     1       1.205   8.930  19.872  0.00  0.00    +0.000 A 
ENDBRANCH  25  27
ENDBRANCH   5  23
TORSDOF 5
ENDMDL
MODEL 2
REMARK VINA RESULT:      -7.8      6.112     10.179
REMARK  Name = 
REMARK  5 active torsions:
REMARK  status: ('A' for Active; 'I' for Inactive)
REMARK    1  A    between atoms: C_2  and  C_23
REMARK    2  A    between atoms: N_3  and  C_4
REMARK    3  A    between atoms: C_8  and  C_9
REMARK    4  A    between atoms: N_11  and  C_12
REMARK    5  A    between atoms: C_28  and  O_29
REMARK                            x       y       z     vdW  Elec       q    Type
REMARK                         _______ _______ _______ _____ _____    ______ ____
ROOT
ATOM      1  C   UNL     1      -0.615  12.346  22.240  0.00  0.00    +0.000 A 
ATOM      2  S   UNL     1      -2.141  12.074  22.906  0.00  0.00    +0.000 S 
ATOM      3  C   UNL     1      -2.193  13.657  23.552  0.00  0.00    +0.000 A 
ATOM      4  C   UNL     1      -1.137  14.441  23.094  0.00  0.00    +0.000 A 
ATOM      5  C   UNL     1      -0.206  13.664  22.274  0.00  0.00    +0.000 A 
ATOM      6  C   UNL     1      -0.977  15.915  23.401  0.00  0.00    +0.000 C 
ATOM      7  C   UNL     1      -2.304  16.675  23.416  0.00  0.00    +0.000 C 
ATOM      8  C   UNL     1      -3.100  16.541  24.716  0.00  0.00    +0.000 C 
ATOM      9  C   UNL     1      -3.057  15.171  25.394  0.00  0.00    +0.000 C 
ATOM     10  C   UNL     1      -3.347  14.010  24.449  0.00  0.00    +0.000 C 
ENDROOT
BRANCH   1  13
ATOM     11  O   UNL     1      -0.591  11.631  19.546  0.00  0.00    +0.000 OA
ATOM     12  C   UNL     1      -0.028  10.946  20.393  0.00  0.00    +0.000 C 
ATOM     13  N   UNL     1      -0.029  11.200  21.754  0.00  0.00    +0.000 N 
ATOM     14  H   UNL     1       0.783  10.851  22.258  0.00  0.00    +0.000 HD
BRANCH  12  15
ATOM     15  C   UNL     1       0.751   9.747  19.967  0.00  0.00    +0.000 A 
ATOM     16  C   UNL     1       0.907   8.717  20.906  0.00  0.00    +0.000 A 
ATOM     17  C   UNL     1       1.661   7.586  20.596  0.00  0.00    +0.000 A 
ATOM     18  C   UNL     1       2.265   7.472  19.344  0.00  0.00    +0.000 A 
ATOM     19  C   UNL     1       2.100   8.479  18.392  0.00  0.00    +0.000 A 
ATOM     20  C   UNL     1       1.338   9.608  18.700  0.00  0.00    +0.000 A 
BRANCH  20  21
ATOM     21  O   UNL     1       1.163  10.570  17.738  0.00  0.00    +0.000 OA
ATOM     22  H   UNL     1       2.021  11.000  17.569  0.00  0.00    +0.000 HD
ENDBRANCH  20  21
ENDBRANCH  12  15
ENDBRANCH   1  13
BRANCH   5  23
ATOM     23  C   UNL     1       0.989  14.185  21.582  0.00  0.00    +0.000 C 
ATOM     24  O   UNL     1       2.001  14.485  22.206  0.00  0.00    +0.000 OA
ATOM     25  N   UNL     1       0.802  14.403  20.219  0.00  0.00    +0.000 N 
ATOM     26  H   UNL     1      -0.133  14.243  19.867  0.00  0.00    +0.000 HD
BRANCH  25  27
ATOM     27  C   UNL     1       1.769  14.808  19.271  0.00  0.00    +0.000 A 
ATOM     28  C   UNL     1       2.767  13.960  18.794  0.00  0.00    +0.000 A 
ATOM     29  C   UNL     1       3.688  14.412  17.842  0.00  0.00    +0.000 A 
ATOM     30  C   UNL     1       3.616  15.720  17.366  0.00  0.00    +0.000 A 
ATOM     31  C   UNL     1       2.616  16.572  17.828  0.00  0.00    +0.000 A 
ATOM     32  C   UNL     1       1.691  16.116  18.774  0.00  0.00    +0.000 A 
ENDBRANCH  25  27
ENDBRANCH   5  23
TORSDOF 5
ENDMDL
MODEL 3
REMARK VINA RESULT:      -7.7      6.119     10.070
REMARK  Name = 
REMARK  5 active torsions:
REMARK  status: ('A' for Active; 'I' for Inactive)
REMARK    1  A    between atoms: C_2  and  C_23
REMARK    2  A    between atoms: N_3  and  C_4
REMARK    3  A    between atoms: C_8  and  C_9
REMARK    4  A    between atoms: N_11  and  C_12
REMARK    5  A    between atoms: C_28  and  O_29
REMARK                            x       y       z     vdW  Elec       q    Type
REMARK                         _______ _______ _______ _____ _____    ______ ____
ROOT
ATOM      1  C   UNL     1      -0.500  12.280  22.100  0.00  0.00    +0.000 A 
ATOM      2  S   UNL     1      -2.009  11.903  22.752  0.00  0.00    +0.000 S 
ATOM      3  C   UNL     1      -2.135  13.448  23.476  0.00  0.00    +0.000 A 
ATOM      4  C   UNL     1      -1.119  14.304  23.057  0.00  0.00    +0.000 A 
ATOM      5  C   UNL     1      -0.154  13.613  22.199  0.00  0.00    +0.000 A 
ATOM      6  C   UNL     1      -1.029  15.766  23.437  0.00  0.00    +0.000 C 
ATOM      7  C   UNL     1      -2.391  16.460  23.489  0.00  0.00    +0.000 C 
ATOM      8  C   UNL     1      -3.176  16.225  24.781  0.00  0.00    +0.000 C 
ATOM      9  C   UNL     1      -3.066  14.827  25.391  0.00  0.00    +0.000 C 
ATOM     10  C   UNL     1      -3.303  13.701  24.389  0.00  0.00    +0.000 C 
ENDROOT
BRANCH   1  13
ATOM     11  O   UNL     1      -0.649  11.567  19.410  0.00  0.00    +0.000 OA
ATOM     12  C   UNL     1       0.043  10.934  20.201  0.00  0.00    +0.000 C 
ATOM     13  N   UNL     1       0.139  11.189  21.559  0.00  0.00    +0.000 N 
ATOM     14  H   UNL     1       1.019  10.913  21.987  0.00  0.00    +0.000 HD
BRANCH  12  15
ATOM     15  C   UNL     1       0.883   9.807  19.701  0.00  0.00    +0.000 A 
ATOM     16  C   UNL     1       1.351   9.892  18.381  0.00  0.00    +0.000 A 
ATOM     17  C   UNL     1       2.103   8.856  17.829  0.00  0.00    +0.000 A 
ATOM     18  C   UNL     1       2.397   7.725  18.592  0.00  0.00    +0.000 A 
ATOM     19  C   UNL     1       1.956   7.636  19.913  0.00  0.00    +0.000 A 
ATOM     20  C   UNL     1       1.210   8.678  20.467  0.00  0.00    +0.000 A 
BRANCH  20  21
ATOM     21  O   UNL     1       0.815   8.583  21.778  0.00  0.00    +0.000 OA
ATOM     22  H   UNL     1       1.497   8.095  22.273  0.00  0.00    +0.000 HD
ENDBRANCH  20  21
ENDBRANCH  12  15
ENDBRANCH   1  13
BRANCH   5  23
ATOM     23  C   UNL     1       1.013  14.224  21.534  0.00  0.00    +0.000 C 
ATOM     24  O   UNL     1       1.972  14.626  22.183  0.00  0.00    +0.000 OA
ATOM     25  N   UNL     1       0.853  14.397  20.161  0.00  0.00    +0.000 N 
ATOM     26  H   UNL     1      -0.051  14.148  19.784  0.00  0.00    +0.000 HD
BRANCH  25  27
ATOM     27  C   UNL     1       1.813  14.867  19.235  0.00  0.00    +0.000 A 
ATOM     28  C   UNL     1       1.793  16.157  18.709  0.00  0.00    +0.000 A 
ATOM     29  C   UNL     1       2.780  16.571  17.807  0.00  0.00    +0.000 A 
ATOM     30  C   UNL     1       3.791  15.691  17.424  0.00  0.00    +0.000 A 
ATOM     31  C   UNL     1       3.825  14.403  17.953  0.00  0.00    +0.000 A 
ATOM     32  C   UNL     1       2.842  13.993  18.860  0.00  0.00    +0.000 A 
ENDBRANCH  25  27
ENDBRANCH   5  23
TORSDOF 5
ENDMDL
MODEL 4
REMARK VINA RESULT:      -7.6      5.371     10.153
REMARK  Name = 
REMARK  5 active torsions:
REMARK  status: ('A' for Active; 'I' for Inactive)
REMARK    1  A    between atoms: C_2  and  C_23
REMARK    2  A    between atoms: N_3  and  C_4
REMARK    3  A    between atoms: C_8  and  C_9
REMARK    4  A    between atoms: N_11  and  C_12
REMARK    5  A    between atoms: C_28  and  O_29
REMARK                            x       y       z     vdW  Elec       q    Type
REMARK                         _______ _______ _______ _____ _____    ______ ____
ROOT
ATOM      1  C   UNL     1       0.047   9.897  21.162  0.00  0.00    +0.000 A 
ATOM      2  S   UNL     1       1.214   8.989  21.973  0.00  0.00    +0.000 S 
ATOM      3  C   UNL     1       1.647   8.172  20.533  0.00  0.00    +0.000 A 
ATOM      4  C   UNL     1       1.036   8.732  19.414  0.00  0.00    +0.000 A 
ATOM      5  C   UNL     1       0.101   9.795  19.786  0.00  0.00    +0.000 A 
ATOM      6  C   UNL     1       1.311   8.299  17.990  0.00  0.00    +0.000 C 
ATOM      7  C   UNL     1       2.779   7.949  17.739  0.00  0.00    +0.000 C 
ATOM      8  C   UNL     1       3.185   6.545  18.192  0.00  0.00    +0.000 C 
ATOM      9  C   UNL     1       2.546   6.044  19.487  0.00  0.00    +0.000 C 
ATOM     10  C   UNL     1       2.631   7.040  20.639  0.00  0.00    +0.000 C 
ENDROOT
BRANCH   1  13
ATOM     11  O   UNL     1       0.426  12.585  21.792  0.00  0.00    +0.000 OA
ATOM     12  C   UNL     1      -0.527  11.954  22.236  0.00  0.00    +0.000 C 
ATOM     13  N   UNL     1      -0.767  10.608  22.013  0.00  0.00    +0.000 N 
ATOM     14  H   UNL     1      -1.746  10.334  22.049  0.00  0.00    +0.000 HD
BRANCH  12  15
ATOM     15  C   UNL     1      -1.548  12.656  23.066  0.00  0.00    +0.000 A 
ATOM     16  C   UNL     1      -2.733  11.960  23.350  0.00  0.00    +0.000 A 
ATOM     17  C   UNL     1      -3.752  12.568  24.082  0.00  0.00    +0.000 A 
ATOM     18  C   UNL     1      -3.597  13.877  24.539  0.00  0.00    +0.000 A 
ATOM     19  C   UNL     1      -2.416  14.574  24.282  0.00  0.00    +0.000 A 
ATOM     20  C   UNL     1      -1.392  13.961  23.557  0.00  0.00    +0.000 A 
BRANCH  20  21
ATOM     21  O   UNL     1      -0.227  14.654  23.345  0.00  0.00    +0.000 OA
ATOM     22  H   UNL     1       0.469  14.273  23.910  0.00  0.00    +0.000 HD
ENDBRANCH  20  21
ENDBRANCH  12  15
ENDBRANCH   1  13
BRANCH   5  23
ATOM     23  C   UNL     1      -0.675  10.638  18.855  0.00  0.00    +0.000 C 
ATOM     24  O   UNL     1      -0.325  11.786  18.602  0.00  0.00    +0.000 OA
ATOM     25  N   UNL     1      -1.859  10.052  18.416  0.00  0.00    +0.000 N 
ATOM     26  H   UNL     1      -2.088   9.154  18.821  0.00  0.00    +0.000 HD
BRANCH  25  27
ATOM     27  C   UNL     1      -2.768  10.560  17.459  0.00  0.00    +0.000 A 
ATOM     28  C   UNL     1      -3.896  11.302  17.802  0.00  0.00    +0.000 A 
ATOM     29  C   UNL     1      -4.752  11.793  16.811  0.00  0.00    +0.000 A 
ATOM     30  C   UNL     1      -4.483  11.539  15.467  0.00  0.00    +0.000 A 
ATOM     31  C   UNL     1      -3.352  10.807  15.113  0.00  0.00    +0.000 A 
ATOM     32  C   UNL     1      -2.493  10.323  16.106  0.00  0.00    +0.000 A 
ENDBRANCH  25  27
ENDBRANCH   5  23
TORSDOF 5
ENDMDL
MODEL 5
REMARK VINA RESULT:      -7.4      5.602     10.387
REMARK  Name = 
REMARK  5 active torsions:
REMARK  status: ('A' for Active; 'I' for Inactive)
REMARK    1  A    between atoms: C_2  and  C_23
REMARK    2  A    between atoms: N_3  and  C_4
REMARK    3  A    between atoms: C_8  and  C_9
REMARK    4  A    between atoms: N_11  and  C_12
REMARK    5  A    between atoms: C_28  and  O_29
REMARK                            x       y       z     vdW  Elec       q    Type
REMARK                         _______ _______ _______ _____ _____    ______ ____
ROOT
ATOM      1  C   UNL     1      -0.008  10.313  21.016  0.00  0.00    +0.000 A 
ATOM      2  S   UNL     1       0.672   8.916  21.671  0.00  0.00    +0.000 S 
ATOM      3  C   UNL     1       1.341   8.475  20.160  0.00  0.00    +0.000 A 
ATOM      4  C   UNL     1       1.205   9.489  19.215  0.00  0.00    +0.000 A 
ATOM      5  C   UNL     1       0.425  10.612  19.739  0.00  0.00    +0.000 A 
ATOM      6  C   UNL     1       1.795   9.438  17.822  0.00  0.00    +0.000 C 
ATOM      7  C   UNL     1       3.176   8.781  17.777  0.00  0.00    +0.000 C 
ATOM      8  C   UNL     1       3.152   7.251  17.768  0.00  0.00    +0.000 C 
ATOM      9  C   UNL     1       2.077   6.589  18.632  0.00  0.00    +0.000 C 
ATOM     10  C   UNL     1       2.013   7.134  20.055  0.00  0.00    +0.000 C 
ENDROOT
BRANCH   1  13
ATOM     11  O   UNL     1       0.460  12.809  22.163  0.00  0.00    +0.000 OA
ATOM     12  C   UNL     1      -0.585  12.200  22.365  0.00  0.00    +0.000 C 
ATOM     13  N   UNL     1      -0.881  10.939  21.874  0.00  0.00    +0.000 N 
ATOM     14  H   UNL     1      -1.872  10.752  21.739  0.00  0.00    +0.000 HD
BRANCH  12  15
ATOM     15  C   UNL     1      -1.661  12.839  23.176  0.00  0.00    +0.000 A 
ATOM     16  C   UNL     1      -2.851  12.116  23.348  0.00  0.00    +0.000 A 
ATOM     17  C   UNL     1      -3.918  12.667  24.056  0.00  0.00    +0.000 A 
ATOM     18  C   UNL     1      -3.807  13.946  24.600  0.00  0.00    +0.000 A 
ATOM     19  C   UNL     1      -2.622  14.669  24.456  0.00  0.00    +0.000 A 
ATOM     20  C   UNL     1      -1.550  14.113  23.755  0.00  0.00    +0.000 A 
BRANCH  20  21
ATOM     21  O   UNL     1      -0.384  14.829  23.654  0.00  0.00    +0.000 OA
ATOM     22  H   UNL     1      -0.532  15.717  24.025  0.00  0.00    +0.000 HD
ENDBRANCH  20  21
ENDBRANCH  12  15
ENDBRANCH   1  13
BRANCH   5  23
ATOM     23  C   UNL     1       0.135  11.876  19.034  0.00  0.00    +0.000 C 
ATOM     24  O   UNL     1      -0.713  11.926  18.149  0.00  0.00    +0.000 OA
ATOM     25  N   UNL     1       0.980  12.925  19.385  0.00  0.00    +0.000 N 
ATOM     26  H   UNL     1       1.727  12.699  20.027  0.00  0.00    +0.000 HD
BRANCH  25  27
ATOM     27  C   UNL     1       0.904  14.271  18.959  0.00  0.00    +0.000 A 
ATOM     28  C   UNL     1      -0.288  14.991  18.921  0.00  0.00    +0.000 A 
ATOM     29  C   UNL     1      -0.299  16.327  18.506  0.00  0.00    +0.000 A 
ATOM     30  C   UNL     1       0.888  16.948  18.120  0.00  0.00    +0.000 A 
ATOM     31  C   UNL     1       2.087  16.241  18.164  0.00  0.00    +0.000 A 
ATOM     32  C   UNL     1       2.097  14.908  18.588  0.00  0.00    +0.000 A 
ENDBRANCH  25  27
ENDBRANCH   5  23
TORSDOF 5
ENDMDL
MODEL 6
REMARK VINA RESULT:      -7.3      5.837      9.863
REMARK  Name = 
REMARK  5 active torsions:
REMARK  status: ('A' for Active; 'I' for Inactive)
REMARK    1  A    between atoms: C_2  and  C_23
REMARK    2  A    between atoms: N_3  and  C_4
REMARK    3  A    between atoms: C_8  and  C_9
REMARK    4  A    between atoms: N_11  and  C_12
REMARK    5  A    between atoms: C_28  and  O_29
REMARK                            x       y       z     vdW  Elec       q    Type
REMARK                         _______ _______ _______ _____ _____    ______ ____
ROOT
ATOM      1  C   UNL     1      -0.573  12.075  21.499  0.00  0.00    +0.000 A 
ATOM      2  S   UNL     1      -1.531  11.645  22.819  0.00  0.00    +0.000 S 
ATOM      3  C   UNL     1      -2.020  13.267  23.054  0.00  0.00    +0.000 A 
ATOM      4  C   UNL     1      -1.604  14.092  22.012  0.00  0.00    +0.000 A 
ATOM      5  C   UNL     1      -0.765  13.369  21.055  0.00  0.00    +0.000 A 
ATOM      6  C   UNL     1      -1.981  15.553  21.882  0.00  0.00    +0.000 C 
ATOM      7  C   UNL     1      -3.416  15.846  22.321  0.00  0.00    +0.000 C 
ATOM      8  C   UNL     1      -3.603  15.984  23.834  0.00  0.00    +0.000 C 
ATOM      9  C   UNL     1      -2.772  15.040  24.704  0.00  0.00    +0.000 C 
ATOM     10  C   UNL     1      -2.847  13.580  24.270  0.00  0.00    +0.000 C 
ENDROOT
BRANCH   1  13
ATOM     11  O   UNL     1      -1.184  10.401  19.357  0.00  0.00    +0.000 OA
ATOM     12  C   UNL     1      -0.125  10.296  19.966  0.00  0.00    +0.000 C 
ATOM     13  N   UNL     1       0.240  11.053  21.068  0.00  0.00    +0.000 N 
ATOM     14  H   UNL     1       1.242  11.180  21.190  0.00  0.00    +0.000 HD
BRANCH  12  15
ATOM     15  C   UNL     1       0.892   9.306  19.507  0.00  0.00    +0.000 A 
ATOM     16  C   UNL     1       1.356   9.429  18.188  0.00  0.00    +0.000 A 
ATOM     17  C   UNL     1       2.272   8.513  17.673  0.00  0.00    +0.000 A 
ATOM     18  C   UNL     1       2.734   7.466  18.471  0.00  0.00    +0.000 A 
ATOM     19  C   UNL     1       2.297   7.344  19.790  0.00  0.00    +0.000 A 
ATOM     20  C   UNL     1       1.387   8.266  20.308  0.00  0.00    +0.000 A 
BRANCH  20  21
ATOM     21  O   UNL     1       0.996   8.145  21.618  0.00  0.00    +0.000 OA
ATOM     22  H   UNL     1       0.489   7.319  21.716  0.00  0.00    +0.000 HD
ENDBRANCH  20  21
ENDBRANCH  12  15
ENDBRANCH   1  13
BRANCH   5  23
ATOM     23  C   UNL     1      -0.200  13.915  19.805  0.00  0.00    +0.000 C 
ATOM     24  O   UNL     1      -0.693  13.643  18.716  0.00  0.00    +0.000 OA
ATOM     25  N   UNL     1       0.976  14.639  19.987  0.00  0.00    +0.000 N 
ATOM     26  H   UNL     1       1.344  14.661  20.928  0.00  0.00    +0.000 HD
BRANCH  25  27
ATOM     27  C   UNL     1       1.704  15.357  19.011  0.00  0.00    +0.000 A 
ATOM     28  C   UNL     1       2.869  14.871  18.421  0.00  0.00    +0.000 A 
ATOM     29  C   UNL     1       3.539  15.619  17.447  0.00  0.00    +0.000 A 
ATOM     30  C   UNL     1       3.046  16.865  17.062  0.00  0.00    +0.000 A 
ATOM     31  C   UNL     1       1.877  17.357  17.639  0.00  0.00    +0.000 A 
ATOM     32  C   UNL     1       1.204  16.602  18.606  0.00  0.00    +0.000 A 
ENDBRANCH  25  27
ENDBRANCH   5  23
TORSDOF 5
ENDMDL
MODEL 7
REMARK VINA RESULT:      -7.3      5.117      9.234
REMARK  Name = 
REMARK  5 active torsions:
REMARK  status: ('A' for Active; 'I' for Inactive)
REMARK    1  A    between atoms: C_2  and  C_23
REMARK    2  A    between atoms: N_3  and  C_4
REMARK    3  A    between atoms: C_8  and  C_9
REMARK    4  A    between atoms: N_11  and  C_12
REMARK    5  A    between atoms: C_28  and  O_29
REMARK                            x       y       z     vdW  Elec       q    Type
REMARK                         _______ _______ _______ _____ _____    ______ ____
ROOT
ATOM      1  C   UNL     1      -0.810  11.116  21.083  0.00  0.00    +0.000 A 
ATOM      2  S   UNL     1      -0.857  11.325  22.756  0.00  0.00    +0.000 S 
ATOM      3  C   UNL     1      -1.317  12.964  22.587  0.00  0.00    +0.000 A 
ATOM      4  C   UNL     1      -1.618  13.286  21.266  0.00  0.00    +0.000 A 
ATOM      5  C   UNL     1      -1.350  12.164  20.364  0.00  0.00    +0.000 A 
ATOM      6  C   UNL     1      -2.162  14.627  20.821  0.00  0.00    +0.000 C 
ATOM      7  C   UNL     1      -3.160  15.231  21.811  0.00  0.00    +0.000 C 
ATOM      8  C   UNL     1      -2.520  15.943  23.004  0.00  0.00    +0.000 C 
ATOM      9  C   UNL     1      -1.254  15.300  23.573  0.00  0.00    +0.000 C 
ATOM     10  C   UNL     1      -1.391  13.803  23.832  0.00  0.00    +0.000 C 
ENDROOT
BRANCH   1  13
ATOM     11  O   UNL     1       1.461  10.897  19.484  0.00  0.00    +0.000 OA
ATOM     12  C   UNL     1       0.906   9.904  19.944  0.00  0.00    +0.000 C 
ATOM     13  N   UNL     1      -0.250   9.918  20.706  0.00  0.00    +0.000 N 
ATOM     14  H   UNL     1      -0.345   9.141  21.356  0.00  0.00    +0.000 HD
BRANCH  12  15
ATOM     15  C   UNL     1       1.500   8.557  19.708  0.00  0.00    +0.000 A 
ATOM     16  C   UNL     1       1.402   7.621  20.749  0.00  0.00    +0.000 A 
ATOM     17  C   UNL     1       1.974   6.356  20.619  0.00  0.00    +0.000 A 
ATOM     18  C   UNL     1       2.648   6.013  19.447  0.00  0.00    +0.000 A 
ATOM     19  C   UNL     1       2.735   6.925  18.395  0.00  0.00    +0.000 A 
ATOM     20  C   UNL     1       2.155   8.189  18.522  0.00  0.00    +0.000 A 
BRANCH  20  21
ATOM     21  O   UNL     1       2.225   9.058  17.463  0.00  0.00    +0.000 OA
ATOM     22  H   UNL     1       1.372   9.521  17.383  0.00  0.00    +0.000 HD
ENDBRANCH  20  21
ENDBRANCH  12  15
ENDBRANCH   1  13
BRANCH   5  23
ATOM     23  C   UNL     1      -1.607  12.135  18.911  0.00  0.00    +0.000 C 
ATOM     24  O   UNL     1      -1.058  12.929  18.155  0.00  0.00    +0.000 OA
ATOM     25  N   UNL     1      -2.591  11.226  18.530  0.00  0.00    +0.000 N 
ATOM     26  H   UNL     1      -3.060  10.737  19.281  0.00  0.00    +0.000 HD
BRANCH  25  27
ATOM     27  C   UNL     1      -3.000  10.899  17.217  0.00  0.00    +0.000 A 
ATOM     28  C   UNL     1      -4.124  11.454  16.610  0.00  0.00    +0.000 A 
ATOM     29  C   UNL     1      -4.471  11.105  15.301  0.00  0.00    +0.000 A 
ATOM     30  C   UNL     1      -3.692  10.190  14.592  0.00  0.00    +0.000 A 
ATOM     31  C   UNL     1      -2.561   9.637  15.186  0.00  0.00    +0.000 A 
ATOM     32  C   UNL     1      -2.211   9.994  16.493  0.00  0.00    +0.000 A 
ENDBRANCH  25  27
ENDBRANCH   5  23
TORSDOF 5
ENDMDL
MODEL 8
REMARK VINA RESULT:      -7.2      5.621      9.234
REMARK  Name = 
REMARK  5 active torsions:
REMARK  status: ('A' for Active; 'I' for Inactive)
REMARK    1  A    between atoms: C_2  and  C_23
REMARK    2  A    between atoms: N_3  and  C_4
REMARK    3  A    between atoms: C_8  and  C_9
REMARK    4  A    between atoms: N_11  and  C_12
REMARK    5  A    between atoms: C_28  and  O_29
REMARK                            x       y       z     vdW  Elec       q    Type
REMARK                         _______ _______ _______ _____ _____    ______ ____
ROOT
ATOM      1  C   UNL     1       0.796  11.047  19.279  0.00  0.00    +0.000 A 
ATOM      2  S   UNL     1       1.277  10.138  17.942  0.00  0.00    +0.000 S 
ATOM      3  C   UNL     1       1.650   8.793  18.930  0.00  0.00    +0.000 A 
ATOM      4  C   UNL     1       1.226   8.978  20.244  0.00  0.00    +0.000 A 
ATOM      5  C   UNL     1       0.677  10.321  20.448  0.00  0.00    +0.000 A 
ATOM      6  C   UNL     1       1.314   7.921  21.323  0.00  0.00    +0.000 C 
ATOM      7  C   UNL     1       1.022   6.510  20.810  0.00  0.00    +0.000 C 
ATOM      8  C   UNL     1       2.202   5.829  20.115  0.00  0.00    +0.000 C 
ATOM      9  C   UNL     1       3.089   6.729  19.254  0.00  0.00    +0.000 C 
ATOM     10  C   UNL     1       2.309   7.607  18.281  0.00  0.00    +0.000 C 
ENDROOT
BRANCH   1  13
ATOM     11  O   UNL     1       2.463  13.115  20.125  0.00  0.00    +0.000 OA
ATOM     12  C   UNL     1       1.491  13.331  19.408  0.00  0.00    +0.000 C 
ATOM     13  N   UNL     1       0.586  12.373  18.980  0.00  0.00    +0.000 N 
ATOM     14  H   UNL     1       0.130  12.578  18.094  0.00  0.00    +0.000 HD
BRANCH  12  15
ATOM     15  C   UNL     1       1.238  14.715  18.914  0.00  0.00    +0.000 A 
ATOM     16  C   UNL     1       2.344  15.445  18.456  0.00  0.00    +0.000 A 
ATOM     17  C   UNL     1       2.193  16.762  18.022  0.00  0.00    +0.000 A 
ATOM     18  C   UNL     1       0.933  17.361  18.040  0.00  0.00    +0.000 A 
ATOM     19  C   UNL     1      -0.180  16.640  18.473  0.00  0.00    +0.000 A 
ATOM     20  C   UNL     1      -0.029  15.319  18.899  0.00  0.00    +0.000 A 
BRANCH  20  21
ATOM     21  O   UNL     1      -1.143  14.619  19.290  0.00  0.00    +0.000 OA
ATOM     22  H   UNL     1      -1.372  13.983  18.589  0.00  0.00    +0.000 HD
ENDBRANCH  20  21
ENDBRANCH  12  15
ENDBRANCH   1  13
BRANCH   5  23
ATOM     23  C   UNL     1       0.085  10.839  21.696  0.00  0.00    +0.000 C 
ATOM     24  O   UNL     1       0.427  10.399  22.789  0.00  0.00    +0.000 OA
ATOM     25  N   UNL     1      -0.945  11.754  21.495  0.00  0.00    +0.000 N 
ATOM     26  H   UNL     1      -1.215  11.915  20.534  0.00  0.00    +0.000 HD
BRANCH  25  27
ATOM     27  C   UNL     1      -1.647  12.491  22.476  0.00  0.00    +0.000 A 
ATOM     28  C   UNL     1      -2.882  12.096  22.986  0.00  0.00    +0.000 A 
ATOM     29  C   UNL     1      -3.521  12.858  23.969  0.00  0.00    +0.000 A 
ATOM     30  C   UNL     1      -2.927  14.026  24.445  0.00  0.00    +0.000 A 
ATOM     31  C   UNL     1      -1.688  14.424  23.950  0.00  0.00    +0.000 A 
ATOM     32  C   UNL     1      -1.046  13.656  22.972  0.00  0.00    +0.000 A 
ENDBRANCH  25  27
ENDBRANCH   5  23
TORSDOF 5
ENDMDL
MODEL 9
REMARK VINA RESULT:      -7.2      7.315     11.601
REMARK  Name = 
REMARK  5 active torsions:
REMARK  status: ('A' for Active; 'I' for Inactive)
REMARK    1  A    between atoms: C_2  and  C_23
REMARK    2  A    between atoms: N_3  and  C_4
REMARK    3  A    between atoms: C_8  and  C_9
REMARK    4  A    between atoms: N_11  and  C_12
REMARK    5  A    between atoms: C_28  and  O_29
REMARK                            x       y       z     vdW  Elec       q    Type
REMARK                         _______ _______ _______ _____ _____    ______ ____
ROOT
ATOM      1  C   UNL     1      -1.837  14.824  20.648  0.00  0.00    +0.000 A 
ATOM      2  S   UNL     1      -3.129  15.797  21.123  0.00  0.00    +0.000 S 
ATOM      3  C   UNL     1      -3.800  14.532  22.059  0.00  0.00    +0.000 A 
ATOM      4  C   UNL     1      -2.936  13.444  22.157  0.00  0.00    +0.000 A 
ATOM      5  C   UNL     1      -1.737  13.633  21.338  0.00  0.00    +0.000 A 
ATOM      6  C   UNL     1      -3.203  12.221  23.009  0.00  0.00    +0.000 C 
ATOM      7  C   UNL     1      -3.878  12.552  24.341  0.00  0.00    +0.000 C 
ATOM      8  C   UNL     1      -5.391  12.758  24.253  0.00  0.00    +0.000 C 
ATOM      9  C   UNL     1      -5.902  13.472  23.001  0.00  0.00    +0.000 C 
ATOM     10  C   UNL     1      -5.151  14.759  22.679  0.00  0.00    +0.000 C 
ENDROOT
BRANCH   1  13
ATOM     11  O   UNL     1       0.385  16.442  21.109  0.00  0.00    +0.000 OA
ATOM     12  C   UNL     1       0.037  16.146  19.971  0.00  0.00    +0.000 C 
ATOM     13  N   UNL     1      -1.077  15.389  19.649  0.00  0.00    +0.000 N 
ATOM     14  H   UNL     1      -1.008  14.872  18.776  0.00  0.00    +0.000 HD
BRANCH  12  15
ATOM     15  C   UNL     1       0.861  16.596  18.812  0.00  0.00    +0.000 A 
ATOM     16  C   UNL     1       2.132  16.020  18.667  0.00  0.00    +0.000 A 
ATOM     17  C   UNL     1       2.978  16.424  17.635  0.00  0.00    +0.000 A 
ATOM     18  C   UNL     1       2.560  17.406  16.735  0.00  0.00    +0.000 A 
ATOM     19  C   UNL     1       1.290  17.971  16.854  0.00  0.00    +0.000 A 
ATOM     20  C   UNL     1       0.441  17.561  17.883  0.00  0.00    +0.000 A 
BRANCH  20  21
ATOM     21  O   UNL     1      -0.815  18.107  17.961  0.00  0.00    +0.000 OA
ATOM     22  H   UNL     1      -0.740  19.008  18.325  0.00  0.00    +0.000 HD
ENDBRANCH  20  21
ENDBRANCH  12  15
ENDBRANCH   1  13
BRANCH   5  23
ATOM     23  C   UNL     1      -0.590  12.709  21.248  0.00  0.00    +0.000 C 
ATOM     24  O   UNL     1       0.490  12.991  21.756  0.00  0.00    +0.000 OA
ATOM     25  N   UNL     1      -0.827  11.590  20.454  0.00  0.00    +0.000 N 
ATOM     26  H   UNL     1      -1.720  11.561  19.982  0.00  0.00    +0.000 HD
BRANCH  25  27
ATOM     27  C   UNL     1       0.031  10.486  20.243  0.00  0.00    +0.000 A 
ATOM     28  C   UNL     1       0.300   9.534  21.224  0.00  0.00    +0.000 A 
ATOM     29  C   UNL     1       1.145   8.453  20.952  0.00  0.00    +0.000 A 
ATOM     30  C   UNL     1       1.730   8.322  19.694  0.00  0.00    +0.000 A 
ATOM     31  C   UNL     1       1.459   9.263  18.703  0.00  0.00    +0.000 A 
ATOM     32  C   UNL     1       0.608  10.339  18.974  0.00  0.00    +0.000 A 
ENDBRANCH  25  27
ENDBRANCH   5  23
TORSDOF 5
ENDMDL
