MODEL 1
REMARK VINA RESULT:      -7.8      0.000      0.000
REMARK  Name = 
REMARK  3 active torsions:
REMARK  status: ('A' for Active; 'I' for Inactive)
REMARK    1  A    between atoms: C_10  and  N_11
REMARK    2  A    between atoms: N_14  and  C_15
REMARK    3  A    between atoms: C_15  and  C_16
REMARK                            x       y       z     vdW  Elec       q    Type
REMARK                         _______ _______ _______ _____ _____    ______ ____
ROOT
ATOM      1  N   UNL     1       4.601   5.743  18.115  0.00  0.00    +0.000 N 
ATOM      2  C   UNL     1       4.363   5.517  16.685  0.00  0.00    +0.000 C 
ATOM      3  C   UNL     1       5.315   6.421  15.840  0.00  0.00    +0.000 C 
ATOM      4  N   UNL     1       6.761   6.373  16.208  0.00  0.00    +0.000 NA
ATOM      5  C   UNL     1       6.856   6.581  17.675  0.00  0.00    +0.000 C 
ATOM      6  C   UNL     1       6.017   5.582  18.502  0.00  0.00    +0.000 C 
ENDROOT
BRANCH   1  16
ATOM      7 CL   UNL     1       2.475   7.890  18.625  0.00  0.00    +0.000 Cl
ATOM      8  C   UNL     1       2.651   6.373  19.467  0.00  0.00    +0.000 A 
ATOM      9  C   UNL     1       1.701   6.141  20.464  0.00  0.00    +0.000 A 
ATOM     10  C   UNL     1       1.655   4.928  21.131  0.00  0.00    +0.000 A 
ATOM     11  C   UNL     1       2.586   3.957  20.756  0.00  0.00    +0.000 A 
ATOM     12  N   UNL     1       2.726   2.675  21.245  0.00  0.00    +0.000 N 
ATOM     13  C   UNL     1       3.777   2.051  20.641  0.00  0.00    +0.000 A 
ATOM     14  C   UNL     1       4.322   2.939  19.743  0.00  0.00    +0.000 A 
ATOM     15  C   UNL     1       3.570   4.160  19.778  0.00  0.00    +0.000 A 
ATOM     16  C   UNL     1       3.655   5.416  19.095  0.00  0.00    +0.000 A 
ATOM     17  H   UNL     1       2.132   2.268  21.955  0.00  0.00    +0.000 HD
ENDBRANCH   1  16
BRANCH   4  18
ATOM     18  C   UNL     1       7.361   5.096  15.776  0.00  0.00    +0.000 C 
BRANCH  18  19
ATOM     19  C   UNL     1       7.105   4.726  14.327  0.00  0.00    +0.000 A 
ATOM     20  C   UNL     1       7.834   5.342  13.298  0.00  0.00    +0.000 A 
ATOM     21  C   UNL     1       7.645   4.968  11.966  0.00  0.00    +0.000 A 
ATOM     22  C   UNL     1       6.726   3.969  11.648  0.00  0.00    +0.000 A 
ATOM     23  C   UNL     1       5.983   3.359  12.660  0.00  0.00    +0.000 A 
ATOM     24  C   UNL     1       6.168   3.738  13.990  0.00  0.00    +0.000 A 
ENDBRANCH  18  19
ENDBRANCH   4  18
TORSDOF 3
ENDMDL
MODEL 2
REMARK VINA RESULT:      -7.7      0.052      1.008
REMARK  Name = 
REMARK  3 active torsions:
REMARK  status: ('A' for Active; 'I' for Inactive)
REMARK    1  A    between atoms: C_10  and  N_11
REMARK    2  A    between atoms: N_14  and  C_15
REMARK    3  A    between atoms: C_15  and  C_16
REMARK                            x       y       z     vdW  Elec       q    Type
REMARK                         _______ _______ _______ _____ _____    ______ ____
ROOT
ATOM      1  N   UNL     1       4.592   5.734  18.091  0.00  0.00    +0.000 N 
ATOM      2  C   UNL     1       4.363   5.451  16.670  0.00  0.00    +0.000 C 
ATOM      3  C   UNL     1       5.276   6.363  15.793  0.00  0.00    +0.000 C 
ATOM      4  N   UNL     1       6.723   6.387  16.158  0.00  0.00    +0.000 NA
ATOM      5  C   UNL     1       6.810   6.649  17.618  0.00  0.00    +0.000 C 
ATOM      6  C   UNL     1       6.015   5.646  18.480  0.00  0.00    +0.000 C 
ENDROOT
BRANCH   1  16
ATOM      7 CL   UNL     1       2.461   7.870  18.628  0.00  0.00    +0.000 Cl
ATOM      8  C   UNL     1       2.657   6.355  19.469  0.00  0.00    +0.000 A 
ATOM      9  C   UNL     1       1.722   6.118  20.478  0.00  0.00    +0.000 A 
ATOM     10  C   UNL     1       1.693   4.905  21.147  0.00  0.00    +0.000 A 
ATOM     11  C   UNL     1       2.624   3.940  20.760  0.00  0.00    +0.000 A 
ATOM     12  N   UNL     1       2.778   2.659  21.248  0.00  0.00    +0.000 N 
ATOM     13  C   UNL     1       3.825   2.041  20.631  0.00  0.00    +0.000 A 
ATOM     14  C   UNL     1       4.353   2.930  19.726  0.00  0.00    +0.000 A 
ATOM     15  C   UNL     1       3.594   4.147  19.770  0.00  0.00    +0.000 A 
ATOM     16  C   UNL     1       3.662   5.403  19.084  0.00  0.00    +0.000 A 
ATOM     17  H   UNL     1       2.197   2.249  21.967  0.00  0.00    +0.000 HD
ENDBRANCH   1  16
BRANCH   4  18
ATOM     18  C   UNL     1       7.375   5.121  15.769  0.00  0.00    +0.000 C 
BRANCH  18  19
ATOM     19  C   UNL     1       7.161   4.709  14.325  0.00  0.00    +0.000 A 
ATOM     20  C   UNL     1       6.216   3.722  14.002  0.00  0.00    +0.000 A 
ATOM     21  C   UNL     1       5.972   3.376  12.671  0.00  0.00    +0.000 A 
ATOM     22  C   UNL     1       6.668   4.016  11.647  0.00  0.00    +0.000 A 
ATOM     23  C   UNL     1       7.621   4.988  11.955  0.00  0.00    +0.000 A 
ATOM     24  C   UNL     1       7.869   5.328  13.285  0.00  0.00    +0.000 A 
ENDBRANCH  18  19
ENDBRANCH   4  18
TORSDOF 3
ENDMDL
MODEL 3
REMARK VINA RESULT:      -7.4      1.610      2.476
REMARK  Name = 
REMARK  3 active torsions:
REMARK  status: ('A' for Active; 'I' for Inactive)
REMARK    1  A    between atoms: C_10  and  N_11
REMARK    2  A    between atoms: N_14  and  C_15
REMARK    3  A    between atoms: C_15  and  C_16
REMARK                            x       y       z     vdW  Elec       q    Type
REMARK                         _______ _______ _______ _____ _____    ______ ____
ROOT
ATOM      1  N   UNL     1       4.456   5.575  18.183  0.00  0.00    +0.000 N 
ATOM      2  C   UNL     1       4.258   5.413  16.738  0.00  0.00    +0.000 C 
ATOM      3  C   UNL     1       5.254   6.329  15.960  0.00  0.00    +0.000 C 
ATOM      4  N   UNL     1       6.686   6.234  16.368  0.00  0.00    +0.000 NA
ATOM      5  C   UNL     1       6.741   6.380  17.845  0.00  0.00    +0.000 C 
ATOM      6  C   UNL     1       5.857   5.368  18.605  0.00  0.00    +0.000 C 
ENDROOT
BRANCH   1  16
ATOM      7 CL   UNL     1       4.387   2.608  18.945  0.00  0.00    +0.000 Cl
ATOM      8  C   UNL     1       3.303   3.856  19.502  0.00  0.00    +0.000 A 
ATOM      9  C   UNL     1       2.320   3.424  20.396  0.00  0.00    +0.000 A 
ATOM     10  C   UNL     1       1.468   4.332  21.003  0.00  0.00    +0.000 A 
ATOM     11  C   UNL     1       1.643   5.681  20.691  0.00  0.00    +0.000 A 
ATOM     12  N   UNL     1       0.947   6.767  21.180  0.00  0.00    +0.000 N 
ATOM     13  C   UNL     1       1.399   7.917  20.602  0.00  0.00    +0.000 A 
ATOM     14  C   UNL     1       2.407   7.572  19.732  0.00  0.00    +0.000 A 
ATOM     15  C   UNL     1       2.600   6.152  19.781  0.00  0.00    +0.000 A 
ATOM     16  C   UNL     1       3.475   5.230  19.120  0.00  0.00    +0.000 A 
ATOM     17  H   UNL     1       0.204   6.708  21.863  0.00  0.00    +0.000 HD
ENDBRANCH   1  16
BRANCH   4  18
ATOM     18  C   UNL     1       7.273   4.962  15.902  0.00  0.00    +0.000 C 
BRANCH  18  19
ATOM     19  C   UNL     1       7.074   4.669  14.427  0.00  0.00    +0.000 A 
ATOM     20  C   UNL     1       7.828   5.353  13.460  0.00  0.00    +0.000 A 
ATOM     21  C   UNL     1       7.693   5.050  12.104  0.00  0.00    +0.000 A 
ATOM     22  C   UNL     1       6.804   4.056  11.698  0.00  0.00    +0.000 A 
ATOM     23  C   UNL     1       6.037   3.379  12.648  0.00  0.00    +0.000 A 
ATOM     24  C   UNL     1       6.167   3.687  14.002  0.00  0.00    +0.000 A 
ENDBRANCH  18  19
ENDBRANCH   4  18
TORSDOF 3
ENDMDL
MODEL 4
REMARK VINA RESULT:      -7.3      1.990      3.258
REMARK  Name = 
REMARK  3 active torsions:
REMARK  status: ('A' for Active; 'I' for Inactive)
REMARK    1  A    between atoms: C_10  and  N_11
REMARK    2  A    between atoms: N_14  and  C_15
REMARK    3  A    between atoms: C_15  and  C_16
REMARK                            x       y       z     vdW  Elec       q    Type
REMARK                         _______ _______ _______ _____ _____    ______ ____
ROOT
ATOM      1  N   UNL     1       4.917   5.151  17.522  0.00  0.00    +0.000 N 
ATOM      2  C   UNL     1       5.944   6.099  17.075  0.00  0.00    +0.000 C 
ATOM      3  C   UNL     1       7.155   5.322  16.470  0.00  0.00    +0.000 C 
ATOM      4  N   UNL     1       6.825   4.291  15.443  0.00  0.00    +0.000 NA
ATOM      5  C   UNL     1       5.758   3.425  16.007  0.00  0.00    +0.000 C 
ATOM      6  C   UNL     1       4.505   4.200  16.469  0.00  0.00    +0.000 C 
ENDROOT
BRANCH   1  16
ATOM      7 CL   UNL     1       4.525   3.119  19.782  0.00  0.00    +0.000 Cl
ATOM      8  C   UNL     1       3.616   4.585  19.525  0.00  0.00    +0.000 A 
ATOM      9  C   UNL     1       2.621   4.832  20.474  0.00  0.00    +0.000 A 
ATOM     10  C   UNL     1       1.903   6.017  20.454  0.00  0.00    +0.000 A 
ATOM     11  C   UNL     1       2.225   6.943  19.460  0.00  0.00    +0.000 A 
ATOM     12  N   UNL     1       1.679   8.192  19.249  0.00  0.00    +0.000 N 
ATOM     13  C   UNL     1       2.243   8.775  18.153  0.00  0.00    +0.000 A 
ATOM     14  C   UNL     1       3.172   7.895  17.651  0.00  0.00    +0.000 A 
ATOM     15  C   UNL     1       3.199   6.722  18.476  0.00  0.00    +0.000 A 
ATOM     16  C   UNL     1       3.935   5.494  18.459  0.00  0.00    +0.000 A 
ATOM     17  H   UNL     1       0.958   8.605  19.826  0.00  0.00    +0.000 HD
ENDBRANCH   1  16
BRANCH   4  18
ATOM     18  C   UNL     1       6.423   4.933  14.177  0.00  0.00    +0.000 C 
BRANCH  18  19
ATOM     19  C   UNL     1       6.135   3.974  13.036  0.00  0.00    +0.000 A 
ATOM     20  C   UNL     1       7.179   3.252  12.436  0.00  0.00    +0.000 A 
ATOM     21  C   UNL     1       6.916   2.326  11.424  0.00  0.00    +0.000 A 
ATOM     22  C   UNL     1       5.606   2.108  11.004  0.00  0.00    +0.000 A 
ATOM     23  C   UNL     1       4.560   2.830  11.582  0.00  0.00    +0.000 A 
ATOM     24  C   UNL     1       4.824   3.760  12.587  0.00  0.00    +0.000 A 
ENDBRANCH  18  19
ENDBRANCH   4  18
TORSDOF 3
ENDMDL
MODEL 5
REMARK VINA RESULT:      -7.3      1.606      2.678
REMARK  Name = 
REMARK  3 active torsions:
REMARK  status: ('A' for Active; 'I' for Inactive)
REMARK    1  A    between atoms: C_10  and  N_11
REMARK    2  A    between atoms: N_14  and  C_15
REMARK    3  A    between atoms: C_15  and  C_16
REMARK                            x       y       z     vdW  Elec       q    Type
REMARK                         _______ _______ _______ _____ _____    ______ ____
ROOT
ATOM      1  N   UNL     1       4.466   5.591  18.182  0.00  0.00    +0.000 N 
ATOM      2  C   UNL     1       4.264   5.380  16.744  0.00  0.00    +0.000 C 
ATOM      3  C   UNL     1       5.237   6.291  15.932  0.00  0.00    +0.000 C 
ATOM      4  N   UNL     1       6.673   6.239  16.335  0.00  0.00    +0.000 NA
ATOM      5  C   UNL     1       6.731   6.433  17.806  0.00  0.00    +0.000 C 
ATOM      6  C   UNL     1       5.872   5.426  18.602  0.00  0.00    +0.000 C 
ENDROOT
BRANCH   1  16
ATOM      7 CL   UNL     1       4.449   2.644  19.022  0.00  0.00    +0.000 Cl
ATOM      8  C   UNL     1       3.349   3.889  19.555  0.00  0.00    +0.000 A 
ATOM      9  C   UNL     1       2.380   3.466  20.466  0.00  0.00    +0.000 A 
ATOM     10  C   UNL     1       1.518   4.376  21.056  0.00  0.00    +0.000 A 
ATOM     11  C   UNL     1       1.669   5.718  20.708  0.00  0.00    +0.000 A 
ATOM     12  N   UNL     1       0.960   6.806  21.173  0.00  0.00    +0.000 N 
ATOM     13  C   UNL     1       1.390   7.947  20.563  0.00  0.00    +0.000 A 
ATOM     14  C   UNL     1       2.396   7.595  19.695  0.00  0.00    +0.000 A 
ATOM     15  C   UNL     1       2.612   6.180  19.779  0.00  0.00    +0.000 A 
ATOM     16  C   UNL     1       3.497   5.255  19.135  0.00  0.00    +0.000 A 
ATOM     17  H   UNL     1       0.222   6.753  21.863  0.00  0.00    +0.000 HD
ENDBRANCH   1  16
BRANCH   4  18
ATOM     18  C   UNL     1       7.283   4.966  15.906  0.00  0.00    +0.000 C 
BRANCH  18  19
ATOM     19  C   UNL     1       7.126   4.646  14.431  0.00  0.00    +0.000 A 
ATOM     20  C   UNL     1       6.211   3.667  14.011  0.00  0.00    +0.000 A 
ATOM     21  C   UNL     1       6.019   3.405  12.653  0.00  0.00    +0.000 A 
ATOM     22  C   UNL     1       6.737   4.122  11.698  0.00  0.00    +0.000 A 
ATOM     23  C   UNL     1       7.661   5.087  12.102  0.00  0.00    +0.000 A 
ATOM     24  C   UNL     1       7.858   5.343  13.459  0.00  0.00    +0.000 A 
ENDBRANCH  18  19
ENDBRANCH   4  18
TORSDOF 3
ENDMDL
MODEL 6
REMARK VINA RESULT:      -7.2      1.059      1.510
REMARK  Name = 
REMARK  3 active torsions:
REMARK  status: ('A' for Active; 'I' for Inactive)
REMARK    1  A    between atoms: C_10  and  N_11
REMARK    2  A    between atoms: N_14  and  C_15
REMARK    3  A    between atoms: C_15  and  C_16
REMARK                            x       y       z     vdW  Elec       q    Type
REMARK                         _______ _______ _______ _____ _____    ______ ____
ROOT
ATOM      1  N   UNL     1       4.778   4.815  18.356  0.00  0.00    +0.000 N 
ATOM      2  C   UNL     1       6.030   5.577  18.430  0.00  0.00    +0.000 C 
ATOM      3  C   UNL     1       7.193   4.751  17.797  0.00  0.00    +0.000 C 
ATOM      4  N   UNL     1       6.932   4.186  16.441  0.00  0.00    +0.000 NA
ATOM      5  C   UNL     1       5.629   3.474  16.497  0.00  0.00    +0.000 C 
ATOM      6  C   UNL     1       4.459   4.352  16.990  0.00  0.00    +0.000 C 
ENDROOT
BRANCH   1  16
ATOM      7 CL   UNL     1       3.466   7.548  17.908  0.00  0.00    +0.000 Cl
ATOM      8  C   UNL     1       3.029   6.363  19.112  0.00  0.00    +0.000 A 
ATOM      9  C   UNL     1       1.959   6.727  19.932  0.00  0.00    +0.000 A 
ATOM     10  C   UNL     1       1.437   5.833  20.853  0.00  0.00    +0.000 A 
ATOM     11  C   UNL     1       2.017   4.565  20.912  0.00  0.00    +0.000 A 
ATOM     12  N   UNL     1       1.663   3.501  21.715  0.00  0.00    +0.000 N 
ATOM     13  C   UNL     1       2.497   2.445  21.496  0.00  0.00    +0.000 A 
ATOM     14  C   UNL     1       3.400   2.826  20.533  0.00  0.00    +0.000 A 
ATOM     15  C   UNL     1       3.107   4.170  20.124  0.00  0.00    +0.000 A 
ATOM     16  C   UNL     1       3.682   5.086  19.185  0.00  0.00    +0.000 A 
ATOM     17  H   UNL     1       0.897   3.515  22.376  0.00  0.00    +0.000 HD
ENDBRANCH   1  16
BRANCH   4  18
ATOM     18  C   UNL     1       6.950   5.255  15.424  0.00  0.00    +0.000 C 
BRANCH  18  19
ATOM     19  C   UNL     1       6.867   4.773  13.987  0.00  0.00    +0.000 A 
ATOM     20  C   UNL     1       7.739   5.288  13.015  0.00  0.00    +0.000 A 
ATOM     21  C   UNL     1       7.708   4.809  11.703  0.00  0.00    +0.000 A 
ATOM     22  C   UNL     1       6.807   3.808  11.350  0.00  0.00    +0.000 A 
ATOM     23  C   UNL     1       5.923   3.298  12.303  0.00  0.00    +0.000 A 
ATOM     24  C   UNL     1       5.950   3.781  13.611  0.00  0.00    +0.000 A 
ENDBRANCH  18  19
ENDBRANCH   4  18
TORSDOF 3
ENDMDL
MODEL 7
REMARK VINA RESULT:      -7.2      1.994      3.341
REMARK  Name = 
REMARK  3 active torsions:
REMARK  status: ('A' for Active; 'I' for Inactive)
REMARK    1  A    between atoms: C_10  and  N_11
REMARK    2  A    between atoms: N_14  and  C_15
REMARK    3  A    between atoms: C_15  and  C_16
REMARK                            x       y       z     vdW  Elec       q    Type
REMARK                         _______ _______ _______ _____ _____    ______ ____
ROOT
ATOM      1  N   UNL     1       4.912   5.205  17.538  0.00  0.00    +0.000 N 
ATOM      2  C   UNL     1       5.914   6.167  17.068  0.00  0.00    +0.000 C 
ATOM      3  C   UNL     1       7.144   5.408  16.478  0.00  0.00    +0.000 C 
ATOM      4  N   UNL     1       6.838   4.346  15.475  0.00  0.00    +0.000 NA
ATOM      5  C   UNL     1       5.794   3.467  16.061  0.00  0.00    +0.000 C 
ATOM      6  C   UNL     1       4.522   4.221  16.507  0.00  0.00    +0.000 C 
ENDROOT
BRANCH   1  16
ATOM      7 CL   UNL     1       4.512   3.170  19.794  0.00  0.00    +0.000 Cl
ATOM      8  C   UNL     1       3.599   4.633  19.532  0.00  0.00    +0.000 A 
ATOM      9  C   UNL     1       2.598   4.877  20.474  0.00  0.00    +0.000 A 
ATOM     10  C   UNL     1       1.876   6.059  20.450  0.00  0.00    +0.000 A 
ATOM     11  C   UNL     1       2.201   6.987  19.460  0.00  0.00    +0.000 A 
ATOM     12  N   UNL     1       1.652   8.234  19.246  0.00  0.00    +0.000 N 
ATOM     13  C   UNL     1       2.222   8.820  18.153  0.00  0.00    +0.000 A 
ATOM     14  C   UNL     1       3.157   7.943  17.657  0.00  0.00    +0.000 A 
ATOM     15  C   UNL     1       3.182   6.770  18.482  0.00  0.00    +0.000 A 
ATOM     16  C   UNL     1       3.922   5.543  18.469  0.00  0.00    +0.000 A 
ATOM     17  H   UNL     1       0.927   8.644  19.818  0.00  0.00    +0.000 HD
ENDBRANCH   1  16
BRANCH   4  18
ATOM     18  C   UNL     1       6.419   4.949  14.196  0.00  0.00    +0.000 C 
BRANCH  18  19
ATOM     19  C   UNL     1       6.081   3.955  13.100  0.00  0.00    +0.000 A 
ATOM     20  C   UNL     1       4.762   3.832  12.637  0.00  0.00    +0.000 A 
ATOM     21  C   UNL     1       4.451   2.960  11.591  0.00  0.00    +0.000 A 
ATOM     22  C   UNL     1       5.458   2.205  10.993  0.00  0.00    +0.000 A 
ATOM     23  C   UNL     1       6.771   2.307  11.454  0.00  0.00    +0.000 A 
ATOM     24  C   UNL     1       7.080   3.172  12.504  0.00  0.00    +0.000 A 
ENDBRANCH  18  19
ENDBRANCH   4  18
TORSDOF 3
ENDMDL
MODEL 8
REMARK VINA RESULT:      -7.2      1.053      1.804
REMARK  Name = 
REMARK  3 active torsions:
REMARK  status: ('A' for Active; 'I' for Inactive)
REMARK    1  A    between atoms: C_10  and  N_11
REMARK    2  A    between atoms: N_14  and  C_15
REMARK    3  A    between atoms: C_15  and  C_16
REMARK                            x       y       z     vdW  Elec       q    Type
REMARK                         _______ _______ _______ _____ _____    ______ ____
ROOT
ATOM      1  N   UNL     1       4.792   4.833  18.363  0.00  0.00    +0.000 N 
ATOM      2  C   UNL     1       6.027   5.623  18.419  0.00  0.00    +0.000 C 
ATOM      3  C   UNL     1       7.206   4.811  17.797  0.00  0.00    +0.000 C 
ATOM      4  N   UNL     1       6.953   4.215  16.452  0.00  0.00    +0.000 NA
ATOM      5  C   UNL     1       5.667   3.476  16.526  0.00  0.00    +0.000 C 
ATOM      6  C   UNL     1       4.479   4.338  17.007  0.00  0.00    +0.000 C 
ENDROOT
BRANCH   1  16
ATOM      7 CL   UNL     1       3.464   7.558  17.918  0.00  0.00    +0.000 Cl
ATOM      8  C   UNL     1       3.032   6.369  19.119  0.00  0.00    +0.000 A 
ATOM      9  C   UNL     1       1.959   6.724  19.938  0.00  0.00    +0.000 A 
ATOM     10  C   UNL     1       1.440   5.825  20.856  0.00  0.00    +0.000 A 
ATOM     11  C   UNL     1       2.028   4.560  20.914  0.00  0.00    +0.000 A 
ATOM     12  N   UNL     1       1.679   3.493  21.714  0.00  0.00    +0.000 N 
ATOM     13  C   UNL     1       2.520   2.442  21.495  0.00  0.00    +0.000 A 
ATOM     14  C   UNL     1       3.422   2.831  20.533  0.00  0.00    +0.000 A 
ATOM     15  C   UNL     1       3.122   4.174  20.126  0.00  0.00    +0.000 A 
ATOM     16  C   UNL     1       3.693   5.095  19.190  0.00  0.00    +0.000 A 
ATOM     17  H   UNL     1       0.912   3.501  22.373  0.00  0.00    +0.000 HD
ENDBRANCH   1  16
BRANCH   4  18
ATOM     18  C   UNL     1       6.945   5.266  15.416  0.00  0.00    +0.000 C 
BRANCH  18  19
ATOM     19  C   UNL     1       6.924   4.754  13.987  0.00  0.00    +0.000 A 
ATOM     20  C   UNL     1       6.021   3.749  13.607  0.00  0.00    +0.000 A 
ATOM     21  C   UNL     1       5.957   3.312  12.282  0.00  0.00    +0.000 A 
ATOM     22  C   UNL     1       6.792   3.878  11.321  0.00  0.00    +0.000 A 
ATOM     23  C   UNL     1       7.705   4.868  11.689  0.00  0.00    +0.000 A 
ATOM     24  C   UNL     1       7.774   5.299  13.014  0.00  0.00    +0.000 A 
ENDBRANCH  18  19
ENDBRANCH   4  18
TORSDOF 3
ENDMDL
MODEL 9
REMARK VINA RESULT:      -7.1      1.258      1.783
REMARK  Name = 
REMARK  3 active torsions:
REMARK  status: ('A' for Active; 'I' for Inactive)
REMARK    1  A    between atoms: C_10  and  N_11
REMARK    2  A    between atoms: N_14  and  C_15
REMARK    3  A    between atoms: C_15  and  C_16
REMARK                            x       y       z     vdW  Elec       q    Type
REMARK                         _______ _______ _______ _____ _____    ______ ____
ROOT
ATOM      1  N   UNL     1       4.795   4.928  17.860  0.00  0.00    +0.000 N 
ATOM      2  C   UNL     1       5.873   5.871  17.542  0.00  0.00    +0.000 C 
ATOM      3  C   UNL     1       7.078   5.107  16.909  0.00  0.00    +0.000 C 
ATOM      4  N   UNL     1       6.751   4.191  15.778  0.00  0.00    +0.000 NA
ATOM      5  C   UNL     1       5.632   3.319  16.218  0.00  0.00    +0.000 C 
ATOM      6  C   UNL     1       4.391   4.098  16.707  0.00  0.00    +0.000 C 
ENDROOT
BRANCH   1  16
ATOM      7 CL   UNL     1       3.469   7.668  17.507  0.00  0.00    +0.000 Cl
ATOM      8  C   UNL     1       3.144   6.503  18.765  0.00  0.00    +0.000 A 
ATOM      9  C   UNL     1       2.164   6.888  19.682  0.00  0.00    +0.000 A 
ATOM     10  C   UNL     1       1.729   6.011  20.662  0.00  0.00    +0.000 A 
ATOM     11  C   UNL     1       2.301   4.738  20.681  0.00  0.00    +0.000 A 
ATOM     12  N   UNL     1       2.019   3.688  21.530  0.00  0.00    +0.000 N 
ATOM     13  C   UNL     1       2.818   2.621  21.243  0.00  0.00    +0.000 A 
ATOM     14  C   UNL     1       3.624   2.981  20.189  0.00  0.00    +0.000 A 
ATOM     15  C   UNL     1       3.303   4.322  19.793  0.00  0.00    +0.000 A 
ATOM     16  C   UNL     1       3.790   5.220  18.789  0.00  0.00    +0.000 A 
ATOM     17  H   UNL     1       1.323   3.718  22.263  0.00  0.00    +0.000 HD
ENDBRANCH   1  16
BRANCH   4  18
ATOM     18  C   UNL     1       6.424   4.964  14.565  0.00  0.00    +0.000 C 
BRANCH  18  19
ATOM     19  C   UNL     1       6.117   4.128  13.336  0.00  0.00    +0.000 A 
ATOM     20  C   UNL     1       7.147   3.451  12.664  0.00  0.00    +0.000 A 
ATOM     21  C   UNL     1       6.866   2.634  11.567  0.00  0.00    +0.000 A 
ATOM     22  C   UNL     1       5.552   2.482  11.131  0.00  0.00    +0.000 A 
ATOM     23  C   UNL     1       4.520   3.162  11.780  0.00  0.00    +0.000 A 
ATOM     24  C   UNL     1       4.802   3.983  12.872  0.00  0.00    +0.000 A 
ENDBRANCH  18  19
ENDBRANCH   4  18
TORSDOF 3
ENDMDL
