MODEL 1
REMARK VINA RESULT:      -8.5      0.000      0.000
REMARK  Name = 
REMARK  10 active torsions:
REMARK  status: ('A' for Active; 'I' for Inactive)
REMARK    1  A    between atoms: C_1  and  C_2
REMARK    2  A    between atoms: C_3  and  C_4
REMARK    3  A    between atoms: N_6  and  C_7
REMARK    4  A    between atoms: C_7  and  C_8
REMARK    5  A    between atoms: C_14  and  C_15
REMARK    6  A    between atoms: C_20  and  O_21
REMARK    7  A    between atoms: C_22  and  C_23
REMARK    8  A    between atoms: N_25  and  C_26
REMARK    9  A    between atoms: C_26  and  C_27
REMARK   10  A    between atoms: C_33  and  C_34
REMARK                            x       y       z     vdW  Elec       q    Type
REMARK                         _______ _______ _______ _____ _____    ______ ____
ROOT
ATOM      1  C   UNL     1       0.977   7.852  21.188  0.00  0.00    +0.000 C 
ATOM      2  C   UNL     1       0.470   9.227  20.829  0.00  0.00    +0.000 C 
ATOM      3  C   UNL     1       0.674   9.897  19.667  0.00  0.00    +0.000 C 
ATOM      4  C   UNL     1      -0.138  11.209  19.406  0.00  0.00    +0.000 C 
ATOM      5  C   UNL     1      -0.686  11.854  20.699  0.00  0.00    +0.000 C 
ATOM      6  C   UNL     1      -0.809  11.087  21.814  0.00  0.00    +0.000 C 
ATOM      7  C   UNL     1      -1.446  11.479  23.132  0.00  0.00    +0.000 C 
ATOM      8  N   UNL     1      -0.340   9.783  21.806  0.00  0.00    +0.000 N 
ATOM      9  H   UNL     1      -0.409   9.279  22.688  0.00  0.00    +0.000 HD
ENDROOT
BRANCH   4  10
ATOM     10  C   UNL     1      -1.298  10.911  18.431  0.00  0.00    +0.000 A 
ATOM     11  C   UNL     1      -2.072   9.744  18.580  0.00  0.00    +0.000 A 
ATOM     12  C   UNL     1      -3.076   9.418  17.669  0.00  0.00    +0.000 A 
ATOM     13  C   UNL     1      -3.330  10.254  16.586  0.00  0.00    +0.000 A 
ATOM     14  C   UNL     1      -2.600  11.433  16.432  0.00  0.00    +0.000 A 
ATOM     15  C   UNL     1      -1.606  11.759  17.357  0.00  0.00    +0.000 A 
BRANCH  15  16
ATOM     16  O   UNL     1      -0.962  12.960  17.258  0.00  0.00    +0.000 OA
ATOM     17  H   UNL     1      -0.810  13.301  18.157  0.00  0.00    +0.000 HD
ENDBRANCH  15  16
ENDBRANCH   4  10
BRANCH   3  18
ATOM     18  C   UNL     1       1.557   9.444  18.530  0.00  0.00    +0.000 C 
ATOM     19  O   UNL     1       1.715  10.139  17.531  0.00  0.00    +0.000 OA
ATOM     20  N   UNL     1       2.235   8.258  18.697  0.00  0.00    +0.000 N 
ATOM     21  H   UNL     1       2.274   7.831  19.609  0.00  0.00    +0.000 HD
BRANCH  20  22
ATOM     22  C   UNL     1       3.154   7.745  17.695  0.00  0.00    +0.000 C 
BRANCH  22  23
ATOM     23  C   UNL     1       3.151   6.232  17.634  0.00  0.00    +0.000 A 
ATOM     24  C   UNL     1       4.263   5.526  17.146  0.00  0.00    +0.000 A 
ATOM     25  C   UNL     1       4.260   4.132  17.104  0.00  0.00    +0.000 A 
ATOM     26  C   UNL     1       3.153   3.414  17.559  0.00  0.00    +0.000 A 
ATOM     27  C   UNL     1       2.050   4.100  18.066  0.00  0.00    +0.000 A 
ATOM     28  C   UNL     1       2.051   5.498  18.107  0.00  0.00    +0.000 A 
ENDBRANCH  22  23
ENDBRANCH  20  22
ENDBRANCH   3  18
BRANCH   5  29
ATOM     29  C   UNL     1      -1.019  13.320  20.751  0.00  0.00    +0.000 C 
ATOM     30  O   UNL     1      -1.969  13.735  21.413  0.00  0.00    +0.000 OA
ATOM     31  N   UNL     1      -0.211  14.189  20.070  0.00  0.00    +0.000 N 
ATOM     32  H   UNL     1       0.629  13.872  19.605  0.00  0.00    +0.000 HD
BRANCH  31  33
ATOM     33  C   UNL     1      -0.502  15.606  20.010  0.00  0.00    +0.000 C 
BRANCH  33  34
ATOM     34  C   UNL     1       0.345  16.305  18.981  0.00  0.00    +0.000 A 
ATOM     35  C   UNL     1       1.682  15.935  18.781  0.00  0.00    +0.000 A 
ATOM     36  C   UNL     1       2.461  16.590  17.826  0.00  0.00    +0.000 A 
ATOM     37  C   UNL     1       1.914  17.623  17.067  0.00  0.00    +0.000 A 
ATOM     38  C   UNL     1       0.588  18.004  17.261  0.00  0.00    +0.000 A 
ATOM     39  C   UNL     1      -0.193  17.350  18.216  0.00  0.00    +0.000 A 
ENDBRANCH  33  34
ENDBRANCH  31  33
ENDBRANCH   5  29
TORSDOF 8
ENDMDL
MODEL 2
REMARK VINA RESULT:      -8.4      0.139      1.160
REMARK  Name = 
REMARK  10 active torsions:
REMARK  status: ('A' for Active; 'I' for Inactive)
REMARK    1  A    between atoms: C_1  and  C_2
REMARK    2  A    between atoms: C_3  and  C_4
REMARK    3  A    between atoms: N_6  and  C_7
REMARK    4  A    between atoms: C_7  and  C_8
REMARK    5  A    between atoms: C_14  and  C_15
REMARK    6  A    between atoms: C_20  and  O_21
REMARK    7  A    between atoms: C_22  and  C_23
REMARK    8  A    between atoms: N_25  and  C_26
REMARK    9  A    between atoms: C_26  and  C_27
REMARK   10  A    between atoms: C_33  and  C_34
REMARK                            x       y       z     vdW  Elec       q    Type
REMARK                         _______ _______ _______ _____ _____    ______ ____
ROOT
ATOM      1  C   UNL     1       1.023   7.891  21.188  0.00  0.00    +0.000 C 
ATOM      2  C   UNL     1       0.497   9.261  20.835  0.00  0.00    +0.000 C 
ATOM      3  C   UNL     1       0.710   9.947  19.683  0.00  0.00    +0.000 C 
ATOM      4  C   UNL     1      -0.120  11.247  19.422  0.00  0.00    +0.000 C 
ATOM      5  C   UNL     1      -0.702  11.869  20.712  0.00  0.00    +0.000 C 
ATOM      6  C   UNL     1      -0.830  11.088  21.816  0.00  0.00    +0.000 C 
ATOM      7  C   UNL     1      -1.496  11.455  23.128  0.00  0.00    +0.000 C 
ATOM      8  N   UNL     1      -0.338   9.792  21.803  0.00  0.00    +0.000 N 
ATOM      9  H   UNL     1      -0.413   9.278  22.678  0.00  0.00    +0.000 HD
ENDROOT
BRANCH   4  10
ATOM     10  C   UNL     1      -1.258  10.940  18.424  0.00  0.00    +0.000 A 
ATOM     11  C   UNL     1      -1.994   9.743  18.529  0.00  0.00    +0.000 A 
ATOM     12  C   UNL     1      -2.976   9.412  17.596  0.00  0.00    +0.000 A 
ATOM     13  C   UNL     1      -3.245  10.270  16.535  0.00  0.00    +0.000 A 
ATOM     14  C   UNL     1      -2.553  11.476  16.424  0.00  0.00    +0.000 A 
ATOM     15  C   UNL     1      -1.582  11.808  17.371  0.00  0.00    +0.000 A 
BRANCH  15  16
ATOM     16  O   UNL     1      -0.977  13.032  17.315  0.00  0.00    +0.000 OA
ATOM     17  H   UNL     1      -0.602  13.228  18.191  0.00  0.00    +0.000 HD
ENDBRANCH  15  16
ENDBRANCH   4  10
BRANCH   3  18
ATOM     18  C   UNL     1       1.620   9.521  18.557  0.00  0.00    +0.000 C 
ATOM     19  O   UNL     1       1.915  10.294  17.650  0.00  0.00    +0.000 OA
ATOM     20  N   UNL     1       2.163   8.259  18.633  0.00  0.00    +0.000 N 
ATOM     21  H   UNL     1       2.095   7.739  19.493  0.00  0.00    +0.000 HD
BRANCH  20  22
ATOM     22  C   UNL     1       3.093   7.756  17.636  0.00  0.00    +0.000 C 
BRANCH  22  23
ATOM     23  C   UNL     1       3.156   6.243  17.620  0.00  0.00    +0.000 A 
ATOM     24  C   UNL     1       2.064   5.469  18.045  0.00  0.00    +0.000 A 
ATOM     25  C   UNL     1       2.123   4.076  18.016  0.00  0.00    +0.000 A 
ATOM     26  C   UNL     1       3.269   3.428  17.549  0.00  0.00    +0.000 A 
ATOM     27  C   UNL     1       4.352   4.182  17.104  0.00  0.00    +0.000 A 
ATOM     28  C   UNL     1       4.295   5.580  17.135  0.00  0.00    +0.000 A 
ENDBRANCH  22  23
ENDBRANCH  20  22
ENDBRANCH   3  18
BRANCH   5  29
ATOM     29  C   UNL     1      -1.061  13.328  20.773  0.00  0.00    +0.000 C 
ATOM     30  O   UNL     1      -2.134  13.701  21.246  0.00  0.00    +0.000 OA
ATOM     31  N   UNL     1      -0.143  14.237  20.322  0.00  0.00    +0.000 N 
ATOM     32  H   UNL     1       0.779  13.950  20.025  0.00  0.00    +0.000 HD
BRANCH  31  33
ATOM     33  C   UNL     1      -0.438  15.654  20.280  0.00  0.00    +0.000 C 
BRANCH  33  34
ATOM     34  C   UNL     1       0.324  16.349  19.184  0.00  0.00    +0.000 A 
ATOM     35  C   UNL     1      -0.309  17.275  18.345  0.00  0.00    +0.000 A 
ATOM     36  C   UNL     1       0.405  17.913  17.330  0.00  0.00    +0.000 A 
ATOM     37  C   UNL     1       1.756  17.626  17.138  0.00  0.00    +0.000 A 
ATOM     38  C   UNL     1       2.395  16.702  17.962  0.00  0.00    +0.000 A 
ATOM     39  C   UNL     1       1.682  16.063  18.979  0.00  0.00    +0.000 A 
ENDBRANCH  33  34
ENDBRANCH  31  33
ENDBRANCH   5  29
TORSDOF 8
ENDMDL
MODEL 3
REMARK VINA RESULT:      -8.4      3.704      8.487
REMARK  Name = 
REMARK  10 active torsions:
REMARK  status: ('A' for Active; 'I' for Inactive)
REMARK    1  A    between atoms: C_1  and  C_2
REMARK    2  A    between atoms: C_3  and  C_4
REMARK    3  A    between atoms: N_6  and  C_7
REMARK    4  A    between atoms: C_7  and  C_8
REMARK    5  A    between atoms: C_14  and  C_15
REMARK    6  A    between atoms: C_20  and  O_21
REMARK    7  A    between atoms: C_22  and  C_23
REMARK    8  A    between atoms: N_25  and  C_26
REMARK    9  A    between atoms: C_26  and  C_27
REMARK   10  A    between atoms: C_33  and  C_34
REMARK                            x       y       z     vdW  Elec       q    Type
REMARK                         _______ _______ _______ _____ _____    ______ ____
ROOT
ATOM      1  C   UNL     1       2.357  13.680  18.084  0.00  0.00    +0.000 C 
ATOM      2  C   UNL     1       1.905  12.529  18.949  0.00  0.00    +0.000 C 
ATOM      3  C   UNL     1       1.779  12.520  20.299  0.00  0.00    +0.000 C 
ATOM      4  C   UNL     1       1.068  11.303  20.978  0.00  0.00    +0.000 C 
ATOM      5  C   UNL     1       1.053  10.035  20.094  0.00  0.00    +0.000 C 
ATOM      6  C   UNL     1       1.230  10.169  18.753  0.00  0.00    +0.000 C 
ATOM      7  C   UNL     1       1.115   9.085  17.700  0.00  0.00    +0.000 C 
ATOM      8  N   UNL     1       1.531  11.412  18.220  0.00  0.00    +0.000 N 
ATOM      9  H   UNL     1       1.708  11.436  17.218  0.00  0.00    +0.000 HD
ENDROOT
BRANCH   4  10
ATOM     10  C   UNL     1      -0.375  11.697  21.361  0.00  0.00    +0.000 A 
ATOM     11  C   UNL     1      -1.180  12.418  20.458  0.00  0.00    +0.000 A 
ATOM     12  C   UNL     1      -2.459  12.847  20.810  0.00  0.00    +0.000 A 
ATOM     13  C   UNL     1      -2.964  12.565  22.074  0.00  0.00    +0.000 A 
ATOM     14  C   UNL     1      -2.201  11.825  22.978  0.00  0.00    +0.000 A 
ATOM     15  C   UNL     1      -0.927  11.386  22.612  0.00  0.00    +0.000 A 
BRANCH  15  16
ATOM     16  O   UNL     1      -0.223  10.579  23.462  0.00  0.00    +0.000 OA
ATOM     17  H   UNL     1      -0.116   9.709  23.040  0.00  0.00    +0.000 HD
ENDBRANCH  15  16
ENDBRANCH   4  10
BRANCH   3  18
ATOM     18  C   UNL     1       2.180  13.639  21.231  0.00  0.00    +0.000 C 
ATOM     19  O   UNL     1       1.343  14.248  21.891  0.00  0.00    +0.000 OA
ATOM     20  N   UNL     1       3.526  13.891  21.364  0.00  0.00    +0.000 N 
ATOM     21  H   UNL     1       4.195  13.231  20.999  0.00  0.00    +0.000 HD
BRANCH  20  22
ATOM     22  C   UNL     1       4.037  14.907  22.269  0.00  0.00    +0.000 C 
BRANCH  22  23
ATOM     23  C   UNL     1       5.194  14.403  23.105  0.00  0.00    +0.000 A 
ATOM     24  C   UNL     1       5.710  15.170  24.162  0.00  0.00    +0.000 A 
ATOM     25  C   UNL     1       6.767  14.696  24.939  0.00  0.00    +0.000 A 
ATOM     26  C   UNL     1       7.322  13.441  24.683  0.00  0.00    +0.000 A 
ATOM     27  C   UNL     1       6.807  12.659  23.652  0.00  0.00    +0.000 A 
ATOM     28  C   UNL     1       5.748  13.134  22.871  0.00  0.00    +0.000 A 
ENDBRANCH  22  23
ENDBRANCH  20  22
ENDBRANCH   3  18
BRANCH   5  29
ATOM     29  C   UNL     1       0.912   8.668  20.705  0.00  0.00    +0.000 C 
ATOM     30  O   UNL     1      -0.089   8.359  21.351  0.00  0.00    +0.000 OA
ATOM     31  N   UNL     1       1.912   7.759  20.490  0.00  0.00    +0.000 N 
ATOM     32  H   UNL     1       2.690   7.968  19.879  0.00  0.00    +0.000 HD
BRANCH  31  33
ATOM     33  C   UNL     1       1.887   6.447  21.101  0.00  0.00    +0.000 C 
BRANCH  33  34
ATOM     34  C   UNL     1       1.708   5.360  20.075  0.00  0.00    +0.000 A 
ATOM     35  C   UNL     1       1.107   4.141  20.417  0.00  0.00    +0.000 A 
ATOM     36  C   UNL     1       0.947   3.139  19.460  0.00  0.00    +0.000 A 
ATOM     37  C   UNL     1       1.393   3.340  18.155  0.00  0.00    +0.000 A 
ATOM     38  C   UNL     1       1.998   4.545  17.804  0.00  0.00    +0.000 A 
ATOM     39  C   UNL     1       2.159   5.550  18.760  0.00  0.00    +0.000 A 
ENDBRANCH  33  34
ENDBRANCH  31  33
ENDBRANCH   5  29
TORSDOF 8
ENDMDL
MODEL 4
REMARK VINA RESULT:      -8.4      3.676      8.475
REMARK  Name = 
REMARK  10 active torsions:
REMARK  status: ('A' for Active; 'I' for Inactive)
REMARK    1  A    between atoms: C_1  and  C_2
REMARK    2  A    between atoms: C_3  and  C_4
REMARK    3  A    between atoms: N_6  and  C_7
REMARK    4  A    between atoms: C_7  and  C_8
REMARK    5  A    between atoms: C_14  and  C_15
REMARK    6  A    between atoms: C_20  and  O_21
REMARK    7  A    between atoms: C_22  and  C_23
REMARK    8  A    between atoms: N_25  and  C_26
REMARK    9  A    between atoms: C_26  and  C_27
REMARK   10  A    between atoms: C_33  and  C_34
REMARK                            x       y       z     vdW  Elec       q    Type
REMARK                         _______ _______ _______ _____ _____    ______ ____
ROOT
ATOM      1  C   UNL     1       2.368  13.645  18.069  0.00  0.00    +0.000 C 
ATOM      2  C   UNL     1       1.910  12.499  18.937  0.00  0.00    +0.000 C 
ATOM      3  C   UNL     1       1.805  12.488  20.289  0.00  0.00    +0.000 C 
ATOM      4  C   UNL     1       1.084  11.281  20.975  0.00  0.00    +0.000 C 
ATOM      5  C   UNL     1       1.034  10.016  20.087  0.00  0.00    +0.000 C 
ATOM      6  C   UNL     1       1.193  10.151  18.744  0.00  0.00    +0.000 C 
ATOM      7  C   UNL     1       1.043   9.073  17.690  0.00  0.00    +0.000 C 
ATOM      8  N   UNL     1       1.506  11.391  18.210  0.00  0.00    +0.000 N 
ATOM      9  H   UNL     1       1.668  11.416  17.206  0.00  0.00    +0.000 HD
ENDROOT
BRANCH   4  10
ATOM     10  C   UNL     1      -0.346  11.697  21.381  0.00  0.00    +0.000 A 
ATOM     11  C   UNL     1      -1.148  12.447  20.499  0.00  0.00    +0.000 A 
ATOM     12  C   UNL     1      -2.413  12.897  20.873  0.00  0.00    +0.000 A 
ATOM     13  C   UNL     1      -2.908  12.606  22.139  0.00  0.00    +0.000 A 
ATOM     14  C   UNL     1      -2.149  11.838  23.023  0.00  0.00    +0.000 A 
ATOM     15  C   UNL     1      -0.888  11.380  22.635  0.00  0.00    +0.000 A 
BRANCH  15  16
ATOM     16  O   UNL     1      -0.190  10.547  23.465  0.00  0.00    +0.000 OA
ATOM     17  H   UNL     1       0.667  10.350  23.049  0.00  0.00    +0.000 HD
ENDBRANCH  15  16
ENDBRANCH   4  10
BRANCH   3  18
ATOM     18  C   UNL     1       2.239  13.596  21.218  0.00  0.00    +0.000 C 
ATOM     19  O   UNL     1       1.443  14.134  21.983  0.00  0.00    +0.000 OA
ATOM     20  N   UNL     1       3.576  13.922  21.223  0.00  0.00    +0.000 N 
ATOM     21  H   UNL     1       4.238  13.314  20.766  0.00  0.00    +0.000 HD
BRANCH  20  22
ATOM     22  C   UNL     1       4.122  14.935  22.110  0.00  0.00    +0.000 C 
BRANCH  22  23
ATOM     23  C   UNL     1       5.324  14.436  22.883  0.00  0.00    +0.000 A 
ATOM     24  C   UNL     1       6.460  13.948  22.217  0.00  0.00    +0.000 A 
ATOM     25  C   UNL     1       7.571  13.502  22.934  0.00  0.00    +0.000 A 
ATOM     26  C   UNL     1       7.573  13.546  24.329  0.00  0.00    +0.000 A 
ATOM     27  C   UNL     1       6.462  14.047  25.003  0.00  0.00    +0.000 A 
ATOM     28  C   UNL     1       5.347  14.493  24.286  0.00  0.00    +0.000 A 
ENDBRANCH  22  23
ENDBRANCH  20  22
ENDBRANCH   3  18
BRANCH   5  29
ATOM     29  C   UNL     1       0.879   8.650  20.696  0.00  0.00    +0.000 C 
ATOM     30  O   UNL     1      -0.132   8.344  21.327  0.00  0.00    +0.000 OA
ATOM     31  N   UNL     1       1.880   7.738  20.497  0.00  0.00    +0.000 N 
ATOM     32  H   UNL     1       2.668   7.944  19.898  0.00  0.00    +0.000 HD
BRANCH  31  33
ATOM     33  C   UNL     1       1.841   6.425  21.107  0.00  0.00    +0.000 C 
BRANCH  33  34
ATOM     34  C   UNL     1       1.711   5.337  20.076  0.00  0.00    +0.000 A 
ATOM     35  C   UNL     1       2.162   5.533  18.764  0.00  0.00    +0.000 A 
ATOM     36  C   UNL     1       2.036   4.519  17.814  0.00  0.00    +0.000 A 
ATOM     37  C   UNL     1       1.450   3.302  18.163  0.00  0.00    +0.000 A 
ATOM     38  C   UNL     1       0.992   3.098  19.463  0.00  0.00    +0.000 A 
ATOM     39  C   UNL     1       1.118   4.111  20.415  0.00  0.00    +0.000 A 
ENDBRANCH  33  34
ENDBRANCH  31  33
ENDBRANCH   5  29
TORSDOF 8
ENDMDL
MODEL 5
REMARK VINA RESULT:      -8.2      2.675      9.008
REMARK  Name = 
REMARK  10 active torsions:
REMARK  status: ('A' for Active; 'I' for Inactive)
REMARK    1  A    between atoms: C_1  and  C_2
REMARK    2  A    between atoms: C_3  and  C_4
REMARK    3  A    between atoms: N_6  and  C_7
REMARK    4  A    between atoms: C_7  and  C_8
REMARK    5  A    between atoms: C_14  and  C_15
REMARK    6  A    between atoms: C_20  and  O_21
REMARK    7  A    between atoms: C_22  and  C_23
REMARK    8  A    between atoms: N_25  and  C_26
REMARK    9  A    between atoms: C_26  and  C_27
REMARK   10  A    between atoms: C_33  and  C_34
REMARK                            x       y       z     vdW  Elec       q    Type
REMARK                         _______ _______ _______ _____ _____    ______ ____
ROOT
ATOM      1  C   UNL     1       2.303  14.097  18.387  0.00  0.00    +0.000 C 
ATOM      2  C   UNL     1       1.744  12.919  19.147  0.00  0.00    +0.000 C 
ATOM      3  C   UNL     1       1.298  12.909  20.428  0.00  0.00    +0.000 C 
ATOM      4  C   UNL     1       0.539  11.643  20.947  0.00  0.00    +0.000 C 
ATOM      5  C   UNL     1       0.834  10.373  20.117  0.00  0.00    +0.000 C 
ATOM      6  C   UNL     1       1.317  10.512  18.855  0.00  0.00    +0.000 C 
ATOM      7  C   UNL     1       1.541   9.416  17.832  0.00  0.00    +0.000 C 
ATOM      8  N   UNL     1       1.642  11.771  18.378  0.00  0.00    +0.000 N 
ATOM      9  H   UNL     1       2.053  11.804  17.447  0.00  0.00    +0.000 HD
ENDROOT
BRANCH   4  10
ATOM     10  C   UNL     1      -0.979  11.923  20.964  0.00  0.00    +0.000 A 
ATOM     11  C   UNL     1      -1.698  12.026  19.757  0.00  0.00    +0.000 A 
ATOM     12  C   UNL     1      -3.053  12.351  19.746  0.00  0.00    +0.000 A 
ATOM     13  C   UNL     1      -3.724  12.579  20.942  0.00  0.00    +0.000 A 
ATOM     14  C   UNL     1      -3.045  12.453  22.155  0.00  0.00    +0.000 A 
ATOM     15  C   UNL     1      -1.690  12.113  22.158  0.00  0.00    +0.000 A 
BRANCH  15  16
ATOM     16  O   UNL     1      -1.054  11.894  23.347  0.00  0.00    +0.000 OA
ATOM     17  H   UNL     1      -1.620  11.324  23.896  0.00  0.00    +0.000 HD
ENDBRANCH  15  16
ENDBRANCH   4  10
BRANCH   3  18
ATOM     18  C   UNL     1       1.377  14.061  21.401  0.00  0.00    +0.000 C 
ATOM     19  O   UNL     1       2.392  14.271  22.057  0.00  0.00    +0.000 OA
ATOM     20  N   UNL     1       0.292  14.906  21.460  0.00  0.00    +0.000 N 
ATOM     21  H   UNL     1      -0.422  14.851  20.751  0.00  0.00    +0.000 HD
BRANCH  20  22
ATOM     22  C   UNL     1       0.271  16.078  22.319  0.00  0.00    +0.000 C 
BRANCH  22  23
ATOM     23  C   UNL     1      -0.914  16.078  23.262  0.00  0.00    +0.000 A 
ATOM     24  C   UNL     1      -2.151  16.614  22.868  0.00  0.00    +0.000 A 
ATOM     25  C   UNL     1      -3.243  16.601  23.736  0.00  0.00    +0.000 A 
ATOM     26  C   UNL     1      -3.126  16.040  25.009  0.00  0.00    +0.000 A 
ATOM     27  C   UNL     1      -1.911  15.485  25.406  0.00  0.00    +0.000 A 
ATOM     28  C   UNL     1      -0.814  15.500  24.538  0.00  0.00    +0.000 A 
ENDBRANCH  22  23
ENDBRANCH  20  22
ENDBRANCH   3  18
BRANCH   5  29
ATOM     29  C   UNL     1       0.654   9.003  20.711  0.00  0.00    +0.000 C 
ATOM     30  O   UNL     1      -0.391   8.686  21.279  0.00  0.00    +0.000 OA
ATOM     31  N   UNL     1       1.672   8.100  20.568  0.00  0.00    +0.000 N 
ATOM     32  H   UNL     1       2.493   8.314  20.018  0.00  0.00    +0.000 HD
BRANCH  31  33
ATOM     33  C   UNL     1       1.607   6.784  21.171  0.00  0.00    +0.000 C 
BRANCH  33  34
ATOM     34  C   UNL     1       1.685   5.694  20.135  0.00  0.00    +0.000 A 
ATOM     35  C   UNL     1       1.122   4.434  20.377  0.00  0.00    +0.000 A 
ATOM     36  C   UNL     1       1.200   3.429  19.412  0.00  0.00    +0.000 A 
ATOM     37  C   UNL     1       1.846   3.671  18.200  0.00  0.00    +0.000 A 
ATOM     38  C   UNL     1       2.414   4.918  17.951  0.00  0.00    +0.000 A 
ATOM     39  C   UNL     1       2.337   5.925  18.915  0.00  0.00    +0.000 A 
ENDBRANCH  33  34
ENDBRANCH  31  33
ENDBRANCH   5  29
TORSDOF 8
ENDMDL
MODEL 6
REMARK VINA RESULT:      -8.1      3.139      5.552
REMARK  Name = 
REMARK  10 active torsions:
REMARK  status: ('A' for Active; 'I' for Inactive)
REMARK    1  A    between atoms: C_1  and  C_2
REMARK    2  A    between atoms: C_3  and  C_4
REMARK    3  A    between atoms: N_6  and  C_7
REMARK    4  A    between atoms: C_7  and  C_8
REMARK    5  A    between atoms: C_14  and  C_15
REMARK    6  A    between atoms: C_20  and  O_21
REMARK    7  A    between atoms: C_22  and  C_23
REMARK    8  A    between atoms: N_25  and  C_26
REMARK    9  A    between atoms: C_26  and  C_27
REMARK   10  A    between atoms: C_33  and  C_34
REMARK                            x       y       z     vdW  Elec       q    Type
REMARK                         _______ _______ _______ _____ _____    ______ ____
ROOT
ATOM      1  C   UNL     1      -1.708   9.843  17.047  0.00  0.00    +0.000 C 
ATOM      2  C   UNL     1      -1.717  10.674  18.306  0.00  0.00    +0.000 C 
ATOM      3  C   UNL     1      -0.702  10.827  19.193  0.00  0.00    +0.000 C 
ATOM      4  C   UNL     1      -0.837  11.919  20.305  0.00  0.00    +0.000 C 
ATOM      5  C   UNL     1      -2.300  12.337  20.575  0.00  0.00    +0.000 C 
ATOM      6  C   UNL     1      -3.238  12.096  19.621  0.00  0.00    +0.000 C 
ATOM      7  C   UNL     1      -4.686  12.544  19.624  0.00  0.00    +0.000 C 
ATOM      8  N   UNL     1      -2.893  11.384  18.484  0.00  0.00    +0.000 N 
ATOM      9  H   UNL     1      -3.652  11.186  17.834  0.00  0.00    +0.000 HD
ENDROOT
BRANCH   4  10
ATOM     10  C   UNL     1       0.003  13.155  19.917  0.00  0.00    +0.000 A 
ATOM     11  C   UNL     1      -0.514  14.117  19.026  0.00  0.00    +0.000 A 
ATOM     12  C   UNL     1       0.254  15.201  18.605  0.00  0.00    +0.000 A 
ATOM     13  C   UNL     1       1.558  15.351  19.066  0.00  0.00    +0.000 A 
ATOM     14  C   UNL     1       2.085  14.432  19.973  0.00  0.00    +0.000 A 
ATOM     15  C   UNL     1       1.304  13.356  20.401  0.00  0.00    +0.000 A 
BRANCH  15  16
ATOM     16  O   UNL     1       1.788  12.514  21.364  0.00  0.00    +0.000 OA
ATOM     17  H   UNL     1       2.566  12.932  21.772  0.00  0.00    +0.000 HD
ENDBRANCH  15  16
ENDBRANCH   4  10
BRANCH   3  18
ATOM     18  C   UNL     1       0.618  10.096  19.160  0.00  0.00    +0.000 C 
ATOM     19  O   UNL     1       1.490  10.392  18.348  0.00  0.00    +0.000 OA
ATOM     20  N   UNL     1       0.829   9.137  20.125  0.00  0.00    +0.000 N 
ATOM     21  H   UNL     1       0.203   9.079  20.913  0.00  0.00    +0.000 HD
BRANCH  20  22
ATOM     22  C   UNL     1       2.078   8.403  20.226  0.00  0.00    +0.000 C 
BRANCH  22  23
ATOM     23  C   UNL     1       1.945   6.973  19.749  0.00  0.00    +0.000 A 
ATOM     24  C   UNL     1       2.275   6.616  18.431  0.00  0.00    +0.000 A 
ATOM     25  C   UNL     1       2.164   5.294  18.000  0.00  0.00    +0.000 A 
ATOM     26  C   UNL     1       1.732   4.300  18.880  0.00  0.00    +0.000 A 
ATOM     27  C   UNL     1       1.421   4.634  20.196  0.00  0.00    +0.000 A 
ATOM     28  C   UNL     1       1.531   5.960  20.629  0.00  0.00    +0.000 A 
ENDBRANCH  22  23
ENDBRANCH  20  22
ENDBRANCH   3  18
BRANCH   5  29
ATOM     29  C   UNL     1      -2.701  12.942  21.892  0.00  0.00    +0.000 C 
ATOM     30  O   UNL     1      -2.269  14.038  22.249  0.00  0.00    +0.000 OA
ATOM     31  N   UNL     1      -3.593  12.257  22.672  0.00  0.00    +0.000 N 
ATOM     32  H   UNL     1      -4.030  11.405  22.346  0.00  0.00    +0.000 HD
BRANCH  31  33
ATOM     33  C   UNL     1      -3.976  12.734  23.984  0.00  0.00    +0.000 C 
BRANCH  33  34
ATOM     34  C   UNL     1      -5.314  13.424  23.956  0.00  0.00    +0.000 A 
ATOM     35  C   UNL     1      -6.500  12.694  24.111  0.00  0.00    +0.000 A 
ATOM     36  C   UNL     1      -7.736  13.341  24.082  0.00  0.00    +0.000 A 
ATOM     37  C   UNL     1      -7.799  14.720  23.891  0.00  0.00    +0.000 A 
ATOM     38  C   UNL     1      -6.627  15.455  23.729  0.00  0.00    +0.000 A 
ATOM     39  C   UNL     1      -5.389  14.810  23.758  0.00  0.00    +0.000 A 
ENDBRANCH  33  34
ENDBRANCH  31  33
ENDBRANCH   5  29
TORSDOF 8
ENDMDL
MODEL 7
REMARK VINA RESULT:      -8.1      2.015      3.259
REMARK  Name = 
REMARK  10 active torsions:
REMARK  status: ('A' for Active; 'I' for Inactive)
REMARK    1  A    between atoms: C_1  and  C_2
REMARK    2  A    between atoms: C_3  and  C_4
REMARK    3  A    between atoms: N_6  and  C_7
REMARK    4  A    between atoms: C_7  and  C_8
REMARK    5  A    between atoms: C_14  and  C_15
REMARK    6  A    between atoms: C_20  and  O_21
REMARK    7  A    between atoms: C_22  and  C_23
REMARK    8  A    between atoms: N_25  and  C_26
REMARK    9  A    between atoms: C_26  and  C_27
REMARK   10  A    between atoms: C_33  and  C_34
REMARK                            x       y       z     vdW  Elec       q    Type
REMARK                         _______ _______ _______ _____ _____    ______ ____
ROOT
ATOM      1  C   UNL     1       1.015   7.690  21.121  0.00  0.00    +0.000 C 
ATOM      2  C   UNL     1       0.512   9.083  20.833  0.00  0.00    +0.000 C 
ATOM      3  C   UNL     1       0.736   9.820  19.716  0.00  0.00    +0.000 C 
ATOM      4  C   UNL     1      -0.073  11.144  19.516  0.00  0.00    +0.000 C 
ATOM      5  C   UNL     1      -0.645  11.713  20.835  0.00  0.00    +0.000 C 
ATOM      6  C   UNL     1      -0.787  10.882  21.901  0.00  0.00    +0.000 C 
ATOM      7  C   UNL     1      -1.448  11.198  23.228  0.00  0.00    +0.000 C 
ATOM      8  N   UNL     1      -0.315   9.582  21.826  0.00  0.00    +0.000 N 
ATOM      9  H   UNL     1      -0.400   9.027  22.676  0.00  0.00    +0.000 HD
ENDROOT
BRANCH   4  10
ATOM     10  C   UNL     1      -1.215  10.903  18.505  0.00  0.00    +0.000 A 
ATOM     11  C   UNL     1      -1.980   9.721  18.563  0.00  0.00    +0.000 A 
ATOM     12  C   UNL     1      -2.966   9.450  17.616  0.00  0.00    +0.000 A 
ATOM     13  C   UNL     1      -3.212  10.354  16.588  0.00  0.00    +0.000 A 
ATOM     14  C   UNL     1      -2.491  11.547  16.525  0.00  0.00    +0.000 A 
ATOM     15  C   UNL     1      -1.515  11.818  17.486  0.00  0.00    +0.000 A 
BRANCH  15  16
ATOM     16  O   UNL     1      -0.880  13.029  17.478  0.00  0.00    +0.000 OA
ATOM     17  H   UNL     1      -1.338  13.610  16.846  0.00  0.00    +0.000 HD
ENDBRANCH  15  16
ENDBRANCH   4  10
BRANCH   3  18
ATOM     18  C   UNL     1       1.640   9.434  18.570  0.00  0.00    +0.000 C 
ATOM     19  O   UNL     1       1.892  10.223  17.664  0.00  0.00    +0.000 OA
ATOM     20  N   UNL     1       2.228   8.191  18.627  0.00  0.00    +0.000 N 
ATOM     21  H   UNL     1       2.194   7.663  19.485  0.00  0.00    +0.000 HD
BRANCH  20  22
ATOM     22  C   UNL     1       3.157   7.727  17.611  0.00  0.00    +0.000 C 
BRANCH  22  23
ATOM     23  C   UNL     1       3.266   6.217  17.576  0.00  0.00    +0.000 A 
ATOM     24  C   UNL     1       2.219   5.406  18.043  0.00  0.00    +0.000 A 
ATOM     25  C   UNL     1       2.318   4.015  17.997  0.00  0.00    +0.000 A 
ATOM     26  C   UNL     1       3.460   3.407  17.471  0.00  0.00    +0.000 A 
ATOM     27  C   UNL     1       4.499   4.199  16.985  0.00  0.00    +0.000 A 
ATOM     28  C   UNL     1       4.401   5.593  17.033  0.00  0.00    +0.000 A 
ENDBRANCH  22  23
ENDBRANCH  20  22
ENDBRANCH   3  18
BRANCH   5  29
ATOM     29  C   UNL     1      -0.981  13.173  20.965  0.00  0.00    +0.000 C 
ATOM     30  O   UNL     1      -1.938  13.663  20.366  0.00  0.00    +0.000 OA
ATOM     31  N   UNL     1      -0.214  13.939  21.801  0.00  0.00    +0.000 N 
ATOM     32  H   UNL     1       0.511  13.528  22.373  0.00  0.00    +0.000 HD
BRANCH  31  33
ATOM     33  C   UNL     1      -0.426  15.366  21.928  0.00  0.00    +0.000 C 
BRANCH  33  34
ATOM     34  C   UNL     1      -1.368  15.689  23.057  0.00  0.00    +0.000 A 
ATOM     35  C   UNL     1      -2.338  16.691  22.918  0.00  0.00    +0.000 A 
ATOM     36  C   UNL     1      -3.205  16.986  23.970  0.00  0.00    +0.000 A 
ATOM     37  C   UNL     1      -3.108  16.288  25.173  0.00  0.00    +0.000 A 
ATOM     38  C   UNL     1      -2.143  15.294  25.326  0.00  0.00    +0.000 A 
ATOM     39  C   UNL     1      -1.274  14.997  24.274  0.00  0.00    +0.000 A 
ENDBRANCH  33  34
ENDBRANCH  31  33
ENDBRANCH   5  29
TORSDOF 8
ENDMDL
MODEL 8
REMARK VINA RESULT:      -8.1      3.312      8.586
REMARK  Name = 
REMARK  10 active torsions:
REMARK  status: ('A' for Active; 'I' for Inactive)
REMARK    1  A    between atoms: C_1  and  C_2
REMARK    2  A    between atoms: C_3  and  C_4
REMARK    3  A    between atoms: N_6  and  C_7
REMARK    4  A    between atoms: C_7  and  C_8
REMARK    5  A    between atoms: C_14  and  C_15
REMARK    6  A    between atoms: C_20  and  O_21
REMARK    7  A    between atoms: C_22  and  C_23
REMARK    8  A    between atoms: N_25  and  C_26
REMARK    9  A    between atoms: C_26  and  C_27
REMARK   10  A    between atoms: C_33  and  C_34
REMARK                            x       y       z     vdW  Elec       q    Type
REMARK                         _______ _______ _______ _____ _____    ______ ____
ROOT
ATOM      1  C   UNL     1       2.236  13.643  17.946  0.00  0.00    +0.000 C 
ATOM      2  C   UNL     1       1.808  12.507  18.841  0.00  0.00    +0.000 C 
ATOM      3  C   UNL     1       1.711  12.522  20.194  0.00  0.00    +0.000 C 
ATOM      4  C   UNL     1       1.021  11.315  20.910  0.00  0.00    +0.000 C 
ATOM      5  C   UNL     1       0.993  10.031  20.050  0.00  0.00    +0.000 C 
ATOM      6  C   UNL     1       1.140  10.141  18.704  0.00  0.00    +0.000 C 
ATOM      7  C   UNL     1       1.008   9.037  17.673  0.00  0.00    +0.000 C 
ATOM      8  N   UNL     1       1.424  11.375  18.141  0.00  0.00    +0.000 N 
ATOM      9  H   UNL     1       1.579  11.382  17.135  0.00  0.00    +0.000 HD
ENDROOT
BRANCH   4  10
ATOM     10  C   UNL     1      -0.416  11.709  21.317  0.00  0.00    +0.000 A 
ATOM     11  C   UNL     1      -1.246  12.404  20.415  0.00  0.00    +0.000 A 
ATOM     12  C   UNL     1      -2.519  12.834  20.786  0.00  0.00    +0.000 A 
ATOM     13  C   UNL     1      -2.993  12.579  22.069  0.00  0.00    +0.000 A 
ATOM     14  C   UNL     1      -2.205  11.866  22.973  0.00  0.00    +0.000 A 
ATOM     15  C   UNL     1      -0.937  11.426  22.588  0.00  0.00    +0.000 A 
BRANCH  15  16
ATOM     16  O   UNL     1      -0.208  10.644  23.441  0.00  0.00    +0.000 OA
ATOM     17  H   UNL     1      -0.250   9.725  23.124  0.00  0.00    +0.000 HD
ENDBRANCH  15  16
ENDBRANCH   4  10
BRANCH   3  18
ATOM     18  C   UNL     1       2.126  13.659  21.097  0.00  0.00    +0.000 C 
ATOM     19  O   UNL     1       1.293  14.386  21.630  0.00  0.00    +0.000 OA
ATOM     20  N   UNL     1       3.472  13.795  21.355  0.00  0.00    +0.000 N 
ATOM     21  H   UNL     1       4.104  13.053  21.100  0.00  0.00    +0.000 HD
BRANCH  20  22
ATOM     22  C   UNL     1       3.988  14.818  22.247  0.00  0.00    +0.000 C 
BRANCH  22  23
ATOM     23  C   UNL     1       5.467  15.068  22.041  0.00  0.00    +0.000 A 
ATOM     24  C   UNL     1       6.430  14.202  22.584  0.00  0.00    +0.000 A 
ATOM     25  C   UNL     1       7.791  14.430  22.380  0.00  0.00    +0.000 A 
ATOM     26  C   UNL     1       8.217  15.519  21.618  0.00  0.00    +0.000 A 
ATOM     27  C   UNL     1       7.273  16.376  21.055  0.00  0.00    +0.000 A 
ATOM     28  C   UNL     1       5.909  16.150  21.261  0.00  0.00    +0.000 A 
ENDBRANCH  22  23
ENDBRANCH  20  22
ENDBRANCH   3  18
BRANCH   5  29
ATOM     29  C   UNL     1       0.871   8.675  20.688  0.00  0.00    +0.000 C 
ATOM     30  O   UNL     1      -0.098   8.385  21.390  0.00  0.00    +0.000 OA
ATOM     31  N   UNL     1       1.851   7.754  20.438  0.00  0.00    +0.000 N 
ATOM     32  H   UNL     1       2.599   7.946  19.785  0.00  0.00    +0.000 HD
BRANCH  31  33
ATOM     33  C   UNL     1       1.846   6.451  21.070  0.00  0.00    +0.000 C 
BRANCH  33  34
ATOM     34  C   UNL     1       1.726   5.343  20.058  0.00  0.00    +0.000 A 
ATOM     35  C   UNL     1       2.238   5.495  18.763  0.00  0.00    +0.000 A 
ATOM     36  C   UNL     1       2.121   4.464  17.830  0.00  0.00    +0.000 A 
ATOM     37  C   UNL     1       1.485   3.274  18.180  0.00  0.00    +0.000 A 
ATOM     38  C   UNL     1       0.965   3.113  19.463  0.00  0.00    +0.000 A 
ATOM     39  C   UNL     1       1.082   4.143  20.398  0.00  0.00    +0.000 A 
ENDBRANCH  33  34
ENDBRANCH  31  33
ENDBRANCH   5  29
TORSDOF 8
ENDMDL
MODEL 9
REMARK VINA RESULT:      -8.1      2.173      3.375
REMARK  Name = 
REMARK  10 active torsions:
REMARK  status: ('A' for Active; 'I' for Inactive)
REMARK    1  A    between atoms: C_1  and  C_2
REMARK    2  A    between atoms: C_3  and  C_4
REMARK    3  A    between atoms: N_6  and  C_7
REMARK    4  A    between atoms: C_7  and  C_8
REMARK    5  A    between atoms: C_14  and  C_15
REMARK    6  A    between atoms: C_20  and  O_21
REMARK    7  A    between atoms: C_22  and  C_23
REMARK    8  A    between atoms: N_25  and  C_26
REMARK    9  A    between atoms: C_26  and  C_27
REMARK   10  A    between atoms: C_33  and  C_34
REMARK                            x       y       z     vdW  Elec       q    Type
REMARK                         _______ _______ _______ _____ _____    ______ ____
ROOT
ATOM      1  C   UNL     1       0.953   7.659  21.146  0.00  0.00    +0.000 C 
ATOM      2  C   UNL     1       0.491   9.063  20.839  0.00  0.00    +0.000 C 
ATOM      3  C   UNL     1       0.729   9.773  19.708  0.00  0.00    +0.000 C 
ATOM      4  C   UNL     1      -0.039  11.119  19.493  0.00  0.00    +0.000 C 
ATOM      5  C   UNL     1      -0.583  11.727  20.805  0.00  0.00    +0.000 C 
ATOM      6  C   UNL     1      -0.742  10.919  21.886  0.00  0.00    +0.000 C 
ATOM      7  C   UNL     1      -1.382  11.276  23.213  0.00  0.00    +0.000 C 
ATOM      8  N   UNL     1      -0.312   9.603  21.829  0.00  0.00    +0.000 N 
ATOM      9  H   UNL     1      -0.407   9.065  22.689  0.00  0.00    +0.000 HD
ENDROOT
BRANCH   4  10
ATOM     10  C   UNL     1      -1.196  10.898  18.494  0.00  0.00    +0.000 A 
ATOM     11  C   UNL     1      -1.947   9.706  18.527  0.00  0.00    +0.000 A 
ATOM     12  C   UNL     1      -2.947   9.454  17.589  0.00  0.00    +0.000 A 
ATOM     13  C   UNL     1      -3.221  10.388  16.595  0.00  0.00    +0.000 A 
ATOM     14  C   UNL     1      -2.514  11.591  16.558  0.00  0.00    +0.000 A 
ATOM     15  C   UNL     1      -1.524  11.841  17.510  0.00  0.00    +0.000 A 
BRANCH  15  16
ATOM     16  O   UNL     1      -0.903  13.059  17.530  0.00  0.00    +0.000 OA
ATOM     17  H   UNL     1      -1.531  13.717  17.876  0.00  0.00    +0.000 HD
ENDBRANCH  15  16
ENDBRANCH   4  10
BRANCH   3  18
ATOM     18  C   UNL     1       1.612   9.341  18.562  0.00  0.00    +0.000 C 
ATOM     19  O   UNL     1       1.779  10.059  17.581  0.00  0.00    +0.000 OA
ATOM     20  N   UNL     1       2.278   8.144  18.701  0.00  0.00    +0.000 N 
ATOM     21  H   UNL     1       2.310   7.694  19.603  0.00  0.00    +0.000 HD
BRANCH  20  22
ATOM     22  C   UNL     1       3.194   7.647  17.689  0.00  0.00    +0.000 C 
BRANCH  22  23
ATOM     23  C   UNL     1       3.178   6.136  17.591  0.00  0.00    +0.000 A 
ATOM     24  C   UNL     1       4.286   5.432  17.091  0.00  0.00    +0.000 A 
ATOM     25  C   UNL     1       4.271   4.039  17.015  0.00  0.00    +0.000 A 
ATOM     26  C   UNL     1       3.155   3.321  17.448  0.00  0.00    +0.000 A 
ATOM     27  C   UNL     1       2.057   4.005  17.966  0.00  0.00    +0.000 A 
ATOM     28  C   UNL     1       2.069   5.401  18.041  0.00  0.00    +0.000 A 
ENDBRANCH  22  23
ENDBRANCH  20  22
ENDBRANCH   3  18
BRANCH   5  29
ATOM     29  C   UNL     1      -0.871  13.199  20.914  0.00  0.00    +0.000 C 
ATOM     30  O   UNL     1       0.006  13.998  21.241  0.00  0.00    +0.000 OA
ATOM     31  N   UNL     1      -2.130  13.635  20.601  0.00  0.00    +0.000 N 
ATOM     32  H   UNL     1      -2.830  13.003  20.236  0.00  0.00    +0.000 HD
BRANCH  31  33
ATOM     33  C   UNL     1      -2.509  15.024  20.748  0.00  0.00    +0.000 C 
BRANCH  33  34
ATOM     34  C   UNL     1      -3.545  15.207  21.826  0.00  0.00    +0.000 A 
ATOM     35  C   UNL     1      -3.938  16.489  22.233  0.00  0.00    +0.000 A 
ATOM     36  C   UNL     1      -4.897  16.649  23.233  0.00  0.00    +0.000 A 
ATOM     37  C   UNL     1      -5.467  15.531  23.842  0.00  0.00    +0.000 A 
ATOM     38  C   UNL     1      -5.079  14.252  23.449  0.00  0.00    +0.000 A 
ATOM     39  C   UNL     1      -4.120  14.089  22.448  0.00  0.00    +0.000 A 
ENDBRANCH  33  34
ENDBRANCH  31  33
ENDBRANCH   5  29
TORSDOF 8
ENDMDL
