MODEL 1
REMARK VINA RESULT:      -7.3      0.000      0.000
REMARK  Name = 
REMARK  10 active torsions:
REMARK  status: ('A' for Active; 'I' for Inactive)
REMARK    1  A    between atoms: C_1  and  C_2
REMARK    2  A    between atoms: N_4  and  C_5
REMARK    3  A    between atoms: C_6  and  C_7
REMARK    4  A    between atoms: C_8  and  C_9
REMARK    5  A    between atoms: C_9  and  N_10
REMARK    6  A    between atoms: N_10  and  C_11
REMARK    7  A    between atoms: C_12  and  C_14
REMARK    8  A    between atoms: C_16  and  N_17
REMARK    9  A    between atoms: C_18  and  C_20
REMARK   10  A    between atoms: N_23  and  C_24
REMARK                            x       y       z     vdW  Elec       q    Type
REMARK                         _______ _______ _______ _____ _____    ______ ____
ROOT
ATOM      1  N   UNL     1       2.102   4.788  19.732  0.00  0.00    +0.000 N 
ATOM      2  C   UNL     1       1.124   4.335  20.706  0.00  0.00    +0.000 C 
ATOM      3  C   UNL     1       2.539   3.812  18.823  0.00  0.00    +0.000 C 
ATOM      4  O   UNL     1       1.843   2.826  18.569  0.00  0.00    +0.000 OA
ENDROOT
BRANCH   3   5
ATOM      5  C   UNL     1       3.832   3.964  18.129  0.00  0.00    +0.000 A 
ATOM      6  C   UNL     1       4.085   3.570  16.786  0.00  0.00    +0.000 A 
ATOM      7  C   UNL     1       5.429   3.771  16.568  0.00  0.00    +0.000 A 
ATOM      8  N   UNL     1       5.896   4.310  17.742  0.00  0.00    +0.000 N 
ATOM      9  C   UNL     1       7.240   4.700  18.091  0.00  0.00    +0.000 C 
ATOM     10  N   UNL     1       4.967   4.383  18.709  0.00  0.00    +0.000 NA
BRANCH   7  11
ATOM     11  N   UNL     1       6.155   3.487  15.415  0.00  0.00    +0.000 N 
ATOM     12  C   UNL     1       6.491   4.492  14.446  0.00  0.00    +0.000 C 
ATOM     13  O   UNL     1       6.142   5.653  14.570  0.00  0.00    +0.000 OA
ATOM     14  H   UNL     1       6.412   2.531  15.229  0.00  0.00    +0.000 HD
BRANCH  12  15
ATOM     15  C   UNL     1       7.254   4.075  13.246  0.00  0.00    +0.000 C 
ATOM     16  C   UNL     1       6.514   3.477  12.071  0.00  0.00    +0.000 C 
ATOM     17  C   UNL     1       7.263   4.769  11.907  0.00  0.00    +0.000 C 
ENDBRANCH  12  15
ENDBRANCH   7  11
ENDBRANCH   3   5
BRANCH   1  18
ATOM     18  C   UNL     1       2.857   5.979  20.099  0.00  0.00    +0.000 C 
BRANCH  18  26
ATOM     19  C   UNL     1       3.614   7.280  17.001  0.00  0.00    +0.000 C 
ATOM     20  C   UNL     1       2.787   7.807  18.118  0.00  0.00    +0.000 A 
ATOM     21  N   UNL     1       2.213   9.004  17.938  0.00  0.00    +0.000 NA
ATOM     22  N   UNL     1       1.459   9.188  19.028  0.00  0.00    +0.000 N 
ATOM     23  C   UNL     1       0.638  10.372  19.115  0.00  0.00    +0.000 C 
ATOM     24  C   UNL     1       1.566   8.173  19.935  0.00  0.00    +0.000 A 
ATOM     25  C   UNL     1       0.804   8.119  21.210  0.00  0.00    +0.000 C 
ATOM     26  C   UNL     1       2.466   7.252  19.397  0.00  0.00    +0.000 A 
ENDBRANCH  18  26
ENDBRANCH   1  18
TORSDOF 5
ENDMDL
MODEL 2
REMARK VINA RESULT:      -6.9      0.525      1.709
REMARK  Name = 
REMARK  10 active torsions:
REMARK  status: ('A' for Active; 'I' for Inactive)
REMARK    1  A    between atoms: C_1  and  C_2
REMARK    2  A    between atoms: N_4  and  C_5
REMARK    3  A    between atoms: C_6  and  C_7
REMARK    4  A    between atoms: C_8  and  C_9
REMARK    5  A    between atoms: C_9  and  N_10
REMARK    6  A    between atoms: N_10  and  C_11
REMARK    7  A    between atoms: C_12  and  C_14
REMARK    8  A    between atoms: C_16  and  N_17
REMARK    9  A    between atoms: C_18  and  C_20
REMARK   10  A    between atoms: N_23  and  C_24
REMARK                            x       y       z     vdW  Elec       q    Type
REMARK                         _______ _______ _______ _____ _____    ______ ____
ROOT
ATOM      1  N   UNL     1       2.032   4.656  19.611  0.00  0.00    +0.000 N 
ATOM      2  C   UNL     1       1.029   4.144  20.529  0.00  0.00    +0.000 C 
ATOM      3  C   UNL     1       2.467   3.748  18.633  0.00  0.00    +0.000 C 
ATOM      4  O   UNL     1       1.760   2.799  18.289  0.00  0.00    +0.000 OA
ENDROOT
BRANCH   3   5
ATOM      5  C   UNL     1       3.775   3.932  17.975  0.00  0.00    +0.000 A 
ATOM      6  C   UNL     1       4.052   3.618  16.616  0.00  0.00    +0.000 A 
ATOM      7  C   UNL     1       5.401   3.821  16.437  0.00  0.00    +0.000 A 
ATOM      8  N   UNL     1       5.849   4.285  17.650  0.00  0.00    +0.000 N 
ATOM      9  C   UNL     1       7.188   4.642  18.048  0.00  0.00    +0.000 C 
ATOM     10  N   UNL     1       4.902   4.307  18.601  0.00  0.00    +0.000 NA
BRANCH   7  11
ATOM     11  N   UNL     1       6.149   3.601  15.283  0.00  0.00    +0.000 N 
ATOM     12  C   UNL     1       6.624   4.673  14.454  0.00  0.00    +0.000 C 
ATOM     13  O   UNL     1       6.383   5.841  14.705  0.00  0.00    +0.000 OA
ATOM     14  H   UNL     1       6.320   2.652  14.991  0.00  0.00    +0.000 HD
BRANCH  12  15
ATOM     15  C   UNL     1       7.397   4.323  13.238  0.00  0.00    +0.000 C 
ATOM     16  C   UNL     1       6.695   3.636  12.089  0.00  0.00    +0.000 C 
ATOM     17  C   UNL     1       7.300   4.998  11.894  0.00  0.00    +0.000 C 
ENDBRANCH  12  15
ENDBRANCH   7  11
ENDBRANCH   3   5
BRANCH   1  18
ATOM     18  C   UNL     1       2.800   5.799  20.085  0.00  0.00    +0.000 C 
BRANCH  18  26
ATOM     19  C   UNL     1       0.848   8.003  21.873  0.00  0.00    +0.000 C 
ATOM     20  C   UNL     1       1.408   8.071  20.498  0.00  0.00    +0.000 A 
ATOM     21  N   UNL     1       1.129   9.167  19.781  0.00  0.00    +0.000 NA
ATOM     22  N   UNL     1       1.826   9.022  18.649  0.00  0.00    +0.000 N 
ATOM     23  C   UNL     1       1.801  10.085  17.673  0.00  0.00    +0.000 C 
ATOM     24  C   UNL     1       2.508   7.840  18.585  0.00  0.00    +0.000 A 
ATOM     25  C   UNL     1       3.387   7.453  17.449  0.00  0.00    +0.000 C 
ATOM     26  C   UNL     1       2.231   7.156  19.769  0.00  0.00    +0.000 A 
ENDBRANCH  18  26
ENDBRANCH   1  18
TORSDOF 5
ENDMDL
MODEL 3
REMARK VINA RESULT:      -6.9      2.441      4.477
REMARK  Name = 
REMARK  10 active torsions:
REMARK  status: ('A' for Active; 'I' for Inactive)
REMARK    1  A    between atoms: C_1  and  C_2
REMARK    2  A    between atoms: N_4  and  C_5
REMARK    3  A    between atoms: C_6  and  C_7
REMARK    4  A    between atoms: C_8  and  C_9
REMARK    5  A    between atoms: C_9  and  N_10
REMARK    6  A    between atoms: N_10  and  C_11
REMARK    7  A    between atoms: C_12  and  C_14
REMARK    8  A    between atoms: C_16  and  N_17
REMARK    9  A    between atoms: C_18  and  C_20
REMARK   10  A    between atoms: N_23  and  C_24
REMARK                            x       y       z     vdW  Elec       q    Type
REMARK                         _______ _______ _______ _____ _____    ______ ____
ROOT
ATOM      1  N   UNL     1       5.745   4.421  18.116  0.00  0.00    +0.000 N 
ATOM      2  C   UNL     1       6.003   4.760  19.505  0.00  0.00    +0.000 C 
ATOM      3  C   UNL     1       6.863   4.474  17.269  0.00  0.00    +0.000 C 
ATOM      4  O   UNL     1       8.005   4.356  17.719  0.00  0.00    +0.000 OA
ENDROOT
BRANCH   3   5
ATOM      5  C   UNL     1       6.690   4.642  15.813  0.00  0.00    +0.000 A 
ATOM      6  C   UNL     1       5.520   4.287  15.087  0.00  0.00    +0.000 A 
ATOM      7  C   UNL     1       5.811   4.490  13.758  0.00  0.00    +0.000 A 
ATOM      8  N   UNL     1       7.089   4.993  13.753  0.00  0.00    +0.000 N 
ATOM      9  C   UNL     1       7.912   5.369  12.630  0.00  0.00    +0.000 C 
ATOM     10  N   UNL     1       7.654   5.041  14.969  0.00  0.00    +0.000 NA
BRANCH   7  11
ATOM     11  N   UNL     1       4.992   4.237  12.661  0.00  0.00    +0.000 N 
ATOM     12  C   UNL     1       5.202   3.123  11.780  0.00  0.00    +0.000 C 
ATOM     13  O   UNL     1       6.124   2.342  11.933  0.00  0.00    +0.000 OA
ATOM     14  H   UNL     1       4.254   4.889  12.448  0.00  0.00    +0.000 HD
BRANCH  12  15
ATOM     15  C   UNL     1       4.279   2.958  10.632  0.00  0.00    +0.000 C 
ATOM     16  C   UNL     1       2.794   2.831  10.890  0.00  0.00    +0.000 C 
ATOM     17  C   UNL     1       3.322   3.994  10.098  0.00  0.00    +0.000 C 
ENDBRANCH  12  15
ENDBRANCH   7  11
ENDBRANCH   3   5
BRANCH   1  18
ATOM     18  C   UNL     1       4.363   4.558  17.676  0.00  0.00    +0.000 C 
BRANCH  18  26
ATOM     19  C   UNL     1       2.552   7.125  19.089  0.00  0.00    +0.000 C 
ATOM     20  C   UNL     1       2.579   5.665  19.368  0.00  0.00    +0.000 A 
ATOM     21  N   UNL     1       1.772   5.216  20.338  0.00  0.00    +0.000 NA
ATOM     22  N   UNL     1       1.912   3.886  20.311  0.00  0.00    +0.000 N 
ATOM     23  C   UNL     1       1.109   3.082  21.200  0.00  0.00    +0.000 C 
ATOM     24  C   UNL     1       2.824   3.460  19.388  0.00  0.00    +0.000 A 
ATOM     25  C   UNL     1       3.136   2.028  19.134  0.00  0.00    +0.000 C 
ATOM     26  C   UNL     1       3.325   4.603  18.765  0.00  0.00    +0.000 A 
ENDBRANCH  18  26
ENDBRANCH   1  18
TORSDOF 5
ENDMDL
MODEL 4
REMARK VINA RESULT:      -6.7      2.211      7.569
REMARK  Name = 
REMARK  10 active torsions:
REMARK  status: ('A' for Active; 'I' for Inactive)
REMARK    1  A    between atoms: C_1  and  C_2
REMARK    2  A    between atoms: N_4  and  C_5
REMARK    3  A    between atoms: C_6  and  C_7
REMARK    4  A    between atoms: C_8  and  C_9
REMARK    5  A    between atoms: C_9  and  N_10
REMARK    6  A    between atoms: N_10  and  C_11
REMARK    7  A    between atoms: C_12  and  C_14
REMARK    8  A    between atoms: C_16  and  N_17
REMARK    9  A    between atoms: C_18  and  C_20
REMARK   10  A    between atoms: N_23  and  C_24
REMARK                            x       y       z     vdW  Elec       q    Type
REMARK                         _______ _______ _______ _____ _____    ______ ____
ROOT
ATOM      1  N   UNL     1       3.001   3.575  17.998  0.00  0.00    +0.000 N 
ATOM      2  C   UNL     1       2.624   2.231  17.595  0.00  0.00    +0.000 C 
ATOM      3  C   UNL     1       2.304   4.086  19.104  0.00  0.00    +0.000 C 
ATOM      4  O   UNL     1       1.780   3.333  19.927  0.00  0.00    +0.000 OA
ENDROOT
BRANCH   3   5
ATOM      5  C   UNL     1       2.212   5.543  19.320  0.00  0.00    +0.000 A 
ATOM      6  C   UNL     1       1.998   6.167  20.579  0.00  0.00    +0.000 A 
ATOM      7  C   UNL     1       1.857   7.513  20.328  0.00  0.00    +0.000 A 
ATOM      8  N   UNL     1       2.041   7.636  18.973  0.00  0.00    +0.000 N 
ATOM      9  C   UNL     1       1.983   8.821  18.153  0.00  0.00    +0.000 C 
ATOM     10  N   UNL     1       2.200   6.462  18.341  0.00  0.00    +0.000 NA
BRANCH   7  11
ATOM     11  N   UNL     1       1.584   8.525  21.245  0.00  0.00    +0.000 N 
ATOM     12  C   UNL     1       0.283   8.718  21.819  0.00  0.00    +0.000 C 
ATOM     13  O   UNL     1      -0.667   8.014  21.521  0.00  0.00    +0.000 OA
ATOM     14  H   UNL     1       2.317   9.177  21.476  0.00  0.00    +0.000 HD
BRANCH  12  15
ATOM     15  C   UNL     1       0.101   9.838  22.773  0.00  0.00    +0.000 C 
ATOM     16  C   UNL     1      -0.312  11.194  22.250  0.00  0.00    +0.000 C 
ATOM     17  C   UNL     1      -1.211  10.448  23.194  0.00  0.00    +0.000 C 
ENDBRANCH  12  15
ENDBRANCH   7  11
ENDBRANCH   3   5
BRANCH   1  18
ATOM     18  C   UNL     1       3.644   4.387  16.973  0.00  0.00    +0.000 C 
BRANCH  18  26
ATOM     19  C   UNL     1       6.072   3.855  14.590  0.00  0.00    +0.000 C 
ATOM     20  C   UNL     1       6.163   4.199  16.033  0.00  0.00    +0.000 A 
ATOM     21  N   UNL     1       7.392   4.334  16.549  0.00  0.00    +0.000 NA
ATOM     22  N   UNL     1       7.190   4.738  17.808  0.00  0.00    +0.000 N 
ATOM     23  C   UNL     1       8.333   5.050  18.632  0.00  0.00    +0.000 C 
ATOM     24  C   UNL     1       5.868   4.819  18.143  0.00  0.00    +0.000 A 
ATOM     25  C   UNL     1       5.377   5.278  19.469  0.00  0.00    +0.000 C 
ATOM     26  C   UNL     1       5.147   4.432  17.013  0.00  0.00    +0.000 A 
ENDBRANCH  18  26
ENDBRANCH   1  18
TORSDOF 5
ENDMDL
MODEL 5
REMARK VINA RESULT:      -6.6      2.154      3.944
REMARK  Name = 
REMARK  10 active torsions:
REMARK  status: ('A' for Active; 'I' for Inactive)
REMARK    1  A    between atoms: C_1  and  C_2
REMARK    2  A    between atoms: N_4  and  C_5
REMARK    3  A    between atoms: C_6  and  C_7
REMARK    4  A    between atoms: C_8  and  C_9
REMARK    5  A    between atoms: C_9  and  N_10
REMARK    6  A    between atoms: N_10  and  C_11
REMARK    7  A    between atoms: C_12  and  C_14
REMARK    8  A    between atoms: C_16  and  N_17
REMARK    9  A    between atoms: C_18  and  C_20
REMARK   10  A    between atoms: N_23  and  C_24
REMARK                            x       y       z     vdW  Elec       q    Type
REMARK                         _______ _______ _______ _____ _____    ______ ____
ROOT
ATOM      1  N   UNL     1       5.690   4.473  18.242  0.00  0.00    +0.000 N 
ATOM      2  C   UNL     1       5.940   4.830  19.628  0.00  0.00    +0.000 C 
ATOM      3  C   UNL     1       6.816   4.498  17.405  0.00  0.00    +0.000 C 
ATOM      4  O   UNL     1       7.952   4.373  17.866  0.00  0.00    +0.000 OA
ENDROOT
BRANCH   3   5
ATOM      5  C   UNL     1       6.657   4.646  15.945  0.00  0.00    +0.000 A 
ATOM      6  C   UNL     1       5.501   4.263  15.210  0.00  0.00    +0.000 A 
ATOM      7  C   UNL     1       5.804   4.454  13.882  0.00  0.00    +0.000 A 
ATOM      8  N   UNL     1       7.074   4.977  13.885  0.00  0.00    +0.000 N 
ATOM      9  C   UNL     1       7.904   5.351  12.767  0.00  0.00    +0.000 C 
ATOM     10  N   UNL     1       7.624   5.049  15.107  0.00  0.00    +0.000 NA
BRANCH   7  11
ATOM     11  N   UNL     1       5.002   4.175  12.778  0.00  0.00    +0.000 N 
ATOM     12  C   UNL     1       5.260   3.074  11.894  0.00  0.00    +0.000 C 
ATOM     13  O   UNL     1       6.211   2.329  12.049  0.00  0.00    +0.000 OA
ATOM     14  H   UNL     1       4.240   4.799  12.564  0.00  0.00    +0.000 HD
BRANCH  12  15
ATOM     15  C   UNL     1       4.350   2.880  10.739  0.00  0.00    +0.000 C 
ATOM     16  C   UNL     1       2.867   2.722  10.986  0.00  0.00    +0.000 C 
ATOM     17  C   UNL     1       3.376   3.889  10.189  0.00  0.00    +0.000 C 
ENDBRANCH  12  15
ENDBRANCH   7  11
ENDBRANCH   3   5
BRANCH   1  18
ATOM     18  C   UNL     1       4.313   4.620  17.789  0.00  0.00    +0.000 C 
BRANCH  18  26
ATOM     19  C   UNL     1       2.652   3.532  20.603  0.00  0.00    +0.000 C 
ATOM     20  C   UNL     1       2.664   4.846  19.910  0.00  0.00    +0.000 A 
ATOM     21  N   UNL     1       1.904   5.817  20.434  0.00  0.00    +0.000 NA
ATOM     22  N   UNL     1       2.175   6.899  19.695  0.00  0.00    +0.000 N 
ATOM     23  C   UNL     1       1.563   8.157  20.051  0.00  0.00    +0.000 C 
ATOM     24  C   UNL     1       3.047   6.649  18.675  0.00  0.00    +0.000 A 
ATOM     25  C   UNL     1       3.538   7.690  17.733  0.00  0.00    +0.000 C 
ATOM     26  C   UNL     1       3.370   5.294  18.748  0.00  0.00    +0.000 A 
ENDBRANCH  18  26
ENDBRANCH   1  18
TORSDOF 5
ENDMDL
MODEL 6
REMARK VINA RESULT:      -6.5      2.334      7.691
REMARK  Name = 
REMARK  10 active torsions:
REMARK  status: ('A' for Active; 'I' for Inactive)
REMARK    1  A    between atoms: C_1  and  C_2
REMARK    2  A    between atoms: N_4  and  C_5
REMARK    3  A    between atoms: C_6  and  C_7
REMARK    4  A    between atoms: C_8  and  C_9
REMARK    5  A    between atoms: C_9  and  N_10
REMARK    6  A    between atoms: N_10  and  C_11
REMARK    7  A    between atoms: C_12  and  C_14
REMARK    8  A    between atoms: C_16  and  N_17
REMARK    9  A    between atoms: C_18  and  C_20
REMARK   10  A    between atoms: N_23  and  C_24
REMARK                            x       y       z     vdW  Elec       q    Type
REMARK                         _______ _______ _______ _____ _____    ______ ____
ROOT
ATOM      1  N   UNL     1       3.584   3.873  20.042  0.00  0.00    +0.000 N 
ATOM      2  C   UNL     1       3.516   2.438  19.824  0.00  0.00    +0.000 C 
ATOM      3  C   UNL     1       2.349   4.505  20.252  0.00  0.00    +0.000 C 
ATOM      4  O   UNL     1       1.377   3.874  20.673  0.00  0.00    +0.000 OA
ENDROOT
BRANCH   3   5
ATOM      5  C   UNL     1       2.198   5.951  20.000  0.00  0.00    +0.000 A 
ATOM      6  C   UNL     1       1.855   6.917  20.986  0.00  0.00    +0.000 A 
ATOM      7  C   UNL     1       1.701   8.113  20.322  0.00  0.00    +0.000 A 
ATOM      8  N   UNL     1       2.004   7.827  19.013  0.00  0.00    +0.000 N 
ATOM      9  C   UNL     1       1.988   8.700  17.866  0.00  0.00    +0.000 C 
ATOM     10  N   UNL     1       2.251   6.527  18.789  0.00  0.00    +0.000 NA
BRANCH   7  11
ATOM     11  N   UNL     1       1.320   9.340  20.858  0.00  0.00    +0.000 N 
ATOM     12  C   UNL     1       0.125   9.506  21.635  0.00  0.00    +0.000 C 
ATOM     13  O   UNL     1      -0.638   8.581  21.855  0.00  0.00    +0.000 OA
ATOM     14  H   UNL     1       1.879  10.152  20.651  0.00  0.00    +0.000 HD
BRANCH  12  15
ATOM     15  C   UNL     1      -0.193  10.862  22.144  0.00  0.00    +0.000 C 
ATOM     16  C   UNL     1      -1.288  11.663  21.478  0.00  0.00    +0.000 C 
ATOM     17  C   UNL     1      -1.423  11.260  22.918  0.00  0.00    +0.000 C 
ENDBRANCH  12  15
ENDBRANCH   7  11
ENDBRANCH   3   5
BRANCH   1  18
ATOM     18  C   UNL     1       4.781   4.533  19.541  0.00  0.00    +0.000 C 
BRANCH  18  26
ATOM     19  C   UNL     1       2.752   3.742  16.873  0.00  0.00    +0.000 C 
ATOM     20  C   UNL     1       4.198   4.077  16.949  0.00  0.00    +0.000 A 
ATOM     21  N   UNL     1       4.882   4.084  15.797  0.00  0.00    +0.000 NA
ATOM     22  N   UNL     1       6.105   4.510  16.128  0.00  0.00    +0.000 N 
ATOM     23  C   UNL     1       7.084   4.702  15.085  0.00  0.00    +0.000 C 
ATOM     24  C   UNL     1       6.254   4.731  17.468  0.00  0.00    +0.000 A 
ATOM     25  C   UNL     1       7.505   5.243  18.088  0.00  0.00    +0.000 C 
ATOM     26  C   UNL     1       5.030   4.420  18.061  0.00  0.00    +0.000 A 
ENDBRANCH  18  26
ENDBRANCH   1  18
TORSDOF 5
ENDMDL
MODEL 7
REMARK VINA RESULT:      -6.3      2.278      6.621
REMARK  Name = 
REMARK  10 active torsions:
REMARK  status: ('A' for Active; 'I' for Inactive)
REMARK    1  A    between atoms: C_1  and  C_2
REMARK    2  A    between atoms: N_4  and  C_5
REMARK    3  A    between atoms: C_6  and  C_7
REMARK    4  A    between atoms: C_8  and  C_9
REMARK    5  A    between atoms: C_9  and  N_10
REMARK    6  A    between atoms: N_10  and  C_11
REMARK    7  A    between atoms: C_12  and  C_14
REMARK    8  A    between atoms: C_16  and  N_17
REMARK    9  A    between atoms: C_18  and  C_20
REMARK   10  A    between atoms: N_23  and  C_24
REMARK                            x       y       z     vdW  Elec       q    Type
REMARK                         _______ _______ _______ _____ _____    ______ ____
ROOT
ATOM      1  N   UNL     1       5.012   3.774  17.067  0.00  0.00    +0.000 N 
ATOM      2  C   UNL     1       5.461   3.811  15.686  0.00  0.00    +0.000 C 
ATOM      3  C   UNL     1       3.622   3.681  17.242  0.00  0.00    +0.000 C 
ATOM      4  O   UNL     1       2.902   3.211  16.359  0.00  0.00    +0.000 OA
ENDROOT
BRANCH   3   5
ATOM      5  C   UNL     1       2.999   4.117  18.507  0.00  0.00    +0.000 A 
ATOM      6  C   UNL     1       2.573   5.444  18.787  0.00  0.00    +0.000 A 
ATOM      7  C   UNL     1       2.163   5.452  20.101  0.00  0.00    +0.000 A 
ATOM      8  N   UNL     1       2.310   4.152  20.520  0.00  0.00    +0.000 N 
ATOM      9  C   UNL     1       2.051   3.582  21.819  0.00  0.00    +0.000 C 
ATOM     10  N   UNL     1       2.860   3.347  19.597  0.00  0.00    +0.000 NA
BRANCH   7  11
ATOM     11  N   UNL     1       1.705   6.537  20.843  0.00  0.00    +0.000 N 
ATOM     12  C   UNL     1       1.672   7.873  20.318  0.00  0.00    +0.000 C 
ATOM     13  O   UNL     1       2.063   8.137  19.194  0.00  0.00    +0.000 OA
ATOM     14  H   UNL     1       1.433   6.388  21.801  0.00  0.00    +0.000 HD
BRANCH  12  15
ATOM     15  C   UNL     1       1.180   8.958  21.201  0.00  0.00    +0.000 C 
ATOM     16  C   UNL     1      -0.182   9.560  20.943  0.00  0.00    +0.000 C 
ATOM     17  C   UNL     1       0.089   8.842  22.234  0.00  0.00    +0.000 C 
ENDBRANCH  12  15
ENDBRANCH   7  11
ENDBRANCH   3   5
BRANCH   1  18
ATOM     18  C   UNL     1       5.939   4.319  18.050  0.00  0.00    +0.000 C 
BRANCH  18  26
ATOM     19  C   UNL     1       4.802   6.862  16.023  0.00  0.00    +0.000 C 
ATOM     20  C   UNL     1       5.961   6.780  16.949  0.00  0.00    +0.000 A 
ATOM     21  N   UNL     1       6.739   7.867  17.046  0.00  0.00    +0.000 NA
ATOM     22  N   UNL     1       7.625   7.568  18.002  0.00  0.00    +0.000 N 
ATOM     23  C   UNL     1       8.579   8.572  18.408  0.00  0.00    +0.000 C 
ATOM     24  C   UNL     1       7.481   6.301  18.493  0.00  0.00    +0.000 A 
ATOM     25  C   UNL     1       8.317   5.738  19.586  0.00  0.00    +0.000 C 
ATOM     26  C   UNL     1       6.418   5.724  17.799  0.00  0.00    +0.000 A 
ENDBRANCH  18  26
ENDBRANCH   1  18
TORSDOF 5
ENDMDL
MODEL 8
REMARK VINA RESULT:      -6.3      3.148      7.620
REMARK  Name = 
REMARK  10 active torsions:
REMARK  status: ('A' for Active; 'I' for Inactive)
REMARK    1  A    between atoms: C_1  and  C_2
REMARK    2  A    between atoms: N_4  and  C_5
REMARK    3  A    between atoms: C_6  and  C_7
REMARK    4  A    between atoms: C_8  and  C_9
REMARK    5  A    between atoms: C_9  and  N_10
REMARK    6  A    between atoms: N_10  and  C_11
REMARK    7  A    between atoms: C_12  and  C_14
REMARK    8  A    between atoms: C_16  and  N_17
REMARK    9  A    between atoms: C_18  and  C_20
REMARK   10  A    between atoms: N_23  and  C_24
REMARK                            x       y       z     vdW  Elec       q    Type
REMARK                         _______ _______ _______ _____ _____    ______ ____
ROOT
ATOM      1  N   UNL     1       3.278   5.888  17.640  0.00  0.00    +0.000 N 
ATOM      2  C   UNL     1       4.458   5.045  17.727  0.00  0.00    +0.000 C 
ATOM      3  C   UNL     1       3.495   7.251  17.894  0.00  0.00    +0.000 C 
ATOM      4  O   UNL     1       4.610   7.754  17.743  0.00  0.00    +0.000 OA
ENDROOT
BRANCH   3   5
ATOM      5  C   UNL     1       2.378   8.117  18.320  0.00  0.00    +0.000 A 
ATOM      6  C   UNL     1       1.603   8.931  17.450  0.00  0.00    +0.000 A 
ATOM      7  C   UNL     1       0.756   9.662  18.251  0.00  0.00    +0.000 A 
ATOM      8  N   UNL     1       1.020   9.225  19.526  0.00  0.00    +0.000 N 
ATOM      9  C   UNL     1       0.440   9.661  20.773  0.00  0.00    +0.000 C 
ATOM     10  N   UNL     1       2.026   8.340  19.596  0.00  0.00    +0.000 NA
BRANCH   7  11
ATOM     11  N   UNL     1      -0.162  10.631  17.857  0.00  0.00    +0.000 N 
ATOM     12  C   UNL     1      -1.579  10.402  17.863  0.00  0.00    +0.000 C 
ATOM     13  O   UNL     1      -2.060   9.333  18.197  0.00  0.00    +0.000 OA
ATOM     14  H   UNL     1       0.185  11.511  17.507  0.00  0.00    +0.000 HD
BRANCH  12  15
ATOM     15  C   UNL     1      -2.465  11.500  17.407  0.00  0.00    +0.000 C 
ATOM     16  C   UNL     1      -3.241  11.337  16.120  0.00  0.00    +0.000 C 
ATOM     17  C   UNL     1      -3.972  11.496  17.423  0.00  0.00    +0.000 C 
ENDBRANCH  12  15
ENDBRANCH   7  11
ENDBRANCH   3   5
BRANCH   1  18
ATOM     18  C   UNL     1       2.000   5.205  17.797  0.00  0.00    +0.000 C 
BRANCH  18  26
ATOM     19  C   UNL     1       2.648   1.846  17.405  0.00  0.00    +0.000 C 
ATOM     20  C   UNL     1       2.238   2.640  18.592  0.00  0.00    +0.000 A 
ATOM     21  N   UNL     1       2.075   1.974  19.743  0.00  0.00    +0.000 NA
ATOM     22  N   UNL     1       1.815   2.921  20.651  0.00  0.00    +0.000 N 
ATOM     23  C   UNL     1       1.657   2.537  22.034  0.00  0.00    +0.000 C 
ATOM     24  C   UNL     1       1.752   4.177  20.118  0.00  0.00    +0.000 A 
ATOM     25  C   UNL     1       1.514   5.406  20.920  0.00  0.00    +0.000 C 
ATOM     26  C   UNL     1       1.986   4.040  18.749  0.00  0.00    +0.000 A 
ENDBRANCH  18  26
ENDBRANCH   1  18
TORSDOF 5
ENDMDL
MODEL 9
REMARK VINA RESULT:      -6.2      3.995      6.650
REMARK  Name = 
REMARK  10 active torsions:
REMARK  status: ('A' for Active; 'I' for Inactive)
REMARK    1  A    between atoms: C_1  and  C_2
REMARK    2  A    between atoms: N_4  and  C_5
REMARK    3  A    between atoms: C_6  and  C_7
REMARK    4  A    between atoms: C_8  and  C_9
REMARK    5  A    between atoms: C_9  and  N_10
REMARK    6  A    between atoms: N_10  and  C_11
REMARK    7  A    between atoms: C_12  and  C_14
REMARK    8  A    between atoms: C_16  and  N_17
REMARK    9  A    between atoms: C_18  and  C_20
REMARK   10  A    between atoms: N_23  and  C_24
REMARK                            x       y       z     vdW  Elec       q    Type
REMARK                         _______ _______ _______ _____ _____    ______ ____
ROOT
ATOM      1  N   UNL     1      -0.522  11.530  18.599  0.00  0.00    +0.000 N 
ATOM      2  C   UNL     1      -0.818  12.782  17.924  0.00  0.00    +0.000 C 
ATOM      3  C   UNL     1       0.842  11.252  18.776  0.00  0.00    +0.000 C 
ATOM      4  O   UNL     1       1.677  12.159  18.791  0.00  0.00    +0.000 OA
ENDROOT
BRANCH   3   5
ATOM      5  C   UNL     1       1.301   9.864  18.978  0.00  0.00    +0.000 A 
ATOM      6  C   UNL     1       1.770   9.004  17.948  0.00  0.00    +0.000 A 
ATOM      7  C   UNL     1       1.981   7.776  18.532  0.00  0.00    +0.000 A 
ATOM      8  N   UNL     1       1.688   7.967  19.860  0.00  0.00    +0.000 N 
ATOM      9  C   UNL     1       1.715   7.013  20.941  0.00  0.00    +0.000 C 
ATOM     10  N   UNL     1       1.226   9.196  20.140  0.00  0.00    +0.000 NA
BRANCH   7  11
ATOM     11  N   UNL     1       2.397   6.601  17.913  0.00  0.00    +0.000 N 
ATOM     12  C   UNL     1       3.781   6.296  17.683  0.00  0.00    +0.000 C 
ATOM     13  O   UNL     1       4.674   7.061  18.002  0.00  0.00    +0.000 OA
ATOM     14  H   UNL     1       1.698   5.962  17.568  0.00  0.00    +0.000 HD
BRANCH  12  15
ATOM     15  C   UNL     1       4.110   5.022  17.000  0.00  0.00    +0.000 C 
ATOM     16  C   UNL     1       4.616   3.855  17.817  0.00  0.00    +0.000 C 
ATOM     17  C   UNL     1       3.319   3.741  17.069  0.00  0.00    +0.000 C 
ENDBRANCH  12  15
ENDBRANCH   7  11
ENDBRANCH   3   5
BRANCH   1  18
ATOM     18  C   UNL     1      -1.576  10.525  18.560  0.00  0.00    +0.000 C 
BRANCH  18  26
ATOM     19  C   UNL     1      -2.797   9.706  15.445  0.00  0.00    +0.000 C 
ATOM     20  C   UNL     1      -3.334  10.585  16.517  0.00  0.00    +0.000 A 
ATOM     21  N   UNL     1      -4.502  11.195  16.275  0.00  0.00    +0.000 NA
ATOM     22  N   UNL     1      -4.801  11.825  17.416  0.00  0.00    +0.000 N 
ATOM     23  C   UNL     1      -6.057  12.531  17.515  0.00  0.00    +0.000 C 
ATOM     24  C   UNL     1      -3.839  11.687  18.376  0.00  0.00    +0.000 A 
ATOM     25  C   UNL     1      -3.947  12.259  19.744  0.00  0.00    +0.000 C 
ATOM     26  C   UNL     1      -2.826  10.907  17.815  0.00  0.00    +0.000 A 
ENDBRANCH  18  26
ENDBRANCH   1  18
TORSDOF 5
ENDMDL
