MODEL 1
REMARK VINA RESULT:      -7.4      0.000      0.000
REMARK  Name = 
REMARK  5 active torsions:
REMARK  status: ('A' for Active; 'I' for Inactive)
REMARK    1  A    between atoms: C_1  and  C_2
REMARK    2  A    between atoms: C_2  and  C_3
REMARK    3  A    between atoms: C_3  and  N_4
REMARK    4  A    between atoms: C_5  and  C_7
REMARK    5  A    between atoms: C_10  and  N_11
REMARK                            x       y       z     vdW  Elec       q    Type
REMARK                         _______ _______ _______ _____ _____    ______ ____
ROOT
ATOM      1  C   UNL     1       6.291   4.499  16.407  0.00  0.00    +0.000 A 
ATOM      2  C   UNL     1       6.904   4.915  17.573  0.00  0.00    +0.000 A 
ATOM      3  C   UNL     1       6.069   4.730  18.714  0.00  0.00    +0.000 A 
ATOM      4  C   UNL     1       4.858   4.134  18.417  0.00  0.00    +0.000 A 
ATOM      5  S   UNL     1       4.749   3.850  16.729  0.00  0.00    +0.000 S 
ENDROOT
BRANCH   4   6
ATOM      6  N   UNL     1       3.848   3.820  19.275  0.00  0.00    +0.000 N 
ATOM      7  C   UNL     1       3.451   2.437  19.531  0.00  0.00    +0.000 C 
ATOM      8  C   UNL     1       1.957   2.281  19.262  0.00  0.00    +0.000 C 
ATOM      9  C   UNL     1       1.143   3.306  20.050  0.00  0.00    +0.000 C 
ATOM     10  C   UNL     1       1.661   4.728  19.829  0.00  0.00    +0.000 C 
ATOM     11  C   UNL     1       3.167   4.831  20.078  0.00  0.00    +0.000 C 
ENDBRANCH   4   6
BRANCH   1  13
ATOM     12  N   UNL     1       6.109   3.791  14.121  0.00  0.00    +0.000 N 
ATOM     13  C   UNL     1       6.788   4.569  15.044  0.00  0.00    +0.000 C 
ATOM     14  O   UNL     1       7.736   5.287  14.708  0.00  0.00    +0.000 OA
ATOM     15  H   UNL     1       5.296   3.279  14.441  0.00  0.00    +0.000 HD
BRANCH  12  16
ATOM     16  C   UNL     1       6.486   3.748  12.727  0.00  0.00    +0.000 C 
BRANCH  16  18
ATOM     17  C   UNL     1       4.351   3.221  11.471  0.00  0.00    +0.000 C 
ATOM     18  C   UNL     1       5.703   2.700  11.938  0.00  0.00    +0.000 C 
ENDBRANCH  16  18
ENDBRANCH  12  16
ENDBRANCH   1  13
TORSDOF 4
ENDMDL
MODEL 2
REMARK VINA RESULT:      -7.4      1.338      1.791
REMARK  Name = 
REMARK  5 active torsions:
REMARK  status: ('A' for Active; 'I' for Inactive)
REMARK    1  A    between atoms: C_1  and  C_2
REMARK    2  A    between atoms: C_2  and  C_3
REMARK    3  A    between atoms: C_3  and  N_4
REMARK    4  A    between atoms: C_5  and  C_7
REMARK    5  A    between atoms: C_10  and  N_11
REMARK                            x       y       z     vdW  Elec       q    Type
REMARK                         _______ _______ _______ _____ _____    ______ ____
ROOT
ATOM      1  C   UNL     1       5.373   5.329  16.099  0.00  0.00    +0.000 A 
ATOM      2  C   UNL     1       5.286   6.520  16.793  0.00  0.00    +0.000 A 
ATOM      3  C   UNL     1       4.228   6.508  17.750  0.00  0.00    +0.000 A 
ATOM      4  C   UNL     1       3.559   5.300  17.812  0.00  0.00    +0.000 A 
ATOM      5  S   UNL     1       4.213   4.213  16.657  0.00  0.00    +0.000 S 
ENDROOT
BRANCH   4   6
ATOM      6  N   UNL     1       2.511   4.966  18.616  0.00  0.00    +0.000 N 
ATOM      7  C   UNL     1       2.269   5.637  19.892  0.00  0.00    +0.000 C 
ATOM      8  C   UNL     1       2.190   4.597  21.004  0.00  0.00    +0.000 C 
ATOM      9  C   UNL     1       1.160   3.516  20.678  0.00  0.00    +0.000 C 
ATOM     10  C   UNL     1       1.394   2.914  19.292  0.00  0.00    +0.000 C 
ATOM     11  C   UNL     1       1.500   3.994  18.212  0.00  0.00    +0.000 C 
ENDBRANCH   4   6
BRANCH   1  13
ATOM     12  N   UNL     1       5.718   4.210  14.004  0.00  0.00    +0.000 N 
ATOM     13  C   UNL     1       6.275   4.971  15.018  0.00  0.00    +0.000 C 
ATOM     14  O   UNL     1       7.456   5.332  14.979  0.00  0.00    +0.000 OA
ATOM     15  H   UNL     1       4.728   4.005  14.056  0.00  0.00    +0.000 HD
BRANCH  12  16
ATOM     16  C   UNL     1       6.487   3.768  12.864  0.00  0.00    +0.000 C 
BRANCH  16  18
ATOM     17  C   UNL     1       4.395   3.306  11.512  0.00  0.00    +0.000 C 
ATOM     18  C   UNL     1       5.731   2.761  11.999  0.00  0.00    +0.000 C 
ENDBRANCH  16  18
ENDBRANCH  12  16
ENDBRANCH   1  13
TORSDOF 4
ENDMDL
MODEL 3
REMARK VINA RESULT:      -7.4      1.031      1.139
REMARK  Name = 
REMARK  5 active torsions:
REMARK  status: ('A' for Active; 'I' for Inactive)
REMARK    1  A    between atoms: C_1  and  C_2
REMARK    2  A    between atoms: C_2  and  C_3
REMARK    3  A    between atoms: C_3  and  N_4
REMARK    4  A    between atoms: C_5  and  C_7
REMARK    5  A    between atoms: C_10  and  N_11
REMARK                            x       y       z     vdW  Elec       q    Type
REMARK                         _______ _______ _______ _____ _____    ______ ____
ROOT
ATOM      1  C   UNL     1       5.461   5.109  15.892  0.00  0.00    +0.000 A 
ATOM      2  C   UNL     1       5.038   6.317  16.410  0.00  0.00    +0.000 A 
ATOM      3  C   UNL     1       4.183   6.148  17.539  0.00  0.00    +0.000 A 
ATOM      4  C   UNL     1       4.007   4.825  17.900  0.00  0.00    +0.000 A 
ATOM      5  S   UNL     1       4.860   3.808  16.814  0.00  0.00    +0.000 S 
ENDROOT
BRANCH   4   6
ATOM      6  N   UNL     1       3.259   4.331  18.925  0.00  0.00    +0.000 N 
ATOM      7  C   UNL     1       2.681   2.989  18.886  0.00  0.00    +0.000 C 
ATOM      8  C   UNL     1       1.177   3.078  19.125  0.00  0.00    +0.000 C 
ATOM      9  C   UNL     1       0.866   3.839  20.413  0.00  0.00    +0.000 C 
ATOM     10  C   UNL     1       1.574   5.194  20.453  0.00  0.00    +0.000 C 
ATOM     11  C   UNL     1       3.073   5.062  20.175  0.00  0.00    +0.000 C 
ENDBRANCH   4   6
BRANCH   1  13
ATOM     12  N   UNL     1       5.738   4.025  13.769  0.00  0.00    +0.000 N 
ATOM     13  C   UNL     1       6.290   4.860  14.726  0.00  0.00    +0.000 C 
ATOM     14  O   UNL     1       7.405   5.370  14.571  0.00  0.00    +0.000 OA
ATOM     15  H   UNL     1       4.792   3.695  13.918  0.00  0.00    +0.000 HD
BRANCH  12  16
ATOM     16  C   UNL     1       6.440   3.676  12.556  0.00  0.00    +0.000 C 
BRANCH  16  18
ATOM     17  C   UNL     1       4.239   3.194  11.400  0.00  0.00    +0.000 C 
ATOM     18  C   UNL     1       5.654   2.704  11.679  0.00  0.00    +0.000 C 
ENDBRANCH  16  18
ENDBRANCH  12  16
ENDBRANCH   1  13
TORSDOF 4
ENDMDL
MODEL 4
REMARK VINA RESULT:      -7.3      0.708      1.407
REMARK  Name = 
REMARK  5 active torsions:
REMARK  status: ('A' for Active; 'I' for Inactive)
REMARK    1  A    between atoms: C_1  and  C_2
REMARK    2  A    between atoms: C_2  and  C_3
REMARK    3  A    between atoms: C_3  and  N_4
REMARK    4  A    between atoms: C_5  and  C_7
REMARK    5  A    between atoms: C_10  and  N_11
REMARK                            x       y       z     vdW  Elec       q    Type
REMARK                         _______ _______ _______ _____ _____    ______ ____
ROOT
ATOM      1  C   UNL     1       6.104   4.418  16.365  0.00  0.00    +0.000 A 
ATOM      2  C   UNL     1       6.683   4.686  17.591  0.00  0.00    +0.000 A 
ATOM      3  C   UNL     1       5.765   4.511  18.669  0.00  0.00    +0.000 A 
ATOM      4  C   UNL     1       4.521   4.066  18.262  0.00  0.00    +0.000 A 
ATOM      5  S   UNL     1       4.488   3.913  16.554  0.00  0.00    +0.000 S 
ENDROOT
BRANCH   4   6
ATOM      6  N   UNL     1       3.434   3.800  19.039  0.00  0.00    +0.000 N 
ATOM      7  C   UNL     1       2.381   4.790  19.262  0.00  0.00    +0.000 C 
ATOM      8  C   UNL     1       2.184   4.990  20.761  0.00  0.00    +0.000 C 
ATOM      9  C   UNL     1       1.930   3.659  21.468  0.00  0.00    +0.000 C 
ATOM     10  C   UNL     1       3.002   2.625  21.124  0.00  0.00    +0.000 C 
ATOM     11  C   UNL     1       3.190   2.480  19.612  0.00  0.00    +0.000 C 
ENDBRANCH   4   6
BRANCH   1  13
ATOM     12  N   UNL     1       6.131   3.712  14.072  0.00  0.00    +0.000 N 
ATOM     13  C   UNL     1       6.687   4.530  15.041  0.00  0.00    +0.000 C 
ATOM     14  O   UNL     1       7.604   5.315  14.772  0.00  0.00    +0.000 OA
ATOM     15  H   UNL     1       5.335   3.143  14.335  0.00  0.00    +0.000 HD
BRANCH  12  16
ATOM     16  C   UNL     1       6.605   3.703  12.708  0.00  0.00    +0.000 C 
BRANCH  16  18
ATOM     17  C   UNL     1       4.410   3.259  11.524  0.00  0.00    +0.000 C 
ATOM     18  C   UNL     1       5.814   2.748  11.816  0.00  0.00    +0.000 C 
ENDBRANCH  16  18
ENDBRANCH  12  16
ENDBRANCH   1  13
TORSDOF 4
ENDMDL
MODEL 5
REMARK VINA RESULT:      -7.1      1.224      1.670
REMARK  Name = 
REMARK  5 active torsions:
REMARK  status: ('A' for Active; 'I' for Inactive)
REMARK    1  A    between atoms: C_1  and  C_2
REMARK    2  A    between atoms: C_2  and  C_3
REMARK    3  A    between atoms: C_3  and  N_4
REMARK    4  A    between atoms: C_5  and  C_7
REMARK    5  A    between atoms: C_10  and  N_11
REMARK                            x       y       z     vdW  Elec       q    Type
REMARK                         _______ _______ _______ _____ _____    ______ ____
ROOT
ATOM      1  C   UNL     1       5.283   5.017  16.399  0.00  0.00    +0.000 A 
ATOM      2  C   UNL     1       4.772   6.093  17.098  0.00  0.00    +0.000 A 
ATOM      3  C   UNL     1       3.801   5.694  18.064  0.00  0.00    +0.000 A 
ATOM      4  C   UNL     1       3.622   4.325  18.128  0.00  0.00    +0.000 A 
ATOM      5  S   UNL     1       4.619   3.554  16.964  0.00  0.00    +0.000 S 
ENDROOT
BRANCH   4   6
ATOM      6  N   UNL     1       2.779   3.630  18.941  0.00  0.00    +0.000 N 
ATOM      7  C   UNL     1       1.345   3.913  18.994  0.00  0.00    +0.000 C 
ATOM      8  C   UNL     1       0.937   4.188  20.437  0.00  0.00    +0.000 C 
ATOM      9  C   UNL     1       1.369   3.050  21.361  0.00  0.00    +0.000 C 
ATOM     10  C   UNL     1       2.853   2.722  21.196  0.00  0.00    +0.000 C 
ATOM     11  C   UNL     1       3.226   2.486  19.730  0.00  0.00    +0.000 C 
ENDBRANCH   4   6
BRANCH   1  13
ATOM     12  N   UNL     1       5.868   4.298  14.185  0.00  0.00    +0.000 N 
ATOM     13  C   UNL     1       6.242   5.014  15.309  0.00  0.00    +0.000 C 
ATOM     14  O   UNL     1       7.316   5.625  15.355  0.00  0.00    +0.000 OA
ATOM     15  H   UNL     1       4.946   3.878  14.178  0.00  0.00    +0.000 HD
BRANCH  12  16
ATOM     16  C   UNL     1       6.716   4.194  13.021  0.00  0.00    +0.000 C 
BRANCH  16  18
ATOM     17  C   UNL     1       4.740   3.251  11.746  0.00  0.00    +0.000 C 
ATOM     18  C   UNL     1       6.231   3.135  12.032  0.00  0.00    +0.000 C 
ENDBRANCH  16  18
ENDBRANCH  12  16
ENDBRANCH   1  13
TORSDOF 4
ENDMDL
MODEL 6
REMARK VINA RESULT:      -7.1      0.989      1.260
REMARK  Name = 
REMARK  5 active torsions:
REMARK  status: ('A' for Active; 'I' for Inactive)
REMARK    1  A    between atoms: C_1  and  C_2
REMARK    2  A    between atoms: C_2  and  C_3
REMARK    3  A    between atoms: C_3  and  N_4
REMARK    4  A    between atoms: C_5  and  C_7
REMARK    5  A    between atoms: C_10  and  N_11
REMARK                            x       y       z     vdW  Elec       q    Type
REMARK                         _______ _______ _______ _____ _____    ______ ____
ROOT
ATOM      1  C   UNL     1       5.574   4.356  16.533  0.00  0.00    +0.000 A 
ATOM      2  C   UNL     1       6.129   4.685  17.755  0.00  0.00    +0.000 A 
ATOM      3  C   UNL     1       5.332   4.230  18.847  0.00  0.00    +0.000 A 
ATOM      4  C   UNL     1       4.214   3.519  18.451  0.00  0.00    +0.000 A 
ATOM      5  S   UNL     1       4.138   3.462  16.739  0.00  0.00    +0.000 S 
ENDROOT
BRANCH   4   6
ATOM      6  N   UNL     1       3.261   2.953  19.243  0.00  0.00    +0.000 N 
ATOM      7  C   UNL     1       1.901   2.711  18.764  0.00  0.00    +0.000 C 
ATOM      8  C   UNL     1       0.905   3.371  19.713  0.00  0.00    +0.000 C 
ATOM      9  C   UNL     1       1.134   2.920  21.155  0.00  0.00    +0.000 C 
ATOM     10  C   UNL     1       2.593   3.098  21.576  0.00  0.00    +0.000 C 
ATOM     11  C   UNL     1       3.558   2.450  20.580  0.00  0.00    +0.000 C 
ENDBRANCH   4   6
BRANCH   1  13
ATOM     12  N   UNL     1       6.089   3.629  14.305  0.00  0.00    +0.000 N 
ATOM     13  C   UNL     1       6.050   4.683  15.201  0.00  0.00    +0.000 C 
ATOM     14  O   UNL     1       6.380   5.826  14.866  0.00  0.00    +0.000 OA
ATOM     15  H   UNL     1       5.738   2.731  14.617  0.00  0.00    +0.000 HD
BRANCH  12  16
ATOM     16  C   UNL     1       6.544   3.792  12.944  0.00  0.00    +0.000 C 
BRANCH  16  18
ATOM     17  C   UNL     1       4.451   3.356  11.587  0.00  0.00    +0.000 C 
ATOM     18  C   UNL     1       5.836   2.853  11.970  0.00  0.00    +0.000 C 
ENDBRANCH  16  18
ENDBRANCH  12  16
ENDBRANCH   1  13
TORSDOF 4
ENDMDL
MODEL 7
REMARK VINA RESULT:      -6.9      2.703      4.399
REMARK  Name = 
REMARK  5 active torsions:
REMARK  status: ('A' for Active; 'I' for Inactive)
REMARK    1  A    between atoms: C_1  and  C_2
REMARK    2  A    between atoms: C_2  and  C_3
REMARK    3  A    between atoms: C_3  and  N_4
REMARK    4  A    between atoms: C_5  and  C_7
REMARK    5  A    between atoms: C_10  and  N_11
REMARK                            x       y       z     vdW  Elec       q    Type
REMARK                         _______ _______ _______ _____ _____    ______ ____
ROOT
ATOM      1  C   UNL     1       5.740   5.135  17.329  0.00  0.00    +0.000 A 
ATOM      2  C   UNL     1       4.895   4.619  16.366  0.00  0.00    +0.000 A 
ATOM      3  C   UNL     1       3.889   3.779  16.929  0.00  0.00    +0.000 A 
ATOM      4  C   UNL     1       3.944   3.705  18.308  0.00  0.00    +0.000 A 
ATOM      5  S   UNL     1       5.264   4.635  18.887  0.00  0.00    +0.000 S 
ENDROOT
BRANCH   4   6
ATOM      6  N   UNL     1       3.131   2.997  19.140  0.00  0.00    +0.000 N 
ATOM      7  C   UNL     1       1.770   2.624  18.760  0.00  0.00    +0.000 C 
ATOM      8  C   UNL     1       0.794   3.120  19.823  0.00  0.00    +0.000 C 
ATOM      9  C   UNL     1       1.196   2.632  21.214  0.00  0.00    +0.000 C 
ATOM     10  C   UNL     1       2.657   2.955  21.525  0.00  0.00    +0.000 C 
ATOM     11  C   UNL     1       3.597   2.470  20.419  0.00  0.00    +0.000 C 
ENDBRANCH   4   6
BRANCH   1  13
ATOM     12  N   UNL     1       7.249   6.759  18.247  0.00  0.00    +0.000 N 
ATOM     13  C   UNL     1       6.908   5.981  17.155  0.00  0.00    +0.000 C 
ATOM     14  O   UNL     1       7.577   6.000  16.115  0.00  0.00    +0.000 OA
ATOM     15  H   UNL     1       6.706   6.648  19.095  0.00  0.00    +0.000 HD
BRANCH  12  16
ATOM     16  C   UNL     1       8.380   7.657  18.228  0.00  0.00    +0.000 C 
BRANCH  16  18
ATOM     17  C   UNL     1       8.950  10.111  18.491  0.00  0.00    +0.000 C 
ATOM     18  C   UNL     1       7.986   9.094  17.895  0.00  0.00    +0.000 C 
ENDBRANCH  16  18
ENDBRANCH  12  16
ENDBRANCH   1  13
TORSDOF 4
ENDMDL
MODEL 8
REMARK VINA RESULT:      -6.5      1.041      1.392
REMARK  Name = 
REMARK  5 active torsions:
REMARK  status: ('A' for Active; 'I' for Inactive)
REMARK    1  A    between atoms: C_1  and  C_2
REMARK    2  A    between atoms: C_2  and  C_3
REMARK    3  A    between atoms: C_3  and  N_4
REMARK    4  A    between atoms: C_5  and  C_7
REMARK    5  A    between atoms: C_10  and  N_11
REMARK                            x       y       z     vdW  Elec       q    Type
REMARK                         _______ _______ _______ _____ _____    ______ ____
ROOT
ATOM      1  C   UNL     1       5.642   4.665  16.627  0.00  0.00    +0.000 A 
ATOM      2  C   UNL     1       6.235   4.706  17.874  0.00  0.00    +0.000 A 
ATOM      3  C   UNL     1       5.278   4.613  18.928  0.00  0.00    +0.000 A 
ATOM      4  C   UNL     1       3.981   4.450  18.477  0.00  0.00    +0.000 A 
ATOM      5  S   UNL     1       3.956   4.461  16.762  0.00  0.00    +0.000 S 
ENDROOT
BRANCH   4   6
ATOM      6  N   UNL     1       2.847   4.328  19.222  0.00  0.00    +0.000 N 
ATOM      7  C   UNL     1       2.838   4.567  20.664  0.00  0.00    +0.000 C 
ATOM      8  C   UNL     1       2.268   3.345  21.376  0.00  0.00    +0.000 C 
ATOM      9  C   UNL     1       0.900   2.964  20.812  0.00  0.00    +0.000 C 
ATOM     10  C   UNL     1       0.937   2.824  19.290  0.00  0.00    +0.000 C 
ATOM     11  C   UNL     1       1.546   4.058  18.619  0.00  0.00    +0.000 C 
ENDBRANCH   4   6
BRANCH   1  13
ATOM     12  N   UNL     1       6.007   3.745  14.441  0.00  0.00    +0.000 N 
ATOM     13  C   UNL     1       6.264   4.783  15.320  0.00  0.00    +0.000 C 
ATOM     14  O   UNL     1       6.961   5.749  14.990  0.00  0.00    +0.000 OA
ATOM     15  H   UNL     1       5.372   3.016  14.743  0.00  0.00    +0.000 HD
BRANCH  12  16
ATOM     16  C   UNL     1       6.559   3.713  13.107  0.00  0.00    +0.000 C 
BRANCH  16  18
ATOM     17  C   UNL     1       5.702   1.904  11.554  0.00  0.00    +0.000 C 
ATOM     18  C   UNL     1       5.523   3.332  12.050  0.00  0.00    +0.000 C 
ENDBRANCH  16  18
ENDBRANCH  12  16
ENDBRANCH   1  13
TORSDOF 4
ENDMDL
MODEL 9
REMARK VINA RESULT:      -6.5      2.686      4.504
REMARK  Name = 
REMARK  5 active torsions:
REMARK  status: ('A' for Active; 'I' for Inactive)
REMARK    1  A    between atoms: C_1  and  C_2
REMARK    2  A    between atoms: C_2  and  C_3
REMARK    3  A    between atoms: C_3  and  N_4
REMARK    4  A    between atoms: C_5  and  C_7
REMARK    5  A    between atoms: C_10  and  N_11
REMARK                            x       y       z     vdW  Elec       q    Type
REMARK                         _______ _______ _______ _____ _____    ______ ____
ROOT
ATOM      1  C   UNL     1       5.675   5.441  17.079  0.00  0.00    +0.000 A 
ATOM      2  C   UNL     1       5.237   4.306  16.425  0.00  0.00    +0.000 A 
ATOM      3  C   UNL     1       4.059   3.764  17.020  0.00  0.00    +0.000 A 
ATOM      4  C   UNL     1       3.586   4.514  18.080  0.00  0.00    +0.000 A 
ATOM      5  S   UNL     1       4.625   5.850  18.357  0.00  0.00    +0.000 S 
ENDROOT
BRANCH   4   6
ATOM      6  N   UNL     1       2.490   4.271  18.852  0.00  0.00    +0.000 N 
ATOM      7  C   UNL     1       2.276   4.950  20.129  0.00  0.00    +0.000 C 
ATOM      8  C   UNL     1       2.069   3.910  21.226  0.00  0.00    +0.000 C 
ATOM      9  C   UNL     1       0.952   2.934  20.859  0.00  0.00    +0.000 C 
ATOM     10  C   UNL     1       1.167   2.327  19.472  0.00  0.00    +0.000 C 
ATOM     11  C   UNL     1       1.403   3.403  18.410  0.00  0.00    +0.000 C 
ENDBRANCH   4   6
BRANCH   1  13
ATOM     12  N   UNL     1       7.159   7.194  17.774  0.00  0.00    +0.000 N 
ATOM     13  C   UNL     1       6.855   6.244  16.814  0.00  0.00    +0.000 C 
ATOM     14  O   UNL     1       7.565   6.089  15.814  0.00  0.00    +0.000 OA
ATOM     15  H   UNL     1       6.581   7.227  18.605  0.00  0.00    +0.000 HD
BRANCH  12  16
ATOM     16  C   UNL     1       8.296   8.076  17.651  0.00  0.00    +0.000 C 
BRANCH  16  18
ATOM     17  C   UNL     1       9.112  10.305  18.534  0.00  0.00    +0.000 C 
ATOM     18  C   UNL     1       7.944   9.535  17.932  0.00  0.00    +0.000 C 
ENDBRANCH  16  18
ENDBRANCH  12  16
ENDBRANCH   1  13
TORSDOF 4
ENDMDL
