MODEL 1
REMARK VINA RESULT:      -8.4      0.000      0.000
REMARK  Name = 
REMARK  5 active torsions:
REMARK  status: ('A' for Active; 'I' for Inactive)
REMARK    1  A    between atoms: C_1  and  C_2
REMARK    2  A    between atoms: C_5  and  N_6
REMARK    3  A    between atoms: N_6  and  C_7
REMARK    4  A    between atoms: C_8  and  C_9
REMARK    5  A    between atoms: C_12  and  C_13
REMARK                            x       y       z     vdW  Elec       q    Type
REMARK                         _______ _______ _______ _____ _____    ______ ____
ROOT
ATOM      1  C   UNL     1       3.299   5.209  19.323  0.00  0.00    +0.000 A 
ATOM      2  C   UNL     1       4.389   4.898  18.522  0.00  0.00    +0.000 A 
ATOM      3  N   UNL     1       4.223   3.681  17.900  0.00  0.00    +0.000 NA
ATOM      4  C   UNL     1       3.072   3.214  18.322  0.00  0.00    +0.000 A 
ATOM      5  N   UNL     1       2.505   1.997  18.051  0.00  0.00    +0.000 NA
ATOM      6  C   UNL     1       1.339   1.779  18.575  0.00  0.00    +0.000 A 
ATOM      7  C   UNL     1       0.551   2.726  19.406  0.00  0.00    +0.000 A 
ATOM      8  C   UNL     1       1.144   3.905  19.631  0.00  0.00    +0.000 A 
ATOM      9  N   UNL     1       2.425   4.147  19.136  0.00  0.00    +0.000 N 
ENDROOT
BRANCH   2  10
ATOM     10  C   UNL     1       5.658   5.681  18.359  0.00  0.00    +0.000 A 
ATOM     11  C   UNL     1       6.810   5.383  19.057  0.00  0.00    +0.000 A 
ATOM     12  C   UNL     1       7.853   6.323  18.809  0.00  0.00    +0.000 A 
ATOM     13  C   UNL     1       7.457   7.319  17.941  0.00  0.00    +0.000 A 
ATOM     14  C   UNL     1       8.215   8.522  17.502  0.00  0.00    +0.000 C 
ATOM     15  S   UNL     1       5.867   7.051  17.365  0.00  0.00    +0.000 S 
ENDBRANCH   2  10
BRANCH   1  16
ATOM     16  N   UNL     1       3.024   6.302  20.099  0.00  0.00    +0.000 N 
ATOM     17  H   UNL     1       2.852   6.118  21.091  0.00  0.00    +0.000 HD
BRANCH  16  22
ATOM     18  C   UNL     1       0.012  10.970  18.671  0.00  0.00    +0.000 C 
ATOM     19  C   UNL     1       0.802   9.746  19.026  0.00  0.00    +0.000 A 
ATOM     20  C   UNL     1       1.560   9.081  18.060  0.00  0.00    +0.000 A 
ATOM     21  C   UNL     1       2.268   7.924  18.391  0.00  0.00    +0.000 A 
ATOM     22  C   UNL     1       2.262   7.428  19.702  0.00  0.00    +0.000 A 
ATOM     23  C   UNL     1       1.483   8.085  20.661  0.00  0.00    +0.000 A 
ATOM     24  C   UNL     1       0.762   9.235  20.328  0.00  0.00    +0.000 A 
ENDBRANCH  16  22
ENDBRANCH   1  16
TORSDOF 3
ENDMDL
MODEL 2
REMARK VINA RESULT:      -8.2      0.082      1.007
REMARK  Name = 
REMARK  5 active torsions:
REMARK  status: ('A' for Active; 'I' for Inactive)
REMARK    1  A    between atoms: C_1  and  C_2
REMARK    2  A    between atoms: C_5  and  N_6
REMARK    3  A    between atoms: N_6  and  C_7
REMARK    4  A    between atoms: C_8  and  C_9
REMARK    5  A    between atoms: C_12  and  C_13
REMARK                            x       y       z     vdW  Elec       q    Type
REMARK                         _______ _______ _______ _____ _____    ______ ____
ROOT
ATOM      1  C   UNL     1       3.317   5.206  19.328  0.00  0.00    +0.000 A 
ATOM      2  C   UNL     1       4.393   4.917  18.500  0.00  0.00    +0.000 A 
ATOM      3  N   UNL     1       4.215   3.717  17.848  0.00  0.00    +0.000 NA
ATOM      4  C   UNL     1       3.070   3.239  18.276  0.00  0.00    +0.000 A 
ATOM      5  N   UNL     1       2.497   2.031  17.981  0.00  0.00    +0.000 NA
ATOM      6  C   UNL     1       1.340   1.800  18.519  0.00  0.00    +0.000 A 
ATOM      7  C   UNL     1       0.567   2.723  19.388  0.00  0.00    +0.000 A 
ATOM      8  C   UNL     1       1.166   3.895  19.636  0.00  0.00    +0.000 A 
ATOM      9  N   UNL     1       2.439   4.150  19.126  0.00  0.00    +0.000 N 
ENDROOT
BRANCH   2  10
ATOM     10  C   UNL     1       5.660   5.703  18.339  0.00  0.00    +0.000 A 
ATOM     11  C   UNL     1       6.813   5.406  19.035  0.00  0.00    +0.000 A 
ATOM     12  C   UNL     1       7.854   6.349  18.789  0.00  0.00    +0.000 A 
ATOM     13  C   UNL     1       7.455   7.345  17.922  0.00  0.00    +0.000 A 
ATOM     14  C   UNL     1       8.210   8.551  17.484  0.00  0.00    +0.000 C 
ATOM     15  S   UNL     1       5.865   7.075  17.347  0.00  0.00    +0.000 S 
ENDBRANCH   2  10
BRANCH   1  16
ATOM     16  N   UNL     1       3.056   6.277  20.138  0.00  0.00    +0.000 N 
ATOM     17  H   UNL     1       2.884   6.065  21.125  0.00  0.00    +0.000 HD
BRANCH  16  22
ATOM     18  C   UNL     1      -0.055  10.811  18.504  0.00  0.00    +0.000 C 
ATOM     19  C   UNL     1       0.755   9.630  18.949  0.00  0.00    +0.000 A 
ATOM     20  C   UNL     1       0.732   9.209  20.280  0.00  0.00    +0.000 A 
ATOM     21  C   UNL     1       1.513   8.129  20.694  0.00  0.00    +0.000 A 
ATOM     22  C   UNL     1       2.306   7.423  19.779  0.00  0.00    +0.000 A 
ATOM     23  C   UNL     1       2.344   7.862  18.450  0.00  0.00    +0.000 A 
ATOM     24  C   UNL     1       1.573   8.953  18.037  0.00  0.00    +0.000 A 
ENDBRANCH  16  22
ENDBRANCH   1  16
TORSDOF 3
ENDMDL
MODEL 3
REMARK VINA RESULT:      -7.9      0.939      1.397
REMARK  Name = 
REMARK  5 active torsions:
REMARK  status: ('A' for Active; 'I' for Inactive)
REMARK    1  A    between atoms: C_1  and  C_2
REMARK    2  A    between atoms: C_5  and  N_6
REMARK    3  A    between atoms: N_6  and  C_7
REMARK    4  A    between atoms: C_8  and  C_9
REMARK    5  A    between atoms: C_12  and  C_13
REMARK                            x       y       z     vdW  Elec       q    Type
REMARK                         _______ _______ _______ _____ _____    ______ ____
ROOT
ATOM      1  C   UNL     1       3.451   5.280  18.120  0.00  0.00    +0.000 A 
ATOM      2  C   UNL     1       4.770   4.915  18.352  0.00  0.00    +0.000 A 
ATOM      3  N   UNL     1       4.862   3.603  18.762  0.00  0.00    +0.000 NA
ATOM      4  C   UNL     1       3.630   3.156  18.822  0.00  0.00    +0.000 A 
ATOM      5  N   UNL     1       3.197   1.931  19.257  0.00  0.00    +0.000 NA
ATOM      6  C   UNL     1       1.919   1.722  19.197  0.00  0.00    +0.000 A 
ATOM      7  C   UNL     1       0.891   2.659  18.675  0.00  0.00    +0.000 A 
ATOM      8  C   UNL     1       1.368   3.837  18.251  0.00  0.00    +0.000 A 
ATOM      9  N   UNL     1       2.729   4.119  18.362  0.00  0.00    +0.000 N 
ENDROOT
BRANCH   2  10
ATOM     10  C   UNL     1       5.988   5.786  18.276  0.00  0.00    +0.000 A 
ATOM     11  C   UNL     1       7.109   5.566  19.048  0.00  0.00    +0.000 A 
ATOM     12  C   UNL     1       8.097   6.580  18.871  0.00  0.00    +0.000 A 
ATOM     13  C   UNL     1       7.689   7.550  17.980  0.00  0.00    +0.000 A 
ATOM     14  C   UNL     1       8.387   8.807  17.594  0.00  0.00    +0.000 C 
ATOM     15  S   UNL     1       6.164   7.174  17.300  0.00  0.00    +0.000 S 
ENDBRANCH   2  10
BRANCH   1  16
ATOM     16  N   UNL     1       2.896   6.454  17.691  0.00  0.00    +0.000 N 
ATOM     17  H   UNL     1       3.372   6.920  16.915  0.00  0.00    +0.000 HD
BRANCH  16  22
ATOM     18  C   UNL     1       0.304  10.450  20.887  0.00  0.00    +0.000 C 
ATOM     19  C   UNL     1       0.987   9.398  20.067  0.00  0.00    +0.000 A 
ATOM     20  C   UNL     1       1.461   8.226  20.662  0.00  0.00    +0.000 A 
ATOM     21  C   UNL     1       2.124   7.264  19.897  0.00  0.00    +0.000 A 
ATOM     22  C   UNL     1       2.296   7.436  18.517  0.00  0.00    +0.000 A 
ATOM     23  C   UNL     1       1.840   8.621  17.930  0.00  0.00    +0.000 A 
ATOM     24  C   UNL     1       1.188   9.592  18.696  0.00  0.00    +0.000 A 
ENDBRANCH  16  22
ENDBRANCH   1  16
TORSDOF 3
ENDMDL
MODEL 4
REMARK VINA RESULT:      -7.7      0.957      1.172
REMARK  Name = 
REMARK  5 active torsions:
REMARK  status: ('A' for Active; 'I' for Inactive)
REMARK    1  A    between atoms: C_1  and  C_2
REMARK    2  A    between atoms: C_5  and  N_6
REMARK    3  A    between atoms: N_6  and  C_7
REMARK    4  A    between atoms: C_8  and  C_9
REMARK    5  A    between atoms: C_12  and  C_13
REMARK                            x       y       z     vdW  Elec       q    Type
REMARK                         _______ _______ _______ _____ _____    ______ ____
ROOT
ATOM      1  C   UNL     1       3.479   5.304  18.089  0.00  0.00    +0.000 A 
ATOM      2  C   UNL     1       4.796   4.943  18.343  0.00  0.00    +0.000 A 
ATOM      3  N   UNL     1       4.884   3.636  18.768  0.00  0.00    +0.000 NA
ATOM      4  C   UNL     1       3.651   3.188  18.816  0.00  0.00    +0.000 A 
ATOM      5  N   UNL     1       3.215   1.967  19.259  0.00  0.00    +0.000 NA
ATOM      6  C   UNL     1       1.938   1.756  19.184  0.00  0.00    +0.000 A 
ATOM      7  C   UNL     1       0.916   2.686  18.639  0.00  0.00    +0.000 A 
ATOM      8  C   UNL     1       1.396   3.860  18.209  0.00  0.00    +0.000 A 
ATOM      9  N   UNL     1       2.756   4.145  18.334  0.00  0.00    +0.000 N 
ENDROOT
BRANCH   2  10
ATOM     10  C   UNL     1       6.013   5.815  18.273  0.00  0.00    +0.000 A 
ATOM     11  C   UNL     1       7.137   5.587  19.039  0.00  0.00    +0.000 A 
ATOM     12  C   UNL     1       8.124   6.602  18.871  0.00  0.00    +0.000 A 
ATOM     13  C   UNL     1       7.714   7.582  17.992  0.00  0.00    +0.000 A 
ATOM     14  C   UNL     1       8.411   8.843  17.618  0.00  0.00    +0.000 C 
ATOM     15  S   UNL     1       6.187   7.214  17.312  0.00  0.00    +0.000 S 
ENDBRANCH   2  10
BRANCH   1  16
ATOM     16  N   UNL     1       2.928   6.473  17.641  0.00  0.00    +0.000 N 
ATOM     17  H   UNL     1       3.436   6.952  16.893  0.00  0.00    +0.000 HD
BRANCH  16  22
ATOM     18  C   UNL     1       0.433  10.367  21.034  0.00  0.00    +0.000 C 
ATOM     19  C   UNL     1       1.079   9.358  20.132  0.00  0.00    +0.000 A 
ATOM     20  C   UNL     1       1.204   9.601  18.762  0.00  0.00    +0.000 A 
ATOM     21  C   UNL     1       1.778   8.644  17.924  0.00  0.00    +0.000 A 
ATOM     22  C   UNL     1       2.272   7.439  18.442  0.00  0.00    +0.000 A 
ATOM     23  C   UNL     1       2.125   7.191  19.811  0.00  0.00    +0.000 A 
ATOM     24  C   UNL     1       1.538   8.142  20.650  0.00  0.00    +0.000 A 
ENDBRANCH  16  22
ENDBRANCH   1  16
TORSDOF 3
ENDMDL
MODEL 5
REMARK VINA RESULT:      -7.5      2.495      5.460
REMARK  Name = 
REMARK  5 active torsions:
REMARK  status: ('A' for Active; 'I' for Inactive)
REMARK    1  A    between atoms: C_1  and  C_2
REMARK    2  A    between atoms: C_5  and  N_6
REMARK    3  A    between atoms: N_6  and  C_7
REMARK    4  A    between atoms: C_8  and  C_9
REMARK    5  A    between atoms: C_12  and  C_13
REMARK                            x       y       z     vdW  Elec       q    Type
REMARK                         _______ _______ _______ _____ _____    ______ ____
ROOT
ATOM      1  C   UNL     1       3.443   5.663  19.467  0.00  0.00    +0.000 A 
ATOM      2  C   UNL     1       2.316   6.420  19.762  0.00  0.00    +0.000 A 
ATOM      3  N   UNL     1       1.435   5.718  20.553  0.00  0.00    +0.000 NA
ATOM      4  C   UNL     1       1.971   4.533  20.730  0.00  0.00    +0.000 A 
ATOM      5  N   UNL     1       1.435   3.453  21.379  0.00  0.00    +0.000 NA
ATOM      6  C   UNL     1       2.179   2.392  21.435  0.00  0.00    +0.000 A 
ATOM      7  C   UNL     1       3.557   2.248  20.900  0.00  0.00    +0.000 A 
ATOM      8  C   UNL     1       4.039   3.336  20.285  0.00  0.00    +0.000 A 
ATOM      9  N   UNL     1       3.241   4.472  20.151  0.00  0.00    +0.000 N 
ENDROOT
BRANCH   2  10
ATOM     10  C   UNL     1       1.980   7.792  19.261  0.00  0.00    +0.000 A 
ATOM     11  C   UNL     1       2.294   8.216  17.987  0.00  0.00    +0.000 A 
ATOM     12  C   UNL     1       1.962   9.587  17.773  0.00  0.00    +0.000 A 
ATOM     13  C   UNL     1       1.420  10.169  18.900  0.00  0.00    +0.000 A 
ATOM     14  C   UNL     1       1.027  11.589  19.112  0.00  0.00    +0.000 C 
ATOM     15  S   UNL     1       1.231   9.030  20.164  0.00  0.00    +0.000 S 
ENDBRANCH   2  10
BRANCH   1  16
ATOM     16  N   UNL     1       4.566   5.951  18.742  0.00  0.00    +0.000 N 
ATOM     17  H   UNL     1       4.906   6.915  18.802  0.00  0.00    +0.000 HD
BRANCH  16  22
ATOM     18  C   UNL     1       6.002   4.002  13.542  0.00  0.00    +0.000 C 
ATOM     19  C   UNL     1       5.622   4.495  14.906  0.00  0.00    +0.000 A 
ATOM     20  C   UNL     1       5.413   3.597  15.956  0.00  0.00    +0.000 A 
ATOM     21  C   UNL     1       5.030   4.061  17.216  0.00  0.00    +0.000 A 
ATOM     22  C   UNL     1       4.881   5.432  17.463  0.00  0.00    +0.000 A 
ATOM     23  C   UNL     1       5.070   6.326  16.402  0.00  0.00    +0.000 A 
ATOM     24  C   UNL     1       5.441   5.863  15.136  0.00  0.00    +0.000 A 
ENDBRANCH  16  22
ENDBRANCH   1  16
TORSDOF 3
ENDMDL
MODEL 6
REMARK VINA RESULT:      -7.5      2.341      5.797
REMARK  Name = 
REMARK  5 active torsions:
REMARK  status: ('A' for Active; 'I' for Inactive)
REMARK    1  A    between atoms: C_1  and  C_2
REMARK    2  A    between atoms: C_5  and  N_6
REMARK    3  A    between atoms: N_6  and  C_7
REMARK    4  A    between atoms: C_8  and  C_9
REMARK    5  A    between atoms: C_12  and  C_13
REMARK                            x       y       z     vdW  Elec       q    Type
REMARK                         _______ _______ _______ _____ _____    ______ ____
ROOT
ATOM      1  C   UNL     1       3.840   5.257  17.133  0.00  0.00    +0.000 A 
ATOM      2  C   UNL     1       3.917   6.597  17.490  0.00  0.00    +0.000 A 
ATOM      3  N   UNL     1       5.123   7.146  17.115  0.00  0.00    +0.000 NA
ATOM      4  C   UNL     1       5.808   6.172  16.563  0.00  0.00    +0.000 A 
ATOM      5  N   UNL     1       7.099   6.202  16.106  0.00  0.00    +0.000 NA
ATOM      6  C   UNL     1       7.545   5.104  15.579  0.00  0.00    +0.000 A 
ATOM      7  C   UNL     1       6.788   3.839  15.393  0.00  0.00    +0.000 A 
ATOM      8  C   UNL     1       5.528   3.866  15.847  0.00  0.00    +0.000 A 
ATOM      9  N   UNL     1       5.038   5.010  16.477  0.00  0.00    +0.000 N 
ENDROOT
BRANCH   2  10
ATOM     10  C   UNL     1       2.910   7.399  18.257  0.00  0.00    +0.000 A 
ATOM     11  C   UNL     1       2.338   8.550  17.756  0.00  0.00    +0.000 A 
ATOM     12  C   UNL     1       1.485   9.190  18.703  0.00  0.00    +0.000 A 
ATOM     13  C   UNL     1       1.446   8.513  19.904  0.00  0.00    +0.000 A 
ATOM     14  C   UNL     1       0.750   8.896  21.163  0.00  0.00    +0.000 C 
ATOM     15  S   UNL     1       2.363   7.068  19.838  0.00  0.00    +0.000 S 
ENDBRANCH   2  10
BRANCH   1  16
ATOM     16  N   UNL     1       2.843   4.333  17.286  0.00  0.00    +0.000 N 
ATOM     17  H   UNL     1       2.034   4.438  16.668  0.00  0.00    +0.000 HD
BRANCH  16  22
ATOM     18  C   UNL     1       1.242   2.208  22.368  0.00  0.00    +0.000 C 
ATOM     19  C   UNL     1       1.644   2.762  21.033  0.00  0.00    +0.000 A 
ATOM     20  C   UNL     1       0.678   3.109  20.085  0.00  0.00    +0.000 A 
ATOM     21  C   UNL     1       1.060   3.594  18.833  0.00  0.00    +0.000 A 
ATOM     22  C   UNL     1       2.413   3.776  18.514  0.00  0.00    +0.000 A 
ATOM     23  C   UNL     1       3.377   3.405  19.458  0.00  0.00    +0.000 A 
ATOM     24  C   UNL     1       2.997   2.906  20.708  0.00  0.00    +0.000 A 
ENDBRANCH  16  22
ENDBRANCH   1  16
TORSDOF 3
ENDMDL
MODEL 7
REMARK VINA RESULT:      -7.4      2.469      5.392
REMARK  Name = 
REMARK  5 active torsions:
REMARK  status: ('A' for Active; 'I' for Inactive)
REMARK    1  A    between atoms: C_1  and  C_2
REMARK    2  A    between atoms: C_5  and  N_6
REMARK    3  A    between atoms: N_6  and  C_7
REMARK    4  A    between atoms: C_8  and  C_9
REMARK    5  A    between atoms: C_12  and  C_13
REMARK                            x       y       z     vdW  Elec       q    Type
REMARK                         _______ _______ _______ _____ _____    ______ ____
ROOT
ATOM      1  C   UNL     1       3.469   5.657  19.497  0.00  0.00    +0.000 A 
ATOM      2  C   UNL     1       2.319   6.397  19.741  0.00  0.00    +0.000 A 
ATOM      3  N   UNL     1       1.406   5.675  20.477  0.00  0.00    +0.000 NA
ATOM      4  C   UNL     1       1.948   4.494  20.668  0.00  0.00    +0.000 A 
ATOM      5  N   UNL     1       1.392   3.400  21.275  0.00  0.00    +0.000 NA
ATOM      6  C   UNL     1       2.146   2.348  21.359  0.00  0.00    +0.000 A 
ATOM      7  C   UNL     1       3.552   2.227  20.895  0.00  0.00    +0.000 A 
ATOM      8  C   UNL     1       4.051   3.328  20.319  0.00  0.00    +0.000 A 
ATOM      9  N   UNL     1       3.246   4.456  20.155  0.00  0.00    +0.000 N 
ENDROOT
BRANCH   2  10
ATOM     10  C   UNL     1       1.991   7.771  19.239  0.00  0.00    +0.000 A 
ATOM     11  C   UNL     1       2.309   8.192  17.964  0.00  0.00    +0.000 A 
ATOM     12  C   UNL     1       1.986   9.564  17.749  0.00  0.00    +0.000 A 
ATOM     13  C   UNL     1       1.447  10.151  18.875  0.00  0.00    +0.000 A 
ATOM     14  C   UNL     1       1.063  11.574  19.086  0.00  0.00    +0.000 C 
ATOM     15  S   UNL     1       1.250   9.014  20.140  0.00  0.00    +0.000 S 
ENDBRANCH   2  10
BRANCH   1  16
ATOM     16  N   UNL     1       4.625   5.968  18.835  0.00  0.00    +0.000 N 
ATOM     17  H   UNL     1       4.981   6.917  18.973  0.00  0.00    +0.000 HD
BRANCH  16  22
ATOM     18  C   UNL     1       5.905   4.032  13.589  0.00  0.00    +0.000 C 
ATOM     19  C   UNL     1       5.573   4.555  14.955  0.00  0.00    +0.000 A 
ATOM     20  C   UNL     1       5.375   5.922  15.167  0.00  0.00    +0.000 A 
ATOM     21  C   UNL     1       5.098   6.405  16.447  0.00  0.00    +0.000 A 
ATOM     22  C   UNL     1       4.977   5.530  17.535  0.00  0.00    +0.000 A 
ATOM     23  C   UNL     1       5.199   4.165  17.322  0.00  0.00    +0.000 A 
ATOM     24  C   UNL     1       5.490   3.680  16.043  0.00  0.00    +0.000 A 
ENDBRANCH  16  22
ENDBRANCH   1  16
TORSDOF 3
ENDMDL
MODEL 8
REMARK VINA RESULT:      -7.3      2.347      5.706
REMARK  Name = 
REMARK  5 active torsions:
REMARK  status: ('A' for Active; 'I' for Inactive)
REMARK    1  A    between atoms: C_1  and  C_2
REMARK    2  A    between atoms: C_5  and  N_6
REMARK    3  A    between atoms: N_6  and  C_7
REMARK    4  A    between atoms: C_8  and  C_9
REMARK    5  A    between atoms: C_12  and  C_13
REMARK                            x       y       z     vdW  Elec       q    Type
REMARK                         _______ _______ _______ _____ _____    ______ ____
ROOT
ATOM      1  C   UNL     1       3.824   5.265  17.213  0.00  0.00    +0.000 A 
ATOM      2  C   UNL     1       3.944   6.605  17.554  0.00  0.00    +0.000 A 
ATOM      3  N   UNL     1       5.128   7.136  17.094  0.00  0.00    +0.000 NA
ATOM      4  C   UNL     1       5.762   6.149  16.505  0.00  0.00    +0.000 A 
ATOM      5  N   UNL     1       7.019   6.158  15.961  0.00  0.00    +0.000 NA
ATOM      6  C   UNL     1       7.414   5.052  15.414  0.00  0.00    +0.000 A 
ATOM      7  C   UNL     1       6.630   3.796  15.289  0.00  0.00    +0.000 A 
ATOM      8  C   UNL     1       5.404   3.843  15.826  0.00  0.00    +0.000 A 
ATOM      9  N   UNL     1       4.972   4.997  16.479  0.00  0.00    +0.000 N 
ENDROOT
BRANCH   2  10
ATOM     10  C   UNL     1       3.001   7.426  18.382  0.00  0.00    +0.000 A 
ATOM     11  C   UNL     1       2.656   7.085  19.673  0.00  0.00    +0.000 A 
ATOM     12  C   UNL     1       1.673   7.961  20.222  0.00  0.00    +0.000 A 
ATOM     13  C   UNL     1       1.287   8.933  19.323  0.00  0.00    +0.000 A 
ATOM     14  C   UNL     1       0.233   9.974  19.478  0.00  0.00    +0.000 C 
ATOM     15  S   UNL     1       2.185   8.833  17.869  0.00  0.00    +0.000 S 
ENDBRANCH   2  10
BRANCH   1  16
ATOM     16  N   UNL     1       2.828   4.355  17.440  0.00  0.00    +0.000 N 
ATOM     17  H   UNL     1       1.993   4.447  16.856  0.00  0.00    +0.000 HD
BRANCH  16  22
ATOM     18  C   UNL     1       1.144   2.144  22.457  0.00  0.00    +0.000 C 
ATOM     19  C   UNL     1       1.602   2.723  21.152  0.00  0.00    +0.000 A 
ATOM     20  C   UNL     1       2.963   2.825  20.855  0.00  0.00    +0.000 A 
ATOM     21  C   UNL     1       3.382   3.394  19.651  0.00  0.00    +0.000 A 
ATOM     22  C   UNL     1       2.450   3.840  18.703  0.00  0.00    +0.000 A 
ATOM     23  C   UNL     1       1.089   3.756  19.015  0.00  0.00    +0.000 A 
ATOM     24  C   UNL     1       0.667   3.199  20.227  0.00  0.00    +0.000 A 
ENDBRANCH  16  22
ENDBRANCH   1  16
TORSDOF 3
ENDMDL
MODEL 9
REMARK VINA RESULT:      -7.2      1.919      2.174
REMARK  Name = 
REMARK  5 active torsions:
REMARK  status: ('A' for Active; 'I' for Inactive)
REMARK    1  A    between atoms: C_1  and  C_2
REMARK    2  A    between atoms: C_5  and  N_6
REMARK    3  A    between atoms: N_6  and  C_7
REMARK    4  A    between atoms: C_8  and  C_9
REMARK    5  A    between atoms: C_12  and  C_13
REMARK                            x       y       z     vdW  Elec       q    Type
REMARK                         _______ _______ _______ _____ _____    ______ ____
ROOT
ATOM      1  C   UNL     1       3.343   5.109  18.825  0.00  0.00    +0.000 A 
ATOM      2  C   UNL     1       3.797   4.390  17.726  0.00  0.00    +0.000 A 
ATOM      3  N   UNL     1       3.310   3.103  17.734  0.00  0.00    +0.000 NA
ATOM      4  C   UNL     1       2.592   2.994  18.827  0.00  0.00    +0.000 A 
ATOM      5  N   UNL     1       1.968   1.879  19.320  0.00  0.00    +0.000 NA
ATOM      6  C   UNL     1       1.296   2.036  20.417  0.00  0.00    +0.000 A 
ATOM      7  C   UNL     1       1.110   3.305  21.167  0.00  0.00    +0.000 A 
ATOM      8  C   UNL     1       1.730   4.368  20.638  0.00  0.00    +0.000 A 
ATOM      9  N   UNL     1       2.513   4.219  19.493  0.00  0.00    +0.000 N 
ENDROOT
BRANCH   2  10
ATOM     10  C   UNL     1       4.758   4.846  16.669  0.00  0.00    +0.000 A 
ATOM     11  C   UNL     1       4.850   6.162  16.265  0.00  0.00    +0.000 A 
ATOM     12  C   UNL     1       5.762   6.334  15.183  0.00  0.00    +0.000 A 
ATOM     13  C   UNL     1       6.325   5.140  14.785  0.00  0.00    +0.000 A 
ATOM     14  C   UNL     1       7.249   4.884  13.646  0.00  0.00    +0.000 C 
ATOM     15  S   UNL     1       5.818   3.845  15.784  0.00  0.00    +0.000 S 
ENDBRANCH   2  10
BRANCH   1  16
ATOM     16  N   UNL     1       3.552   6.404  19.212  0.00  0.00    +0.000 N 
ATOM     17  H   UNL     1       4.089   6.536  20.073  0.00  0.00    +0.000 HD
BRANCH  16  22
ATOM     18  C   UNL     1      -0.126  10.793  18.876  0.00  0.00    +0.000 C 
ATOM     19  C   UNL     1       0.836   9.645  18.945  0.00  0.00    +0.000 A 
ATOM     20  C   UNL     1       1.540   9.234  17.811  0.00  0.00    +0.000 A 
ATOM     21  C   UNL     1       2.411   8.145  17.876  0.00  0.00    +0.000 A 
ATOM     22  C   UNL     1       2.624   7.465  19.083  0.00  0.00    +0.000 A 
ATOM     23  C   UNL     1       1.899   7.866  20.211  0.00  0.00    +0.000 A 
ATOM     24  C   UNL     1       1.016   8.948  20.145  0.00  0.00    +0.000 A 
ENDBRANCH  16  22
ENDBRANCH   1  16
TORSDOF 3
ENDMDL
