MODEL 1
REMARK VINA RESULT:      -8.1      0.000      0.000
REMARK  Name = 
REMARK  6 active torsions:
REMARK  status: ('A' for Active; 'I' for Inactive)
REMARK    1  A    between atoms: C_2  and  C_3
REMARK    2  A    between atoms: C_3  and  N_4
REMARK    3  A    between atoms: N_7  and  C_8
REMARK    4  A    between atoms: C_8  and  C_9
REMARK    5  A    between atoms: N_18  and  C_19
REMARK    6  A    between atoms: C_19  and  C_20
REMARK                            x       y       z     vdW  Elec       q    Type
REMARK                         _______ _______ _______ _____ _____    ______ ____
ROOT
ATOM      1  N   UNL     1       7.029   5.445  17.678  0.00  0.00    +0.000 N 
ATOM      2  C   UNL     1       6.929   5.421  16.233  0.00  0.00    +0.000 C 
ATOM      3  C   UNL     1       6.204   4.107  15.978  0.00  0.00    +0.000 C 
ATOM      4  N   UNL     1       5.487   3.892  17.215  0.00  0.00    +0.000 N 
ATOM      5  C   UNL     1       6.126   4.560  18.258  0.00  0.00    +0.000 C 
ATOM      6  O   UNL     1       5.952   4.391  19.455  0.00  0.00    +0.000 OA
ENDROOT
BRANCH   1   7
ATOM      7  C   UNL     1       7.885   6.370  18.400  0.00  0.00    +0.000 C 
BRANCH   7   9
ATOM      8  O   UNL     1       6.892   8.058  16.981  0.00  0.00    +0.000 OA
ATOM      9  C   UNL     1       7.723   7.784  17.845  0.00  0.00    +0.000 C 
ATOM     10  N   UNL     1       8.541   8.722  18.429  0.00  0.00    +0.000 N 
ATOM     11  H   UNL     1       9.185   8.432  19.158  0.00  0.00    +0.000 HD
BRANCH  10  12
ATOM     12  C   UNL     1       8.498  10.126  18.082  0.00  0.00    +0.000 C 
BRANCH  12  13
ATOM     13  C   UNL     1       9.661  10.893  18.668  0.00  0.00    +0.000 A 
ATOM     14  C   UNL     1       9.756  11.086  20.044  0.00  0.00    +0.000 A 
ATOM     15  C   UNL     1      10.835  11.798  20.552  0.00  0.00    +0.000 A 
ATOM     16  C   UNL     1      11.797  12.295  19.678  0.00  0.00    +0.000 A 
ATOM     17  C   UNL     1      11.640  12.045  18.325  0.00  0.00    +0.000 A 
ATOM     18  N   UNL     1      10.600  11.355  17.803  0.00  0.00    +0.000 NA
ENDBRANCH  12  13
ENDBRANCH  10  12
ENDBRANCH   7   9
ENDBRANCH   1   7
BRANCH   4  19
ATOM     19  C   UNL     1       4.558   2.798  17.394  0.00  0.00    +0.000 C 
BRANCH  19  20
ATOM     20  C   UNL     1       3.311   3.188  18.155  0.00  0.00    +0.000 A 
ATOM     21  C   UNL     1       2.451   4.188  17.670  0.00  0.00    +0.000 A 
ATOM     22  C   UNL     1       1.376   4.643  18.443  0.00  0.00    +0.000 A 
ATOM     23  C   UNL     1       1.141   4.100  19.704  0.00  0.00    +0.000 A 
ATOM     24  C   UNL     1       1.968   3.086  20.180  0.00  0.00    +0.000 A 
ATOM     25 CL   UNL     1       1.686   2.415  21.740  0.00  0.00    +0.000 Cl
ATOM     26  C   UNL     1       3.044   2.629  19.415  0.00  0.00    +0.000 A 
ENDBRANCH  19  20
ENDBRANCH   4  19
TORSDOF 6
ENDMDL
MODEL 2
REMARK VINA RESULT:      -7.9      1.502      1.669
REMARK  Name = 
REMARK  6 active torsions:
REMARK  status: ('A' for Active; 'I' for Inactive)
REMARK    1  A    between atoms: C_2  and  C_3
REMARK    2  A    between atoms: C_3  and  N_4
REMARK    3  A    between atoms: N_7  and  C_8
REMARK    4  A    between atoms: C_8  and  C_9
REMARK    5  A    between atoms: N_18  and  C_19
REMARK    6  A    between atoms: C_19  and  C_20
REMARK                            x       y       z     vdW  Elec       q    Type
REMARK                         _______ _______ _______ _____ _____    ______ ____
ROOT
ATOM      1  N   UNL     1       6.358   6.549  17.038  0.00  0.00    +0.000 N 
ATOM      2  C   UNL     1       5.030   7.003  17.397  0.00  0.00    +0.000 C 
ATOM      3  C   UNL     1       4.196   5.742  17.222  0.00  0.00    +0.000 C 
ATOM      4  N   UNL     1       5.169   4.687  17.394  0.00  0.00    +0.000 N 
ATOM      5  C   UNL     1       6.444   5.161  17.087  0.00  0.00    +0.000 C 
ATOM      6  O   UNL     1       7.444   4.494  16.874  0.00  0.00    +0.000 OA
ENDROOT
BRANCH   1   7
ATOM      7  C   UNL     1       7.465   7.454  16.783  0.00  0.00    +0.000 C 
BRANCH   7   9
ATOM      8  O   UNL     1       8.385   7.083  18.988  0.00  0.00    +0.000 OA
ATOM      9  C   UNL     1       8.110   7.886  18.099  0.00  0.00    +0.000 C 
ATOM     10  N   UNL     1       8.400   9.227  18.177  0.00  0.00    +0.000 N 
ATOM     11  H   UNL     1       8.172   9.830  17.393  0.00  0.00    +0.000 HD
BRANCH  10  12
ATOM     12  C   UNL     1       9.065   9.821  19.317  0.00  0.00    +0.000 C 
BRANCH  12  13
ATOM     13  C   UNL     1       9.778  11.103  18.955  0.00  0.00    +0.000 A 
ATOM     14  C   UNL     1      10.858  11.547  19.716  0.00  0.00    +0.000 A 
ATOM     15  C   UNL     1      11.492  12.731  19.361  0.00  0.00    +0.000 A 
ATOM     16  C   UNL     1      11.040  13.441  18.253  0.00  0.00    +0.000 A 
ATOM     17  C   UNL     1       9.972  12.924  17.539  0.00  0.00    +0.000 A 
ATOM     18  N   UNL     1       9.336  11.774  17.861  0.00  0.00    +0.000 NA
ENDBRANCH  12  13
ENDBRANCH  10  12
ENDBRANCH   7   9
ENDBRANCH   1   7
BRANCH   4  19
ATOM     19  C   UNL     1       4.803   3.288  17.419  0.00  0.00    +0.000 C 
BRANCH  19  20
ATOM     20  C   UNL     1       3.557   3.009  18.229  0.00  0.00    +0.000 A 
ATOM     21  C   UNL     1       2.376   2.564  17.610  0.00  0.00    +0.000 A 
ATOM     22  C   UNL     1       1.188   2.440  18.340  0.00  0.00    +0.000 A 
ATOM     23  C   UNL     1       1.167   2.750  19.698  0.00  0.00    +0.000 A 
ATOM     24  C   UNL     1       2.338   3.160  20.327  0.00  0.00    +0.000 A 
ATOM     25 CL   UNL     1       2.316   3.549  22.004  0.00  0.00    +0.000 Cl
ATOM     26  C   UNL     1       3.527   3.289  19.604  0.00  0.00    +0.000 A 
ENDBRANCH  19  20
ENDBRANCH   4  19
TORSDOF 6
ENDMDL
MODEL 3
REMARK VINA RESULT:      -7.9      3.795      6.349
REMARK  Name = 
REMARK  6 active torsions:
REMARK  status: ('A' for Active; 'I' for Inactive)
REMARK    1  A    between atoms: C_2  and  C_3
REMARK    2  A    between atoms: C_3  and  N_4
REMARK    3  A    between atoms: N_7  and  C_8
REMARK    4  A    between atoms: C_8  and  C_9
REMARK    5  A    between atoms: N_18  and  C_19
REMARK    6  A    between atoms: C_19  and  C_20
REMARK                            x       y       z     vdW  Elec       q    Type
REMARK                         _______ _______ _______ _____ _____    ______ ____
ROOT
ATOM      1  N   UNL     1       1.931   4.510  18.667  0.00  0.00    +0.000 N 
ATOM      2  C   UNL     1       1.106   4.021  19.752  0.00  0.00    +0.000 C 
ATOM      3  C   UNL     1       1.462   4.970  20.887  0.00  0.00    +0.000 C 
ATOM      4  N   UNL     1       1.912   6.152  20.187  0.00  0.00    +0.000 N 
ATOM      5  C   UNL     1       2.369   5.808  18.916  0.00  0.00    +0.000 C 
ATOM      6  O   UNL     1       3.046   6.495  18.168  0.00  0.00    +0.000 OA
ENDROOT
BRANCH   1   7
ATOM      7  C   UNL     1       2.154   3.767  17.440  0.00  0.00    +0.000 C 
BRANCH   7   9
ATOM      8  O   UNL     1       4.151   2.416  17.624  0.00  0.00    +0.000 OA
ATOM      9  C   UNL     1       3.643   3.475  17.260  0.00  0.00    +0.000 C 
ATOM     10  N   UNL     1       4.343   4.466  16.614  0.00  0.00    +0.000 N 
ATOM     11  H   UNL     1       3.854   5.303  16.314  0.00  0.00    +0.000 HD
BRANCH  10  12
ATOM     12  C   UNL     1       5.750   4.353  16.296  0.00  0.00    +0.000 C 
BRANCH  12  13
ATOM     13  C   UNL     1       6.592   5.326  17.089  0.00  0.00    +0.000 A 
ATOM     14  C   UNL     1       7.174   4.936  18.292  0.00  0.00    +0.000 A 
ATOM     15  C   UNL     1       7.940   5.853  19.001  0.00  0.00    +0.000 A 
ATOM     16  C   UNL     1       8.114   7.135  18.489  0.00  0.00    +0.000 A 
ATOM     17  C   UNL     1       7.516   7.440  17.278  0.00  0.00    +0.000 A 
ATOM     18  N   UNL     1       6.766   6.568  16.567  0.00  0.00    +0.000 NA
ENDBRANCH  12  13
ENDBRANCH  10  12
ENDBRANCH   7   9
ENDBRANCH   1   7
BRANCH   4  19
ATOM     19  C   UNL     1       2.256   7.378  20.874  0.00  0.00    +0.000 C 
BRANCH  19  20
ATOM     20  C   UNL     1       1.213   8.462  20.723  0.00  0.00    +0.000 A 
ATOM     21  C   UNL     1       1.010   9.104  19.490  0.00  0.00    +0.000 A 
ATOM     22  C   UNL     1       0.144  10.200  19.387  0.00  0.00    +0.000 A 
ATOM     23  C   UNL     1      -0.535  10.662  20.512  0.00  0.00    +0.000 A 
ATOM     24  C   UNL     1      -0.365  10.013  21.732  0.00  0.00    +0.000 A 
ATOM     25 CL   UNL     1      -1.198  10.583  23.126  0.00  0.00    +0.000 Cl
ATOM     26  C   UNL     1       0.499   8.921  21.842  0.00  0.00    +0.000 A 
ENDBRANCH  19  20
ENDBRANCH   4  19
TORSDOF 6
ENDMDL
MODEL 4
REMARK VINA RESULT:      -7.8      5.911      6.702
REMARK  Name = 
REMARK  6 active torsions:
REMARK  status: ('A' for Active; 'I' for Inactive)
REMARK    1  A    between atoms: C_2  and  C_3
REMARK    2  A    between atoms: C_3  and  N_4
REMARK    3  A    between atoms: N_7  and  C_8
REMARK    4  A    between atoms: C_8  and  C_9
REMARK    5  A    between atoms: N_18  and  C_19
REMARK    6  A    between atoms: C_19  and  C_20
REMARK                            x       y       z     vdW  Elec       q    Type
REMARK                         _______ _______ _______ _____ _____    ______ ____
ROOT
ATOM      1  N   UNL     1       0.817   9.549  19.319  0.00  0.00    +0.000 N 
ATOM      2  C   UNL     1       1.086   9.511  17.896  0.00  0.00    +0.000 C 
ATOM      3  C   UNL     1       2.321   8.623  17.821  0.00  0.00    +0.000 C 
ATOM      4  N   UNL     1       2.218   7.828  19.024  0.00  0.00    +0.000 N 
ATOM      5  C   UNL     1       1.461   8.506  19.979  0.00  0.00    +0.000 C 
ATOM      6  O   UNL     1       1.390   8.257  21.173  0.00  0.00    +0.000 OA
ENDROOT
BRANCH   1   7
ATOM      7  C   UNL     1      -0.104  10.491  19.929  0.00  0.00    +0.000 C 
BRANCH   7   9
ATOM      8  O   UNL     1       0.590  11.723  21.890  0.00  0.00    +0.000 OA
ATOM      9  C   UNL     1       0.667  11.581  20.671  0.00  0.00    +0.000 C 
ATOM     10  N   UNL     1       1.485  12.344  19.872  0.00  0.00    +0.000 N 
ATOM     11  H   UNL     1       1.521  12.153  18.876  0.00  0.00    +0.000 HD
BRANCH  10  12
ATOM     12  C   UNL     1       2.339  13.388  20.395  0.00  0.00    +0.000 C 
BRANCH  12  13
ATOM     13  C   UNL     1       2.617  14.463  19.369  0.00  0.00    +0.000 A 
ATOM     14  C   UNL     1       1.769  15.561  19.253  0.00  0.00    +0.000 A 
ATOM     15  C   UNL     1       2.048  16.531  18.298  0.00  0.00    +0.000 A 
ATOM     16  C   UNL     1       3.170  16.387  17.487  0.00  0.00    +0.000 A 
ATOM     17  C   UNL     1       3.973  15.275  17.677  0.00  0.00    +0.000 A 
ATOM     18  N   UNL     1       3.726  14.316  18.598  0.00  0.00    +0.000 NA
ENDBRANCH  12  13
ENDBRANCH  10  12
ENDBRANCH   7   9
ENDBRANCH   1   7
BRANCH   4  19
ATOM     19  C   UNL     1       3.134   6.750  19.324  0.00  0.00    +0.000 C 
BRANCH  19  20
ATOM     20  C   UNL     1       2.494   5.382  19.252  0.00  0.00    +0.000 A 
ATOM     21  C   UNL     1       2.032   4.863  18.030  0.00  0.00    +0.000 A 
ATOM     22  C   UNL     1       1.317   3.660  17.988  0.00  0.00    +0.000 A 
ATOM     23  C   UNL     1       1.063   2.957  19.162  0.00  0.00    +0.000 A 
ATOM     24  C   UNL     1       1.543   3.445  20.374  0.00  0.00    +0.000 A 
ATOM     25 CL   UNL     1       1.227   2.582  21.830  0.00  0.00    +0.000 Cl
ATOM     26  C   UNL     1       2.255   4.646  20.424  0.00  0.00    +0.000 A 
ENDBRANCH  19  20
ENDBRANCH   4  19
TORSDOF 6
ENDMDL
MODEL 5
REMARK VINA RESULT:      -7.7      5.093      7.395
REMARK  Name = 
REMARK  6 active torsions:
REMARK  status: ('A' for Active; 'I' for Inactive)
REMARK    1  A    between atoms: C_2  and  C_3
REMARK    2  A    between atoms: C_3  and  N_4
REMARK    3  A    between atoms: N_7  and  C_8
REMARK    4  A    between atoms: C_8  and  C_9
REMARK    5  A    between atoms: N_18  and  C_19
REMARK    6  A    between atoms: C_19  and  C_20
REMARK                            x       y       z     vdW  Elec       q    Type
REMARK                         _______ _______ _______ _____ _____    ______ ____
ROOT
ATOM      1  N   UNL     1       3.020   6.000  19.200  0.00  0.00    +0.000 N 
ATOM      2  C   UNL     1       2.083   6.301  20.263  0.00  0.00    +0.000 C 
ATOM      3  C   UNL     1       1.858   7.797  20.086  0.00  0.00    +0.000 C 
ATOM      4  N   UNL     1       2.164   8.003  18.688  0.00  0.00    +0.000 N 
ATOM      5  C   UNL     1       3.024   7.003  18.236  0.00  0.00    +0.000 C 
ATOM      6  O   UNL     1       3.681   7.008  17.207  0.00  0.00    +0.000 OA
ENDROOT
BRANCH   1   7
ATOM      7  C   UNL     1       3.753   4.749  19.119  0.00  0.00    +0.000 C 
BRANCH   7   9
ATOM      8  O   UNL     1       6.043   5.392  19.553  0.00  0.00    +0.000 OA
ATOM      9  C   UNL     1       5.208   5.012  18.734  0.00  0.00    +0.000 C 
ATOM     10  N   UNL     1       5.509   4.737  17.422  0.00  0.00    +0.000 N 
ATOM     11  H   UNL     1       4.776   4.397  16.807  0.00  0.00    +0.000 HD
BRANCH  10  12
ATOM     12  C   UNL     1       6.843   4.865  16.879  0.00  0.00    +0.000 C 
BRANCH  12  13
ATOM     13  C   UNL     1       6.868   4.681  15.379  0.00  0.00    +0.000 A 
ATOM     14  C   UNL     1       5.982   3.801  14.763  0.00  0.00    +0.000 A 
ATOM     15  C   UNL     1       6.030   3.650  13.383  0.00  0.00    +0.000 A 
ATOM     16  C   UNL     1       6.955   4.386  12.648  0.00  0.00    +0.000 A 
ATOM     17  C   UNL     1       7.790   5.253  13.334  0.00  0.00    +0.000 A 
ATOM     18  N   UNL     1       7.765   5.420  14.676  0.00  0.00    +0.000 NA
ENDBRANCH  12  13
ENDBRANCH  10  12
ENDBRANCH   7   9
ENDBRANCH   1   7
BRANCH   4  19
ATOM     19  C   UNL     1       1.980   9.279  18.033  0.00  0.00    +0.000 C 
BRANCH  19  20
ATOM     20  C   UNL     1       0.702   9.980  18.433  0.00  0.00    +0.000 A 
ATOM     21  C   UNL     1      -0.511   9.702  17.780  0.00  0.00    +0.000 A 
ATOM     22  C   UNL     1      -1.661  10.451  18.058  0.00  0.00    +0.000 A 
ATOM     23  C   UNL     1      -1.616  11.479  18.996  0.00  0.00    +0.000 A 
ATOM     24  C   UNL     1      -0.428  11.741  19.671  0.00  0.00    +0.000 A 
ATOM     25 CL   UNL     1      -0.366  13.015  20.828  0.00  0.00    +0.000 Cl
ATOM     26  C   UNL     1       0.724  11.000  19.398  0.00  0.00    +0.000 A 
ENDBRANCH  19  20
ENDBRANCH   4  19
TORSDOF 6
ENDMDL
MODEL 6
REMARK VINA RESULT:      -7.7      5.500      8.932
REMARK  Name = 
REMARK  6 active torsions:
REMARK  status: ('A' for Active; 'I' for Inactive)
REMARK    1  A    between atoms: C_2  and  C_3
REMARK    2  A    between atoms: C_3  and  N_4
REMARK    3  A    between atoms: N_7  and  C_8
REMARK    4  A    between atoms: C_8  and  C_9
REMARK    5  A    between atoms: N_18  and  C_19
REMARK    6  A    between atoms: C_19  and  C_20
REMARK                            x       y       z     vdW  Elec       q    Type
REMARK                         _______ _______ _______ _____ _____    ______ ____
ROOT
ATOM      1  N   UNL     1       2.746   7.914  18.377  0.00  0.00    +0.000 N 
ATOM      2  C   UNL     1       2.181   7.252  19.536  0.00  0.00    +0.000 C 
ATOM      3  C   UNL     1       1.486   8.397  20.259  0.00  0.00    +0.000 C 
ATOM      4  N   UNL     1       1.225   9.338  19.193  0.00  0.00    +0.000 N 
ATOM      5  C   UNL     1       2.131   9.142  18.152  0.00  0.00    +0.000 C 
ATOM      6  O   UNL     1       2.366   9.907  17.230  0.00  0.00    +0.000 OA
ENDROOT
BRANCH   1   7
ATOM      7  C   UNL     1       3.737   7.298  17.514  0.00  0.00    +0.000 C 
BRANCH   7   9
ATOM      8  O   UNL     1       4.957   5.703  18.862  0.00  0.00    +0.000 OA
ATOM      9  C   UNL     1       4.082   5.898  18.020  0.00  0.00    +0.000 C 
ATOM     10  N   UNL     1       3.301   4.895  17.497  0.00  0.00    +0.000 N 
ATOM     11  H   UNL     1       2.577   5.130  16.826  0.00  0.00    +0.000 HD
BRANCH  10  12
ATOM     12  C   UNL     1       3.434   3.510  17.893  0.00  0.00    +0.000 C 
BRANCH  12  13
ATOM     13  C   UNL     1       2.721   3.220  19.194  0.00  0.00    +0.000 A 
ATOM     14  C   UNL     1       3.432   2.759  20.299  0.00  0.00    +0.000 A 
ATOM     15  C   UNL     1       2.749   2.497  21.480  0.00  0.00    +0.000 A 
ATOM     16  C   UNL     1       1.375   2.708  21.534  0.00  0.00    +0.000 A 
ATOM     17  C   UNL     1       0.743   3.185  20.397  0.00  0.00    +0.000 A 
ATOM     18  N   UNL     1       1.383   3.448  19.235  0.00  0.00    +0.000 NA
ENDBRANCH  12  13
ENDBRANCH  10  12
ENDBRANCH   7   9
ENDBRANCH   1   7
BRANCH   4  19
ATOM     19  C   UNL     1       0.467  10.553  19.398  0.00  0.00    +0.000 C 
BRANCH  19  20
ATOM     20  C   UNL     1      -0.894  10.529  18.738  0.00  0.00    +0.000 A 
ATOM     21  C   UNL     1      -1.105   9.825  17.541  0.00  0.00    +0.000 A 
ATOM     22  C   UNL     1      -2.326   9.919  16.861  0.00  0.00    +0.000 A 
ATOM     23  C   UNL     1      -3.352  10.709  17.373  0.00  0.00    +0.000 A 
ATOM     24  C   UNL     1      -3.164  11.385  18.575  0.00  0.00    +0.000 A 
ATOM     25 CL   UNL     1      -4.427  12.368  19.210  0.00  0.00    +0.000 Cl
ATOM     26  C   UNL     1      -1.948  11.298  19.257  0.00  0.00    +0.000 A 
ENDBRANCH  19  20
ENDBRANCH   4  19
TORSDOF 6
ENDMDL
MODEL 7
REMARK VINA RESULT:      -7.7      3.614      6.019
REMARK  Name = 
REMARK  6 active torsions:
REMARK  status: ('A' for Active; 'I' for Inactive)
REMARK    1  A    between atoms: C_2  and  C_3
REMARK    2  A    between atoms: C_3  and  N_4
REMARK    3  A    between atoms: N_7  and  C_8
REMARK    4  A    between atoms: C_8  and  C_9
REMARK    5  A    between atoms: N_18  and  C_19
REMARK    6  A    between atoms: C_19  and  C_20
REMARK                            x       y       z     vdW  Elec       q    Type
REMARK                         _______ _______ _______ _____ _____    ______ ____
ROOT
ATOM      1  N   UNL     1       2.549   3.559  19.147  0.00  0.00    +0.000 N 
ATOM      2  C   UNL     1       1.127   3.386  19.365  0.00  0.00    +0.000 C 
ATOM      3  C   UNL     1       0.831   4.436  20.427  0.00  0.00    +0.000 C 
ATOM      4  N   UNL     1       1.885   5.404  20.224  0.00  0.00    +0.000 N 
ATOM      5  C   UNL     1       2.984   4.792  19.621  0.00  0.00    +0.000 C 
ATOM      6  O   UNL     1       4.119   5.235  19.543  0.00  0.00    +0.000 OA
ENDROOT
BRANCH   1   7
ATOM      7  C   UNL     1       3.363   2.602  18.417  0.00  0.00    +0.000 C 
BRANCH   7   9
ATOM      8  O   UNL     1       3.611   3.732  16.294  0.00  0.00    +0.000 OA
ATOM      9  C   UNL     1       4.150   3.309  17.315  0.00  0.00    +0.000 C 
ATOM     10  N   UNL     1       5.487   3.475  17.588  0.00  0.00    +0.000 N 
ATOM     11  H   UNL     1       5.860   3.126  18.464  0.00  0.00    +0.000 HD
BRANCH  10  12
ATOM     12  C   UNL     1       6.389   4.171  16.696  0.00  0.00    +0.000 C 
BRANCH  12  13
ATOM     13  C   UNL     1       7.042   5.361  17.361  0.00  0.00    +0.000 A 
ATOM     14  C   UNL     1       7.022   6.610  16.745  0.00  0.00    +0.000 A 
ATOM     15  C   UNL     1       7.634   7.684  17.379  0.00  0.00    +0.000 A 
ATOM     16  C   UNL     1       8.244   7.490  18.614  0.00  0.00    +0.000 A 
ATOM     17  C   UNL     1       8.206   6.221  19.168  0.00  0.00    +0.000 A 
ATOM     18  N   UNL     1       7.617   5.157  18.574  0.00  0.00    +0.000 NA
ENDBRANCH  12  13
ENDBRANCH  10  12
ENDBRANCH   7   9
ENDBRANCH   1   7
BRANCH   4  19
ATOM     19  C   UNL     1       1.943   6.653  20.951  0.00  0.00    +0.000 C 
BRANCH  19  20
ATOM     20  C   UNL     1       1.601   7.857  20.102  0.00  0.00    +0.000 A 
ATOM     21  C   UNL     1       2.110   7.993  18.799  0.00  0.00    +0.000 A 
ATOM     22  C   UNL     1       1.905   9.170  18.069  0.00  0.00    +0.000 A 
ATOM     23  C   UNL     1       1.183  10.221  18.627  0.00  0.00    +0.000 A 
ATOM     24  C   UNL     1       0.646  10.085  19.905  0.00  0.00    +0.000 A 
ATOM     25 CL   UNL     1      -0.243  11.384  20.601  0.00  0.00    +0.000 Cl
ATOM     26  C   UNL     1       0.849   8.914  20.639  0.00  0.00    +0.000 A 
ENDBRANCH  19  20
ENDBRANCH   4  19
TORSDOF 6
ENDMDL
MODEL 8
REMARK VINA RESULT:      -7.7      1.223      1.662
REMARK  Name = 
REMARK  6 active torsions:
REMARK  status: ('A' for Active; 'I' for Inactive)
REMARK    1  A    between atoms: C_2  and  C_3
REMARK    2  A    between atoms: C_3  and  N_4
REMARK    3  A    between atoms: N_7  and  C_8
REMARK    4  A    between atoms: C_8  and  C_9
REMARK    5  A    between atoms: N_18  and  C_19
REMARK    6  A    between atoms: C_19  and  C_20
REMARK                            x       y       z     vdW  Elec       q    Type
REMARK                         _______ _______ _______ _____ _____    ______ ____
ROOT
ATOM      1  N   UNL     1       6.547   5.521  17.637  0.00  0.00    +0.000 N 
ATOM      2  C   UNL     1       6.742   4.715  16.449  0.00  0.00    +0.000 C 
ATOM      3  C   UNL     1       5.493   3.845  16.437  0.00  0.00    +0.000 C 
ATOM      4  N   UNL     1       4.542   4.638  17.181  0.00  0.00    +0.000 N 
ATOM      5  C   UNL     1       5.215   5.508  18.038  0.00  0.00    +0.000 C 
ATOM      6  O   UNL     1       4.741   6.124  18.980  0.00  0.00    +0.000 OA
ENDROOT
BRANCH   1   7
ATOM      7  C   UNL     1       7.599   6.323  18.235  0.00  0.00    +0.000 C 
BRANCH   7   9
ATOM      8  O   UNL     1       6.819   8.067  16.753  0.00  0.00    +0.000 OA
ATOM      9  C   UNL     1       7.569   7.743  17.671  0.00  0.00    +0.000 C 
ATOM     10  N   UNL     1       8.405   8.627  18.311  0.00  0.00    +0.000 N 
ATOM     11  H   UNL     1       8.977   8.298  19.082  0.00  0.00    +0.000 HD
BRANCH  10  12
ATOM     12  C   UNL     1       8.478  10.029  17.964  0.00  0.00    +0.000 C 
BRANCH  12  13
ATOM     13  C   UNL     1       9.531  10.760  18.764  0.00  0.00    +0.000 A 
ATOM     14  C   UNL     1      10.698  11.208  18.149  0.00  0.00    +0.000 A 
ATOM     15  C   UNL     1      11.649  11.874  18.911  0.00  0.00    +0.000 A 
ATOM     16  C   UNL     1      11.413  12.084  20.266  0.00  0.00    +0.000 A 
ATOM     17  C   UNL     1      10.220  11.624  20.798  0.00  0.00    +0.000 A 
ATOM     18  N   UNL     1       9.276  10.973  20.080  0.00  0.00    +0.000 NA
ENDBRANCH  12  13
ENDBRANCH  10  12
ENDBRANCH   7   9
ENDBRANCH   1   7
BRANCH   4  19
ATOM     19  C   UNL     1       3.157   4.250  17.335  0.00  0.00    +0.000 C 
BRANCH  19  20
ATOM     20  C   UNL     1       2.853   3.635  18.682  0.00  0.00    +0.000 A 
ATOM     21  C   UNL     1       1.668   3.948  19.369  0.00  0.00    +0.000 A 
ATOM     22  C   UNL     1       1.454   3.488  20.674  0.00  0.00    +0.000 A 
ATOM     23  C   UNL     1       2.415   2.702  21.305  0.00  0.00    +0.000 A 
ATOM     24  C   UNL     1       3.578   2.359  20.621  0.00  0.00    +0.000 A 
ATOM     25 CL   UNL     1       4.773   1.393  21.397  0.00  0.00    +0.000 Cl
ATOM     26  C   UNL     1       3.800   2.817  19.320  0.00  0.00    +0.000 A 
ENDBRANCH  19  20
ENDBRANCH   4  19
TORSDOF 6
ENDMDL
MODEL 9
REMARK VINA RESULT:      -7.7      6.804      9.586
REMARK  Name = 
REMARK  6 active torsions:
REMARK  status: ('A' for Active; 'I' for Inactive)
REMARK    1  A    between atoms: C_2  and  C_3
REMARK    2  A    between atoms: C_3  and  N_4
REMARK    3  A    between atoms: N_7  and  C_8
REMARK    4  A    between atoms: C_8  and  C_9
REMARK    5  A    between atoms: N_18  and  C_19
REMARK    6  A    between atoms: C_19  and  C_20
REMARK                            x       y       z     vdW  Elec       q    Type
REMARK                         _______ _______ _______ _____ _____    ______ ____
ROOT
ATOM      1  N   UNL     1       1.049   9.358  19.402  0.00  0.00    +0.000 N 
ATOM      2  C   UNL     1       1.280   9.431  17.974  0.00  0.00    +0.000 C 
ATOM      3  C   UNL     1       2.474   8.505  17.789  0.00  0.00    +0.000 C 
ATOM      4  N   UNL     1       2.369   7.616  18.923  0.00  0.00    +0.000 N 
ATOM      5  C   UNL     1       1.665   8.239  19.953  0.00  0.00    +0.000 C 
ATOM      6  O   UNL     1       1.615   7.892  21.123  0.00  0.00    +0.000 OA
ENDROOT
BRANCH   1   7
ATOM      7  C   UNL     1       0.183  10.280  20.115  0.00  0.00    +0.000 C 
BRANCH   7   9
ATOM      8  O   UNL     1      -0.130  12.240  18.735  0.00  0.00    +0.000 OA
ATOM      9  C   UNL     1      -0.577  11.165  19.127  0.00  0.00    +0.000 C 
ATOM     10  N   UNL     1      -1.763  10.632  18.682  0.00  0.00    +0.000 N 
ATOM     11  H   UNL     1      -2.058   9.724  19.026  0.00  0.00    +0.000 HD
BRANCH  10  12
ATOM     12  C   UNL     1      -2.598  11.289  17.700  0.00  0.00    +0.000 C 
BRANCH  12  13
ATOM     13  C   UNL     1      -3.990  11.557  18.225  0.00  0.00    +0.000 A 
ATOM     14  C   UNL     1      -5.107  11.150  17.499  0.00  0.00    +0.000 A 
ATOM     15  C   UNL     1      -6.373  11.413  18.005  0.00  0.00    +0.000 A 
ATOM     16  C   UNL     1      -6.497  12.069  19.226  0.00  0.00    +0.000 A 
ATOM     17  C   UNL     1      -5.338  12.425  19.896  0.00  0.00    +0.000 A 
ATOM     18  N   UNL     1      -4.092  12.181  19.427  0.00  0.00    +0.000 NA
ENDBRANCH  12  13
ENDBRANCH  10  12
ENDBRANCH   7   9
ENDBRANCH   1   7
BRANCH   4  19
ATOM     19  C   UNL     1       3.247   6.481  19.105  0.00  0.00    +0.000 C 
BRANCH  19  20
ATOM     20  C   UNL     1       2.518   5.157  19.132  0.00  0.00    +0.000 A 
ATOM     21  C   UNL     1       1.946   4.623  17.964  0.00  0.00    +0.000 A 
ATOM     22  C   UNL     1       1.154   3.469  18.019  0.00  0.00    +0.000 A 
ATOM     23  C   UNL     1       0.933   2.830  19.236  0.00  0.00    +0.000 A 
ATOM     24  C   UNL     1       1.522   3.333  20.393  0.00  0.00    +0.000 A 
ATOM     25 CL   UNL     1       1.247   2.550  21.902  0.00  0.00    +0.000 Cl
ATOM     26  C   UNL     1       2.310   4.485  20.347  0.00  0.00    +0.000 A 
ENDBRANCH  19  20
ENDBRANCH   4  19
TORSDOF 6
ENDMDL
