MODEL 1
REMARK VINA RESULT:      -8.3      0.000      0.000
REMARK  Name = 
REMARK  5 active torsions:
REMARK  status: ('A' for Active; 'I' for Inactive)
REMARK    1  A    between atoms: N_3  and  C_4
REMARK    2  A    between atoms: C_4  and  C_5
REMARK    3  A    between atoms: C_11  and  O_12
REMARK    4  A    between atoms: N_15  and  C_16
REMARK    5  A    between atoms: C_19  and  C_20
REMARK                            x       y       z     vdW  Elec       q    Type
REMARK                         _______ _______ _______ _____ _____    ______ ____
ROOT
ATOM      1  O   UNL     1       1.924   5.851  20.692  0.00  0.00    +0.000 OA
ATOM      2  C   UNL     1       2.319   6.525  19.752  0.00  0.00    +0.000 A 
ATOM      3  N   UNL     1       3.145   6.067  18.701  0.00  0.00    +0.000 N 
ATOM      4  C   UNL     1       3.357   7.081  17.803  0.00  0.00    +0.000 A 
ATOM      5  C   UNL     1       2.690   8.169  18.215  0.00  0.00    +0.000 A 
ATOM      6  N   UNL     1       2.041   7.894  19.410  0.00  0.00    +0.000 N 
ENDROOT
BRANCH   6   7
ATOM      7  C   UNL     1       1.223   8.765  20.175  0.00  0.00    +0.000 A 
ATOM      8  C   UNL     1       0.410   9.722  19.556  0.00  0.00    +0.000 A 
ATOM      9  C   UNL     1      -0.403  10.578  20.305  0.00  0.00    +0.000 A 
ATOM     10  C   UNL     1      -0.415  10.509  21.702  0.00  0.00    +0.000 A 
ATOM     11  C   UNL     1       0.401   9.559  22.331  0.00  0.00    +0.000 A 
ATOM     12  C   UNL     1       1.200   8.689  21.575  0.00  0.00    +0.000 A 
BRANCH  10  13
ATOM     13  C   UNL     1      -1.285  11.431  22.518  0.00  0.00    +0.000 C 
ATOM     14  F   UNL     1      -0.610  12.491  23.047  0.00  0.00    +0.000 F 
ATOM     15  F   UNL     1      -2.304  11.965  21.789  0.00  0.00    +0.000 F 
ATOM     16  F   UNL     1      -1.871  10.800  23.572  0.00  0.00    +0.000 F 
ENDBRANCH  10  13
ENDBRANCH   6   7
BRANCH   3  17
ATOM     17  C   UNL     1       3.617   4.711  18.585  0.00  0.00    +0.000 C 
BRANCH  17  18
ATOM     18  C   UNL     1       4.892   4.589  17.788  0.00  0.00    +0.000 A 
ATOM     19  C   UNL     1       4.833   4.289  16.415  0.00  0.00    +0.000 A 
ATOM     20  C   UNL     1       6.002   4.230  15.655  0.00  0.00    +0.000 A 
ATOM     21 CL   UNL     1       5.913   3.902  13.968  0.00  0.00    +0.000 Cl
ATOM     22  C   UNL     1       7.242   4.452  16.250  0.00  0.00    +0.000 A 
ATOM     23  C   UNL     1       7.317   4.720  17.617  0.00  0.00    +0.000 A 
ATOM     24  C   UNL     1       6.147   4.785  18.375  0.00  0.00    +0.000 A 
BRANCH  24  25
ATOM     25  O   UNL     1       6.215   5.060  19.712  0.00  0.00    +0.000 OA
ATOM     26  H   UNL     1       6.971   4.581  20.091  0.00  0.00    +0.000 HD
ENDBRANCH  24  25
ENDBRANCH  17  18
ENDBRANCH   3  17
TORSDOF 5
ENDMDL
MODEL 2
REMARK VINA RESULT:      -8.3      0.027      1.221
REMARK  Name = 
REMARK  5 active torsions:
REMARK  status: ('A' for Active; 'I' for Inactive)
REMARK    1  A    between atoms: N_3  and  C_4
REMARK    2  A    between atoms: C_4  and  C_5
REMARK    3  A    between atoms: C_11  and  O_12
REMARK    4  A    between atoms: N_15  and  C_16
REMARK    5  A    between atoms: C_19  and  C_20
REMARK                            x       y       z     vdW  Elec       q    Type
REMARK                         _______ _______ _______ _____ _____    ______ ____
ROOT
ATOM      1  O   UNL     1       1.938   5.862  20.718  0.00  0.00    +0.000 OA
ATOM      2  C   UNL     1       2.330   6.533  19.775  0.00  0.00    +0.000 A 
ATOM      3  N   UNL     1       3.160   6.074  18.727  0.00  0.00    +0.000 N 
ATOM      4  C   UNL     1       3.367   7.084  17.824  0.00  0.00    +0.000 A 
ATOM      5  C   UNL     1       2.694   8.170  18.229  0.00  0.00    +0.000 A 
ATOM      6  N   UNL     1       2.045   7.899  19.424  0.00  0.00    +0.000 N 
ENDROOT
BRANCH   6   7
ATOM      7  C   UNL     1       1.221   8.769  20.183  0.00  0.00    +0.000 A 
ATOM      8  C   UNL     1       1.210   8.717  21.582  0.00  0.00    +0.000 A 
ATOM      9  C   UNL     1       0.405   9.577  22.335  0.00  0.00    +0.000 A 
ATOM     10  C   UNL     1      -0.426  10.510  21.704  0.00  0.00    +0.000 A 
ATOM     11  C   UNL     1      -0.427  10.565  20.304  0.00  0.00    +0.000 A 
ATOM     12  C   UNL     1       0.397   9.713  19.554  0.00  0.00    +0.000 A 
BRANCH  10  13
ATOM     13  C   UNL     1      -1.302  11.438  22.507  0.00  0.00    +0.000 C 
ATOM     14  F   UNL     1      -2.322  11.984  21.787  0.00  0.00    +0.000 F 
ATOM     15  F   UNL     1      -1.887  10.813  23.566  0.00  0.00    +0.000 F 
ATOM     16  F   UNL     1      -0.610  12.488  23.029  0.00  0.00    +0.000 F 
ENDBRANCH  10  13
ENDBRANCH   6   7
BRANCH   3  17
ATOM     17  C   UNL     1       3.640   4.720  18.619  0.00  0.00    +0.000 C 
BRANCH  17  18
ATOM     18  C   UNL     1       4.902   4.597  17.803  0.00  0.00    +0.000 A 
ATOM     19  C   UNL     1       4.822   4.290  16.432  0.00  0.00    +0.000 A 
ATOM     20  C   UNL     1       5.978   4.231  15.653  0.00  0.00    +0.000 A 
ATOM     21 CL   UNL     1       5.863   3.895  13.970  0.00  0.00    +0.000 Cl
ATOM     22  C   UNL     1       7.227   4.458  16.227  0.00  0.00    +0.000 A 
ATOM     23  C   UNL     1       7.324   4.733  17.591  0.00  0.00    +0.000 A 
ATOM     24  C   UNL     1       6.166   4.799  18.368  0.00  0.00    +0.000 A 
BRANCH  24  25
ATOM     25  O   UNL     1       6.255   5.080  19.703  0.00  0.00    +0.000 OA
ATOM     26  H   UNL     1       6.099   6.030  19.833  0.00  0.00    +0.000 HD
ENDBRANCH  24  25
ENDBRANCH  17  18
ENDBRANCH   3  17
TORSDOF 5
ENDMDL
MODEL 3
REMARK VINA RESULT:      -7.9      2.044      3.159
REMARK  Name = 
REMARK  5 active torsions:
REMARK  status: ('A' for Active; 'I' for Inactive)
REMARK    1  A    between atoms: N_3  and  C_4
REMARK    2  A    between atoms: C_4  and  C_5
REMARK    3  A    between atoms: C_11  and  O_12
REMARK    4  A    between atoms: N_15  and  C_16
REMARK    5  A    between atoms: C_19  and  C_20
REMARK                            x       y       z     vdW  Elec       q    Type
REMARK                         _______ _______ _______ _____ _____    ______ ____
ROOT
ATOM      1  O   UNL     1       5.345   6.603  17.937  0.00  0.00    +0.000 OA
ATOM      2  C   UNL     1       4.437   5.803  17.768  0.00  0.00    +0.000 A 
ATOM      3  N   UNL     1       4.581   4.484  17.281  0.00  0.00    +0.000 N 
ATOM      4  C   UNL     1       3.360   3.863  17.255  0.00  0.00    +0.000 A 
ATOM      5  C   UNL     1       2.434   4.713  17.720  0.00  0.00    +0.000 A 
ATOM      6  N   UNL     1       3.030   5.924  18.042  0.00  0.00    +0.000 N 
ENDROOT
BRANCH   6   7
ATOM      7  C   UNL     1       2.410   7.084  18.572  0.00  0.00    +0.000 A 
ATOM      8  C   UNL     1       2.091   8.172  17.751  0.00  0.00    +0.000 A 
ATOM      9  C   UNL     1       1.474   9.316  18.266  0.00  0.00    +0.000 A 
ATOM     10  C   UNL     1       1.169   9.408  19.628  0.00  0.00    +0.000 A 
ATOM     11  C   UNL     1       1.490   8.327  20.460  0.00  0.00    +0.000 A 
ATOM     12  C   UNL     1       2.092   7.174  19.935  0.00  0.00    +0.000 A 
BRANCH  10  13
ATOM     13  C   UNL     1       0.508  10.639  20.195  0.00  0.00    +0.000 C 
ATOM     14  F   UNL     1      -0.285  10.385  21.274  0.00  0.00    +0.000 F 
ATOM     15  F   UNL     1       1.413  11.570  20.610  0.00  0.00    +0.000 F 
ATOM     16  F   UNL     1      -0.287  11.270  19.288  0.00  0.00    +0.000 F 
ENDBRANCH  10  13
ENDBRANCH   6   7
BRANCH   3  17
ATOM     17  C   UNL     1       5.849   3.889  16.940  0.00  0.00    +0.000 C 
BRANCH  17  18
ATOM     18  C   UNL     1       6.273   4.160  15.518  0.00  0.00    +0.000 A 
ATOM     19  C   UNL     1       5.767   3.364  14.474  0.00  0.00    +0.000 A 
ATOM     20  C   UNL     1       6.106   3.640  13.149  0.00  0.00    +0.000 A 
ATOM     21 CL   UNL     1       5.449   2.685  11.878  0.00  0.00    +0.000 Cl
ATOM     22  C   UNL     1       6.962   4.697  12.846  0.00  0.00    +0.000 A 
ATOM     23  C   UNL     1       7.495   5.475  13.874  0.00  0.00    +0.000 A 
ATOM     24  C   UNL     1       7.150   5.202  15.198  0.00  0.00    +0.000 A 
BRANCH  24  25
ATOM     25  O   UNL     1       7.660   5.969  16.208  0.00  0.00    +0.000 OA
ATOM     26  H   UNL     1       7.039   5.954  16.956  0.00  0.00    +0.000 HD
ENDBRANCH  24  25
ENDBRANCH  17  18
ENDBRANCH   3  17
TORSDOF 5
ENDMDL
MODEL 4
REMARK VINA RESULT:      -7.8      1.950      3.062
REMARK  Name = 
REMARK  5 active torsions:
REMARK  status: ('A' for Active; 'I' for Inactive)
REMARK    1  A    between atoms: N_3  and  C_4
REMARK    2  A    between atoms: C_4  and  C_5
REMARK    3  A    between atoms: C_11  and  O_12
REMARK    4  A    between atoms: N_15  and  C_16
REMARK    5  A    between atoms: C_19  and  C_20
REMARK                            x       y       z     vdW  Elec       q    Type
REMARK                         _______ _______ _______ _____ _____    ______ ____
ROOT
ATOM      1  O   UNL     1       5.117   6.446  18.089  0.00  0.00    +0.000 OA
ATOM      2  C   UNL     1       4.142   5.730  17.914  0.00  0.00    +0.000 A 
ATOM      3  N   UNL     1       4.173   4.396  17.449  0.00  0.00    +0.000 N 
ATOM      4  C   UNL     1       2.901   3.889  17.409  0.00  0.00    +0.000 A 
ATOM      5  C   UNL     1       2.048   4.828  17.845  0.00  0.00    +0.000 A 
ATOM      6  N   UNL     1       2.748   5.983  18.161  0.00  0.00    +0.000 N 
ENDROOT
BRANCH   6   7
ATOM      7  C   UNL     1       2.228   7.204  18.662  0.00  0.00    +0.000 A 
ATOM      8  C   UNL     1       1.904   7.350  20.016  0.00  0.00    +0.000 A 
ATOM      9  C   UNL     1       1.397   8.554  20.516  0.00  0.00    +0.000 A 
ATOM     10  C   UNL     1       1.188   9.646  19.668  0.00  0.00    +0.000 A 
ATOM     11  C   UNL     1       1.503   9.508  18.310  0.00  0.00    +0.000 A 
ATOM     12  C   UNL     1       2.029   8.305  17.816  0.00  0.00    +0.000 A 
BRANCH  10  13
ATOM     13  C   UNL     1       0.638  10.947  20.197  0.00  0.00    +0.000 C 
ATOM     14  F   UNL     1       0.434  10.944  21.545  0.00  0.00    +0.000 F 
ATOM     15  F   UNL     1       1.465  12.000  19.949  0.00  0.00    +0.000 F 
ATOM     16  F   UNL     1      -0.560  11.272  19.640  0.00  0.00    +0.000 F 
ENDBRANCH  10  13
ENDBRANCH   6   7
BRANCH   3  17
ATOM     17  C   UNL     1       5.387   3.682  17.141  0.00  0.00    +0.000 C 
BRANCH  17  18
ATOM     18  C   UNL     1       5.957   4.031  15.789  0.00  0.00    +0.000 A 
ATOM     19  C   UNL     1       5.377   3.493  14.625  0.00  0.00    +0.000 A 
ATOM     20  C   UNL     1       5.860   3.853  13.366  0.00  0.00    +0.000 A 
ATOM     21 CL   UNL     1       5.116   3.221  11.949  0.00  0.00    +0.000 Cl
ATOM     22  C   UNL     1       6.931   4.737  13.247  0.00  0.00    +0.000 A 
ATOM     23  C   UNL     1       7.535   5.253  14.394  0.00  0.00    +0.000 A 
ATOM     24  C   UNL     1       7.047   4.897  15.652  0.00  0.00    +0.000 A 
BRANCH  24  25
ATOM     25  O   UNL     1       7.628   5.410  16.778  0.00  0.00    +0.000 OA
ATOM     26  H   UNL     1       6.958   5.460  17.480  0.00  0.00    +0.000 HD
ENDBRANCH  24  25
ENDBRANCH  17  18
ENDBRANCH   3  17
TORSDOF 5
ENDMDL
MODEL 5
REMARK VINA RESULT:      -7.7      1.917      2.544
REMARK  Name = 
REMARK  5 active torsions:
REMARK  status: ('A' for Active; 'I' for Inactive)
REMARK    1  A    between atoms: N_3  and  C_4
REMARK    2  A    between atoms: C_4  and  C_5
REMARK    3  A    between atoms: C_11  and  O_12
REMARK    4  A    between atoms: N_15  and  C_16
REMARK    5  A    between atoms: C_19  and  C_20
REMARK                            x       y       z     vdW  Elec       q    Type
REMARK                         _______ _______ _______ _____ _____    ______ ____
ROOT
ATOM      1  O   UNL     1       2.869   8.346  17.969  0.00  0.00    +0.000 OA
ATOM      2  C   UNL     1       2.631   7.412  18.720  0.00  0.00    +0.000 A 
ATOM      3  N   UNL     1       3.127   6.096  18.578  0.00  0.00    +0.000 N 
ATOM      4  C   UNL     1       2.686   5.320  19.619  0.00  0.00    +0.000 A 
ATOM      5  C   UNL     1       1.944   6.079  20.438  0.00  0.00    +0.000 A 
ATOM      6  N   UNL     1       1.864   7.369  19.936  0.00  0.00    +0.000 N 
ENDROOT
BRANCH   6   7
ATOM      7  C   UNL     1       1.185   8.481  20.498  0.00  0.00    +0.000 A 
ATOM      8  C   UNL     1       1.009   8.596  21.882  0.00  0.00    +0.000 A 
ATOM      9  C   UNL     1       0.346   9.692  22.441  0.00  0.00    +0.000 A 
ATOM     10  C   UNL     1      -0.174  10.703  21.626  0.00  0.00    +0.000 A 
ATOM     11  C   UNL     1      -0.008  10.594  20.238  0.00  0.00    +0.000 A 
ATOM     12  C   UNL     1       0.674   9.501  19.683  0.00  0.00    +0.000 A 
BRANCH  10  13
ATOM     13  C   UNL     1      -0.895  11.887  22.219  0.00  0.00    +0.000 C 
ATOM     14  F   UNL     1      -1.374  11.660  23.475  0.00  0.00    +0.000 F 
ATOM     15  F   UNL     1      -0.095  12.985  22.319  0.00  0.00    +0.000 F 
ATOM     16  F   UNL     1      -1.967  12.272  21.475  0.00  0.00    +0.000 F 
ENDBRANCH  10  13
ENDBRANCH   6   7
BRANCH   3  17
ATOM     17  C   UNL     1       4.018   5.683  17.524  0.00  0.00    +0.000 C 
BRANCH  17  18
ATOM     18  C   UNL     1       5.472   5.926  17.842  0.00  0.00    +0.000 A 
ATOM     19  C   UNL     1       6.059   7.166  17.531  0.00  0.00    +0.000 A 
ATOM     20  C   UNL     1       7.387   7.423  17.872  0.00  0.00    +0.000 A 
ATOM     21 CL   UNL     1       8.082   8.958  17.523  0.00  0.00    +0.000 Cl
ATOM     22  C   UNL     1       8.153   6.449  18.510  0.00  0.00    +0.000 A 
ATOM     23  C   UNL     1       7.592   5.204  18.796  0.00  0.00    +0.000 A 
ATOM     24  C   UNL     1       6.262   4.950  18.461  0.00  0.00    +0.000 A 
BRANCH  24  25
ATOM     25  O   UNL     1       5.704   3.736  18.750  0.00  0.00    +0.000 OA
ATOM     26  H   UNL     1       4.737   3.822  18.721  0.00  0.00    +0.000 HD
ENDBRANCH  24  25
ENDBRANCH  17  18
ENDBRANCH   3  17
TORSDOF 5
ENDMDL
MODEL 6
REMARK VINA RESULT:      -7.7      5.613      8.884
REMARK  Name = 
REMARK  5 active torsions:
REMARK  status: ('A' for Active; 'I' for Inactive)
REMARK    1  A    between atoms: N_3  and  C_4
REMARK    2  A    between atoms: C_4  and  C_5
REMARK    3  A    between atoms: C_11  and  O_12
REMARK    4  A    between atoms: N_15  and  C_16
REMARK    5  A    between atoms: C_19  and  C_20
REMARK                            x       y       z     vdW  Elec       q    Type
REMARK                         _______ _______ _______ _____ _____    ______ ____
ROOT
ATOM      1  O   UNL     1       1.583   8.910  17.838  0.00  0.00    +0.000 OA
ATOM      2  C   UNL     1       1.441   8.996  19.049  0.00  0.00    +0.000 A 
ATOM      3  N   UNL     1       0.946  10.124  19.741  0.00  0.00    +0.000 N 
ATOM      4  C   UNL     1       0.887   9.855  21.083  0.00  0.00    +0.000 A 
ATOM      5  C   UNL     1       1.304   8.598  21.290  0.00  0.00    +0.000 A 
ATOM      6  N   UNL     1       1.667   8.021  20.082  0.00  0.00    +0.000 N 
ENDROOT
BRANCH   6   7
ATOM      7  C   UNL     1       2.152   6.707  19.857  0.00  0.00    +0.000 A 
ATOM      8  C   UNL     1       1.679   5.624  20.607  0.00  0.00    +0.000 A 
ATOM      9  C   UNL     1       2.149   4.326  20.385  0.00  0.00    +0.000 A 
ATOM     10  C   UNL     1       3.121   4.077  19.409  0.00  0.00    +0.000 A 
ATOM     11  C   UNL     1       3.605   5.156  18.658  0.00  0.00    +0.000 A 
ATOM     12  C   UNL     1       3.117   6.454  18.871  0.00  0.00    +0.000 A 
BRANCH  10  13
ATOM     13  C   UNL     1       3.637   2.682  19.166  0.00  0.00    +0.000 C 
ATOM     14  F   UNL     1       4.705   2.352  19.946  0.00  0.00    +0.000 F 
ATOM     15  F   UNL     1       2.693   1.729  19.405  0.00  0.00    +0.000 F 
ATOM     16  F   UNL     1       4.042   2.492  17.880  0.00  0.00    +0.000 F 
ENDBRANCH  10  13
ENDBRANCH   6   7
BRANCH   3  17
ATOM     17  C   UNL     1       0.509  11.335  19.092  0.00  0.00    +0.000 C 
BRANCH  17  18
ATOM     18  C   UNL     1      -0.992  11.472  19.032  0.00  0.00    +0.000 A 
ATOM     19  C   UNL     1      -1.661  12.260  19.987  0.00  0.00    +0.000 A 
ATOM     20  C   UNL     1      -3.042  12.441  19.908  0.00  0.00    +0.000 A 
ATOM     21 CL   UNL     1      -3.844  13.441  21.057  0.00  0.00    +0.000 Cl
ATOM     22  C   UNL     1      -3.777  11.832  18.893  0.00  0.00    +0.000 A 
ATOM     23  C   UNL     1      -3.130  11.023  17.959  0.00  0.00    +0.000 A 
ATOM     24  C   UNL     1      -1.748  10.847  18.034  0.00  0.00    +0.000 A 
BRANCH  24  25
ATOM     25  O   UNL     1      -1.108  10.065  17.114  0.00  0.00    +0.000 OA
ATOM     26  H   UNL     1      -0.210  10.413  16.979  0.00  0.00    +0.000 HD
ENDBRANCH  24  25
ENDBRANCH  17  18
ENDBRANCH   3  17
TORSDOF 5
ENDMDL
MODEL 7
REMARK VINA RESULT:      -7.6      5.618      8.885
REMARK  Name = 
REMARK  5 active torsions:
REMARK  status: ('A' for Active; 'I' for Inactive)
REMARK    1  A    between atoms: N_3  and  C_4
REMARK    2  A    between atoms: C_4  and  C_5
REMARK    3  A    between atoms: C_11  and  O_12
REMARK    4  A    between atoms: N_15  and  C_16
REMARK    5  A    between atoms: C_19  and  C_20
REMARK                            x       y       z     vdW  Elec       q    Type
REMARK                         _______ _______ _______ _____ _____    ______ ____
ROOT
ATOM      1  O   UNL     1       1.617   8.964  17.896  0.00  0.00    +0.000 OA
ATOM      2  C   UNL     1       1.435   9.028  19.103  0.00  0.00    +0.000 A 
ATOM      3  N   UNL     1       0.909  10.139  19.798  0.00  0.00    +0.000 N 
ATOM      4  C   UNL     1       0.809   9.847  21.133  0.00  0.00    +0.000 A 
ATOM      5  C   UNL     1       1.229   8.589  21.332  0.00  0.00    +0.000 A 
ATOM      6  N   UNL     1       1.636   8.037  20.126  0.00  0.00    +0.000 N 
ENDROOT
BRANCH   6   7
ATOM      7  C   UNL     1       2.139   6.731  19.894  0.00  0.00    +0.000 A 
ATOM      8  C   UNL     1       3.165   6.505  18.970  0.00  0.00    +0.000 A 
ATOM      9  C   UNL     1       3.669   5.221  18.742  0.00  0.00    +0.000 A 
ATOM     10  C   UNL     1       3.147   4.119  19.428  0.00  0.00    +0.000 A 
ATOM     11  C   UNL     1       2.115   4.333  20.351  0.00  0.00    +0.000 A 
ATOM     12  C   UNL     1       1.625   5.626  20.590  0.00  0.00    +0.000 A 
BRANCH  10  13
ATOM     13  C   UNL     1       3.680   2.729  19.186  0.00  0.00    +0.000 C 
ATOM     14  F   UNL     1       4.072   2.512  17.899  0.00  0.00    +0.000 F 
ATOM     15  F   UNL     1       4.767   2.448  19.958  0.00  0.00    +0.000 F 
ATOM     16  F   UNL     1       2.764   1.762  19.465  0.00  0.00    +0.000 F 
ENDBRANCH  10  13
ENDBRANCH   6   7
BRANCH   3  17
ATOM     17  C   UNL     1       0.483  11.358  19.157  0.00  0.00    +0.000 C 
BRANCH  17  18
ATOM     18  C   UNL     1      -1.016  11.516  19.109  0.00  0.00    +0.000 A 
ATOM     19  C   UNL     1      -1.665  12.325  20.060  0.00  0.00    +0.000 A 
ATOM     20  C   UNL     1      -3.044  12.525  19.991  0.00  0.00    +0.000 A 
ATOM     21 CL   UNL     1      -3.821  13.550  21.134  0.00  0.00    +0.000 Cl
ATOM     22  C   UNL     1      -3.797  11.913  18.991  0.00  0.00    +0.000 A 
ATOM     23  C   UNL     1      -3.170  11.083  18.061  0.00  0.00    +0.000 A 
ATOM     24  C   UNL     1      -1.790  10.889  18.126  0.00  0.00    +0.000 A 
BRANCH  24  25
ATOM     25  O   UNL     1      -1.169  10.087  17.210  0.00  0.00    +0.000 OA
ATOM     26  H   UNL     1      -0.840   9.292  17.662  0.00  0.00    +0.000 HD
ENDBRANCH  24  25
ENDBRANCH  17  18
ENDBRANCH   3  17
TORSDOF 5
ENDMDL
MODEL 8
REMARK VINA RESULT:      -7.5      5.501      8.842
REMARK  Name = 
REMARK  5 active torsions:
REMARK  status: ('A' for Active; 'I' for Inactive)
REMARK    1  A    between atoms: N_3  and  C_4
REMARK    2  A    between atoms: C_4  and  C_5
REMARK    3  A    between atoms: C_11  and  O_12
REMARK    4  A    between atoms: N_15  and  C_16
REMARK    5  A    between atoms: C_19  and  C_20
REMARK                            x       y       z     vdW  Elec       q    Type
REMARK                         _______ _______ _______ _____ _____    ______ ____
ROOT
ATOM      1  O   UNL     1       1.927   9.908  17.393  0.00  0.00    +0.000 OA
ATOM      2  C   UNL     1       1.656   9.465  18.500  0.00  0.00    +0.000 A 
ATOM      3  N   UNL     1       0.890  10.127  19.486  0.00  0.00    +0.000 N 
ATOM      4  C   UNL     1       0.756   9.322  20.587  0.00  0.00    +0.000 A 
ATOM      5  C   UNL     1       1.383   8.161  20.351  0.00  0.00    +0.000 A 
ATOM      6  N   UNL     1       1.964   8.191  19.091  0.00  0.00    +0.000 N 
ENDROOT
BRANCH   6   7
ATOM      7  C   UNL     1       2.710   7.167  18.453  0.00  0.00    +0.000 A 
ATOM      8  C   UNL     1       3.819   7.471  17.656  0.00  0.00    +0.000 A 
ATOM      9  C   UNL     1       4.562   6.465  17.030  0.00  0.00    +0.000 A 
ATOM     10  C   UNL     1       4.205   5.120  17.176  0.00  0.00    +0.000 A 
ATOM     11  C   UNL     1       3.092   4.806  17.967  0.00  0.00    +0.000 A 
ATOM     12  C   UNL     1       2.361   5.817  18.608  0.00  0.00    +0.000 A 
BRANCH  10  13
ATOM     13  C   UNL     1       4.997   4.028  16.501  0.00  0.00    +0.000 C 
ATOM     14  F   UNL     1       6.321   4.035  16.825  0.00  0.00    +0.000 F 
ATOM     15  F   UNL     1       4.542   2.785  16.820  0.00  0.00    +0.000 F 
ATOM     16  F   UNL     1       4.945   4.108  15.144  0.00  0.00    +0.000 F 
ENDBRANCH  10  13
ENDBRANCH   6   7
BRANCH   3  17
ATOM     17  C   UNL     1       0.295  11.427  19.301  0.00  0.00    +0.000 C 
BRANCH  17  18
ATOM     18  C   UNL     1      -1.125  11.366  18.797  0.00  0.00    +0.000 A 
ATOM     19  C   UNL     1      -1.420  10.651  17.621  0.00  0.00    +0.000 A 
ATOM     20  C   UNL     1      -2.738  10.539  17.176  0.00  0.00    +0.000 A 
ATOM     21 CL   UNL     1      -3.091   9.627  15.760  0.00  0.00    +0.000 Cl
ATOM     22  C   UNL     1      -3.775  11.148  17.880  0.00  0.00    +0.000 A 
ATOM     23  C   UNL     1      -3.492  11.887  19.030  0.00  0.00    +0.000 A 
ATOM     24  C   UNL     1      -2.175  11.992  19.478  0.00  0.00    +0.000 A 
BRANCH  24  25
ATOM     25  O   UNL     1      -1.894  12.704  20.611  0.00  0.00    +0.000 OA
ATOM     26  H   UNL     1      -0.998  12.475  20.910  0.00  0.00    +0.000 HD
ENDBRANCH  24  25
ENDBRANCH  17  18
ENDBRANCH   3  17
TORSDOF 5
ENDMDL
MODEL 9
REMARK VINA RESULT:      -7.5      5.206      8.569
REMARK  Name = 
REMARK  5 active torsions:
REMARK  status: ('A' for Active; 'I' for Inactive)
REMARK    1  A    between atoms: N_3  and  C_4
REMARK    2  A    between atoms: C_4  and  C_5
REMARK    3  A    between atoms: C_11  and  O_12
REMARK    4  A    between atoms: N_15  and  C_16
REMARK    5  A    between atoms: C_19  and  C_20
REMARK                            x       y       z     vdW  Elec       q    Type
REMARK                         _______ _______ _______ _____ _____    ______ ____
ROOT
ATOM      1  O   UNL     1       1.720   8.972  17.863  0.00  0.00    +0.000 OA
ATOM      2  C   UNL     1       1.507   9.009  19.066  0.00  0.00    +0.000 A 
ATOM      3  N   UNL     1       0.967  10.107  19.773  0.00  0.00    +0.000 N 
ATOM      4  C   UNL     1       0.833   9.784  21.098  0.00  0.00    +0.000 A 
ATOM      5  C   UNL     1       1.243   8.521  21.279  0.00  0.00    +0.000 A 
ATOM      6  N   UNL     1       1.678   7.994  20.071  0.00  0.00    +0.000 N 
ENDROOT
BRANCH   6   7
ATOM      7  C   UNL     1       2.182   6.692  19.822  0.00  0.00    +0.000 A 
ATOM      8  C   UNL     1       1.734   5.590  20.561  0.00  0.00    +0.000 A 
ATOM      9  C   UNL     1       2.223   4.303  20.316  0.00  0.00    +0.000 A 
ATOM     10  C   UNL     1       3.187   4.084  19.326  0.00  0.00    +0.000 A 
ATOM     11  C   UNL     1       3.646   5.181  18.585  0.00  0.00    +0.000 A 
ATOM     12  C   UNL     1       3.139   6.468  18.822  0.00  0.00    +0.000 A 
BRANCH  10  13
ATOM     13  C   UNL     1       3.723   2.701  19.057  0.00  0.00    +0.000 C 
ATOM     14  F   UNL     1       4.792   2.369  19.835  0.00  0.00    +0.000 F 
ATOM     15  F   UNL     1       2.791   1.731  19.273  0.00  0.00    +0.000 F 
ATOM     16  F   UNL     1       4.136   2.542  17.770  0.00  0.00    +0.000 F 
ENDBRANCH  10  13
ENDBRANCH   6   7
BRANCH   3  17
ATOM     17  C   UNL     1       0.563  11.342  19.150  0.00  0.00    +0.000 C 
BRANCH  17  18
ATOM     18  C   UNL     1      -0.900  11.376  18.786  0.00  0.00    +0.000 A 
ATOM     19  C   UNL     1      -1.353  10.692  17.643  0.00  0.00    +0.000 A 
ATOM     20  C   UNL     1      -2.712  10.668  17.328  0.00  0.00    +0.000 A 
ATOM     21 CL   UNL     1      -3.259   9.793  15.951  0.00  0.00    +0.000 Cl
ATOM     22  C   UNL     1      -3.634  11.335  18.131  0.00  0.00    +0.000 A 
ATOM     23  C   UNL     1      -3.195  12.044  19.250  0.00  0.00    +0.000 A 
ATOM     24  C   UNL     1      -1.836  12.061  19.568  0.00  0.00    +0.000 A 
BRANCH  24  25
ATOM     25  O   UNL     1      -1.402  12.744  20.670  0.00  0.00    +0.000 OA
ATOM     26  H   UNL     1      -1.619  12.226  21.463  0.00  0.00    +0.000 HD
ENDBRANCH  24  25
ENDBRANCH  17  18
ENDBRANCH   3  17
TORSDOF 5
ENDMDL
