MODEL 1
REMARK VINA RESULT:      -8.2      0.000      0.000
REMARK  Name = 
REMARK  9 active torsions:
REMARK  status: ('A' for Active; 'I' for Inactive)
REMARK    1  A    between atoms: C_1  and  O_2
REMARK    2  A    between atoms: O_2  and  C_3
REMARK    3  A    between atoms: C_3  and  C_4
REMARK    4  A    between atoms: C_4  and  C_5
REMARK    5  A    between atoms: C_8  and  C_9
REMARK    6  A    between atoms: N_13  and  C_14
REMARK    7  A    between atoms: C_14  and  C_15
REMARK    8  A    between atoms: C_20  and  N_21
REMARK    9  A    between atoms: C_22  and  C_23
REMARK                            x       y       z     vdW  Elec       q    Type
REMARK                         _______ _______ _______ _____ _____    ______ ____
ROOT
ATOM      1  C   UNL     1       3.285   5.424  20.153  0.00  0.00    +0.000 C 
ENDROOT
BRANCH   1   2
ATOM      2  C   UNL     1       2.494   6.613  19.618  0.00  0.00    +0.000 A 
ATOM      3  C   UNL     1       2.652   7.030  18.302  0.00  0.00    +0.000 A 
ATOM      4  C   UNL     1       2.143   8.271  17.938  0.00  0.00    +0.000 A 
ATOM      5  C   UNL     1       1.526   9.080  18.903  0.00  0.00    +0.000 A 
ATOM      6  C   UNL     1       1.192  10.425  18.649  0.00  0.00    +0.000 A 
ATOM      7  C   UNL     1       0.692  11.239  19.669  0.00  0.00    +0.000 A 
ATOM      8  C   UNL     1       0.393  10.655  20.900  0.00  0.00    +0.000 A 
ATOM      9  C   UNL     1       0.688   9.309  21.136  0.00  0.00    +0.000 A 
ATOM     10  C   UNL     1       1.316   8.529  20.179  0.00  0.00    +0.000 A 
ATOM     11  N   UNL     1       1.766   7.316  20.525  0.00  0.00    +0.000 NA
BRANCH   7  12
ATOM     12  N   UNL     1       0.541  12.639  19.563  0.00  0.00    +0.000 N 
ATOM     13  C   UNL     1      -0.606  13.329  19.208  0.00  0.00    +0.000 C 
ATOM     14  C   UNL     1      -0.368  14.807  19.016  0.00  0.00    +0.000 C 
ATOM     15  O   UNL     1      -1.728  12.860  19.060  0.00  0.00    +0.000 OA
ATOM     16  H   UNL     1       1.387  13.185  19.669  0.00  0.00    +0.000 HD
ENDBRANCH   7  12
ENDBRANCH   1   2
BRANCH   1  21
ATOM     17  C   UNL     1       3.496   3.519  18.517  0.00  0.00    +0.000 C 
ATOM     18  C   UNL     1       2.580   3.731  17.319  0.00  0.00    +0.000 C 
ATOM     19  C   UNL     1       1.203   3.583  17.917  0.00  0.00    +0.000 C 
ATOM     20  C   UNL     1       1.345   4.197  19.300  0.00  0.00    +0.000 C 
ATOM     21  N   UNL     1       2.771   4.106  19.686  0.00  0.00    +0.000 NA
BRANCH  17  25
ATOM     22  C   UNL     1       6.524   5.125  17.619  0.00  0.00    +0.000 A 
ATOM     23  N   UNL     1       6.993   4.429  18.663  0.00  0.00    +0.000 NA
ATOM     24  O   UNL     1       5.874   3.689  19.073  0.00  0.00    +0.000 OA
ATOM     25  C   UNL     1       4.862   4.030  18.224  0.00  0.00    +0.000 A 
ATOM     26  N   UNL     1       5.237   4.853  17.275  0.00  0.00    +0.000 NA
BRANCH  22  27
ATOM     27  C   UNL     1       7.227   6.265  17.004  0.00  0.00    +0.000 C 
BRANCH  27  28
ATOM     28  C   UNL     1       7.783   7.273  17.987  0.00  0.00    +0.000 C 
BRANCH  28  30
ATOM     29  C   UNL     1       8.405   9.549  18.114  0.00  0.00    +0.000 C 
ATOM     30  O   UNL     1       7.923   8.513  17.282  0.00  0.00    +0.000 OA
ENDBRANCH  28  30
ENDBRANCH  27  28
ENDBRANCH  22  27
ENDBRANCH  17  25
ENDBRANCH   1  21
TORSDOF 7
ENDMDL
MODEL 2
REMARK VINA RESULT:      -8.1      1.807      2.264
REMARK  Name = 
REMARK  9 active torsions:
REMARK  status: ('A' for Active; 'I' for Inactive)
REMARK    1  A    between atoms: C_1  and  O_2
REMARK    2  A    between atoms: O_2  and  C_3
REMARK    3  A    between atoms: C_3  and  C_4
REMARK    4  A    between atoms: C_4  and  C_5
REMARK    5  A    between atoms: C_8  and  C_9
REMARK    6  A    between atoms: N_13  and  C_14
REMARK    7  A    between atoms: C_14  and  C_15
REMARK    8  A    between atoms: C_20  and  N_21
REMARK    9  A    between atoms: C_22  and  C_23
REMARK                            x       y       z     vdW  Elec       q    Type
REMARK                         _______ _______ _______ _____ _____    ______ ____
ROOT
ATOM      1  C   UNL     1       3.423   5.497  20.101  0.00  0.00    +0.000 C 
ENDROOT
BRANCH   1   2
ATOM      2  C   UNL     1       2.601   6.629  19.493  0.00  0.00    +0.000 A 
ATOM      3  C   UNL     1       2.742   6.959  18.151  0.00  0.00    +0.000 A 
ATOM      4  C   UNL     1       2.202   8.161  17.708  0.00  0.00    +0.000 A 
ATOM      5  C   UNL     1       1.572   9.019  18.620  0.00  0.00    +0.000 A 
ATOM      6  C   UNL     1       1.205  10.336  18.278  0.00  0.00    +0.000 A 
ATOM      7  C   UNL     1       0.693  11.206  19.244  0.00  0.00    +0.000 A 
ATOM      8  C   UNL     1       0.414  10.699  20.515  0.00  0.00    +0.000 A 
ATOM      9  C   UNL     1       0.742   9.379  20.838  0.00  0.00    +0.000 A 
ATOM     10  C   UNL     1       1.382   8.551  19.932  0.00  0.00    +0.000 A 
ATOM     11  N   UNL     1       1.863   7.375  20.355  0.00  0.00    +0.000 NA
BRANCH   7  12
ATOM     12  N   UNL     1       0.508  12.592  19.046  0.00  0.00    +0.000 N 
ATOM     13  C   UNL     1       1.458  13.588  19.194  0.00  0.00    +0.000 C 
ATOM     14  C   UNL     1       0.877  14.977  19.082  0.00  0.00    +0.000 C 
ATOM     15  O   UNL     1       2.659  13.435  19.386  0.00  0.00    +0.000 OA
ATOM     16  H   UNL     1      -0.442  12.891  18.866  0.00  0.00    +0.000 HD
ENDBRANCH   7  12
ENDBRANCH   1   2
BRANCH   1  21
ATOM     17  C   UNL     1       3.348   3.348  18.788  0.00  0.00    +0.000 C 
ATOM     18  C   UNL     1       2.288   3.416  17.698  0.00  0.00    +0.000 C 
ATOM     19  C   UNL     1       0.999   3.441  18.482  0.00  0.00    +0.000 C 
ATOM     20  C   UNL     1       1.345   4.258  19.715  0.00  0.00    +0.000 C 
ATOM     21  N   UNL     1       2.807   4.152  19.927  0.00  0.00    +0.000 NA
BRANCH  17  25
ATOM     22  C   UNL     1       6.268   4.506  17.149  0.00  0.00    +0.000 A 
ATOM     23  N   UNL     1       6.792   4.370  18.374  0.00  0.00    +0.000 NA
ATOM     24  O   UNL     1       5.723   3.846  19.115  0.00  0.00    +0.000 OA
ATOM     25  C   UNL     1       4.679   3.729  18.244  0.00  0.00    +0.000 A 
ATOM     26  N   UNL     1       4.992   4.056  17.013  0.00  0.00    +0.000 NA
BRANCH  22  27
ATOM     27  C   UNL     1       6.897   5.279  16.063  0.00  0.00    +0.000 C 
BRANCH  27  28
ATOM     28  C   UNL     1       6.210   5.160  14.719  0.00  0.00    +0.000 C 
BRANCH  28  30
ATOM     29  C   UNL     1       6.013   3.607  12.950  0.00  0.00    +0.000 C 
ATOM     30  O   UNL     1       6.792   4.035  14.049  0.00  0.00    +0.000 OA
ENDBRANCH  28  30
ENDBRANCH  27  28
ENDBRANCH  22  27
ENDBRANCH  17  25
ENDBRANCH   1  21
TORSDOF 7
ENDMDL
MODEL 3
REMARK VINA RESULT:      -8.0      2.724      4.427
REMARK  Name = 
REMARK  9 active torsions:
REMARK  status: ('A' for Active; 'I' for Inactive)
REMARK    1  A    between atoms: C_1  and  O_2
REMARK    2  A    between atoms: O_2  and  C_3
REMARK    3  A    between atoms: C_3  and  C_4
REMARK    4  A    between atoms: C_4  and  C_5
REMARK    5  A    between atoms: C_8  and  C_9
REMARK    6  A    between atoms: N_13  and  C_14
REMARK    7  A    between atoms: C_14  and  C_15
REMARK    8  A    between atoms: C_20  and  N_21
REMARK    9  A    between atoms: C_22  and  C_23
REMARK                            x       y       z     vdW  Elec       q    Type
REMARK                         _______ _______ _______ _____ _____    ______ ____
ROOT
ATOM      1  C   UNL     1       4.259   6.124  18.183  0.00  0.00    +0.000 C 
ENDROOT
BRANCH   1   2
ATOM      2  C   UNL     1       3.100   7.087  18.418  0.00  0.00    +0.000 A 
ATOM      3  C   UNL     1       2.771   8.040  17.462  0.00  0.00    +0.000 A 
ATOM      4  C   UNL     1       1.912   9.070  17.826  0.00  0.00    +0.000 A 
ATOM      5  C   UNL     1       1.435   9.146  19.143  0.00  0.00    +0.000 A 
ATOM      6  C   UNL     1       0.748  10.277  19.626  0.00  0.00    +0.000 A 
ATOM      7  C   UNL     1       0.395  10.373  20.974  0.00  0.00    +0.000 A 
ATOM      8  C   UNL     1       0.605   9.266  21.798  0.00  0.00    +0.000 A 
ATOM      9  C   UNL     1       1.252   8.129  21.304  0.00  0.00    +0.000 A 
ATOM     10  C   UNL     1       1.734   8.078  20.007  0.00  0.00    +0.000 A 
ATOM     11  N   UNL     1       2.527   7.060  19.650  0.00  0.00    +0.000 NA
BRANCH   7  12
ATOM     12  N   UNL     1      -0.092  11.550  21.584  0.00  0.00    +0.000 N 
ATOM     13  C   UNL     1      -0.893  11.635  22.710  0.00  0.00    +0.000 C 
ATOM     14  C   UNL     1      -1.380  13.038  22.982  0.00  0.00    +0.000 C 
ATOM     15  O   UNL     1      -1.207  10.716  23.458  0.00  0.00    +0.000 OA
ATOM     16  H   UNL     1       0.091  12.414  21.089  0.00  0.00    +0.000 HD
ENDBRANCH   7  12
ENDBRANCH   1   2
BRANCH   1  21
ATOM     17  C   UNL     1       4.385   4.510  16.252  0.00  0.00    +0.000 C 
ATOM     18  C   UNL     1       5.786   3.928  16.124  0.00  0.00    +0.000 C 
ATOM     19  C   UNL     1       6.608   5.117  15.695  0.00  0.00    +0.000 C 
ATOM     20  C   UNL     1       5.977   6.279  16.444  0.00  0.00    +0.000 C 
ATOM     21  N   UNL     1       4.575   5.910  16.744  0.00  0.00    +0.000 NA
BRANCH  17  25
ATOM     22  C   UNL     1       2.658   2.409  18.523  0.00  0.00    +0.000 A 
ATOM     23  N   UNL     1       1.594   2.834  17.828  0.00  0.00    +0.000 NA
ATOM     24  O   UNL     1       2.171   3.643  16.839  0.00  0.00    +0.000 OA
ATOM     25  C   UNL     1       3.518   3.608  17.056  0.00  0.00    +0.000 A 
ATOM     26  N   UNL     1       3.863   2.806  18.035  0.00  0.00    +0.000 NA
BRANCH  22  27
ATOM     27  C   UNL     1       2.575   1.753  19.841  0.00  0.00    +0.000 C 
BRANCH  27  28
ATOM     28  C   UNL     1       3.490   2.334  20.897  0.00  0.00    +0.000 C 
BRANCH  28  30
ATOM     29  C   UNL     1       1.319   2.801  21.705  0.00  0.00    +0.000 C 
ATOM     30  O   UNL     1       2.678   2.616  22.045  0.00  0.00    +0.000 OA
ENDBRANCH  28  30
ENDBRANCH  27  28
ENDBRANCH  22  27
ENDBRANCH  17  25
ENDBRANCH   1  21
TORSDOF 7
ENDMDL
MODEL 4
REMARK VINA RESULT:      -8.0      1.720      2.351
REMARK  Name = 
REMARK  9 active torsions:
REMARK  status: ('A' for Active; 'I' for Inactive)
REMARK    1  A    between atoms: C_1  and  O_2
REMARK    2  A    between atoms: O_2  and  C_3
REMARK    3  A    between atoms: C_3  and  C_4
REMARK    4  A    between atoms: C_4  and  C_5
REMARK    5  A    between atoms: C_8  and  C_9
REMARK    6  A    between atoms: N_13  and  C_14
REMARK    7  A    between atoms: C_14  and  C_15
REMARK    8  A    between atoms: C_20  and  N_21
REMARK    9  A    between atoms: C_22  and  C_23
REMARK                            x       y       z     vdW  Elec       q    Type
REMARK                         _______ _______ _______ _____ _____    ______ ____
ROOT
ATOM      1  C   UNL     1       2.548   5.398  18.260  0.00  0.00    +0.000 C 
ENDROOT
BRANCH   1   2
ATOM      2  C   UNL     1       2.277   6.655  19.081  0.00  0.00    +0.000 A 
ATOM      3  C   UNL     1       1.942   6.559  20.425  0.00  0.00    +0.000 A 
ATOM      4  C   UNL     1       1.428   7.685  21.059  0.00  0.00    +0.000 A 
ATOM      5  C   UNL     1       1.225   8.863  20.326  0.00  0.00    +0.000 A 
ATOM      6  C   UNL     1       0.508   9.956  20.851  0.00  0.00    +0.000 A 
ATOM      7  C   UNL     1       0.216  11.065  20.054  0.00  0.00    +0.000 A 
ATOM      8  C   UNL     1       0.774  11.131  18.776  0.00  0.00    +0.000 A 
ATOM      9  C   UNL     1       1.519  10.061  18.273  0.00  0.00    +0.000 A 
ATOM     10  C   UNL     1       1.694   8.897  19.001  0.00  0.00    +0.000 A 
ATOM     11  N   UNL     1       2.230   7.828  18.397  0.00  0.00    +0.000 NA
BRANCH   7  12
ATOM     12  N   UNL     1      -0.676  12.096  20.424  0.00  0.00    +0.000 N 
ATOM     13  C   UNL     1      -1.946  12.320  19.921  0.00  0.00    +0.000 C 
ATOM     14  C   UNL     1      -2.551  13.615  20.405  0.00  0.00    +0.000 C 
ATOM     15  O   UNL     1      -2.577  11.587  19.169  0.00  0.00    +0.000 OA
ATOM     16  H   UNL     1      -0.307  12.794  21.057  0.00  0.00    +0.000 HD
ENDBRANCH   7  12
ENDBRANCH   1   2
BRANCH   1  21
ATOM     17  C   UNL     1       3.592   3.198  18.909  0.00  0.00    +0.000 C 
ATOM     18  C   UNL     1       3.107   2.079  17.999  0.00  0.00    +0.000 C 
ATOM     19  C   UNL     1       1.651   1.947  18.373  0.00  0.00    +0.000 C 
ATOM     20  C   UNL     1       1.224   3.377  18.662  0.00  0.00    +0.000 C 
ATOM     21  N   UNL     1       2.436   4.137  19.045  0.00  0.00    +0.000 NA
BRANCH  17  25
ATOM     22  C   UNL     1       6.389   4.712  17.348  0.00  0.00    +0.000 A 
ATOM     23  N   UNL     1       6.855   4.728  18.604  0.00  0.00    +0.000 NA
ATOM     24  O   UNL     1       5.838   4.084  19.322  0.00  0.00    +0.000 OA
ATOM     25  C   UNL     1       4.878   3.755  18.410  0.00  0.00    +0.000 A 
ATOM     26  N   UNL     1       5.209   4.059  17.178  0.00  0.00    +0.000 NA
BRANCH  22  27
ATOM     27  C   UNL     1       6.956   5.513  16.247  0.00  0.00    +0.000 C 
BRANCH  27  28
ATOM     28  C   UNL     1       7.004   4.807  14.909  0.00  0.00    +0.000 C 
BRANCH  28  30
ATOM     29  C   UNL     1       7.807   5.203  12.723  0.00  0.00    +0.000 C 
ATOM     30  O   UNL     1       7.943   5.519  14.094  0.00  0.00    +0.000 OA
ENDBRANCH  28  30
ENDBRANCH  27  28
ENDBRANCH  22  27
ENDBRANCH  17  25
ENDBRANCH   1  21
TORSDOF 7
ENDMDL
MODEL 5
REMARK VINA RESULT:      -7.9      1.612      2.159
REMARK  Name = 
REMARK  9 active torsions:
REMARK  status: ('A' for Active; 'I' for Inactive)
REMARK    1  A    between atoms: C_1  and  O_2
REMARK    2  A    between atoms: O_2  and  C_3
REMARK    3  A    between atoms: C_3  and  C_4
REMARK    4  A    between atoms: C_4  and  C_5
REMARK    5  A    between atoms: C_8  and  C_9
REMARK    6  A    between atoms: N_13  and  C_14
REMARK    7  A    between atoms: C_14  and  C_15
REMARK    8  A    between atoms: C_20  and  N_21
REMARK    9  A    between atoms: C_22  and  C_23
REMARK                            x       y       z     vdW  Elec       q    Type
REMARK                         _______ _______ _______ _____ _____    ______ ____
ROOT
ATOM      1  C   UNL     1       3.573   5.514  19.876  0.00  0.00    +0.000 C 
ENDROOT
BRANCH   1   2
ATOM      2  C   UNL     1       2.696   6.671  19.408  0.00  0.00    +0.000 A 
ATOM      3  C   UNL     1       2.741   7.100  18.087  0.00  0.00    +0.000 A 
ATOM      4  C   UNL     1       2.156   8.320  17.770  0.00  0.00    +0.000 A 
ATOM      5  C   UNL     1       1.576   9.098  18.782  0.00  0.00    +0.000 A 
ATOM      6  C   UNL     1       1.168  10.429  18.563  0.00  0.00    +0.000 A 
ATOM      7  C   UNL     1       0.709  11.216  19.621  0.00  0.00    +0.000 A 
ATOM      8  C   UNL     1       0.523  10.614  20.866  0.00  0.00    +0.000 A 
ATOM      9  C   UNL     1       0.891   9.280  21.070  0.00  0.00    +0.000 A 
ATOM     10  C   UNL     1       1.481   8.532  20.066  0.00  0.00    +0.000 A 
ATOM     11  N   UNL     1       2.006   7.338  20.369  0.00  0.00    +0.000 NA
BRANCH   7  12
ATOM     12  N   UNL     1       0.492  12.609  19.537  0.00  0.00    +0.000 N 
ATOM     13  C   UNL     1      -0.713  13.253  19.311  0.00  0.00    +0.000 C 
ATOM     14  C   UNL     1      -0.556  14.738  19.099  0.00  0.00    +0.000 C 
ATOM     15  O   UNL     1      -1.825  12.738  19.284  0.00  0.00    +0.000 OA
ATOM     16  H   UNL     1       1.322  13.188  19.553  0.00  0.00    +0.000 HD
ENDBRANCH   7  12
ENDBRANCH   1   2
BRANCH   1  21
ATOM     17  C   UNL     1       3.430   3.340  18.611  0.00  0.00    +0.000 C 
ATOM     18  C   UNL     1       2.355   3.409  17.534  0.00  0.00    +0.000 C 
ATOM     19  C   UNL     1       1.079   3.481  18.336  0.00  0.00    +0.000 C 
ATOM     20  C   UNL     1       1.462   4.316  19.546  0.00  0.00    +0.000 C 
ATOM     21  N   UNL     1       2.924   4.181  19.739  0.00  0.00    +0.000 NA
BRANCH  17  25
ATOM     22  C   UNL     1       6.350   4.349  16.877  0.00  0.00    +0.000 A 
ATOM     23  N   UNL     1       6.860   4.372  18.116  0.00  0.00    +0.000 NA
ATOM     24  O   UNL     1       5.791   3.921  18.902  0.00  0.00    +0.000 OA
ATOM     25  C   UNL     1       4.761   3.679  18.040  0.00  0.00    +0.000 A 
ATOM     26  N   UNL     1       5.085   3.861  16.782  0.00  0.00    +0.000 NA
BRANCH  22  27
ATOM     27  C   UNL     1       6.981   4.997  15.713  0.00  0.00    +0.000 C 
BRANCH  27  28
ATOM     28  C   UNL     1       6.157   4.959  14.443  0.00  0.00    +0.000 C 
BRANCH  28  30
ATOM     29  C   UNL     1       6.556   3.715  12.475  0.00  0.00    +0.000 C 
ATOM     30  O   UNL     1       6.332   3.658  13.869  0.00  0.00    +0.000 OA
ENDBRANCH  28  30
ENDBRANCH  27  28
ENDBRANCH  22  27
ENDBRANCH  17  25
ENDBRANCH   1  21
TORSDOF 7
ENDMDL
MODEL 6
REMARK VINA RESULT:      -7.9      2.489      4.169
REMARK  Name = 
REMARK  9 active torsions:
REMARK  status: ('A' for Active; 'I' for Inactive)
REMARK    1  A    between atoms: C_1  and  O_2
REMARK    2  A    between atoms: O_2  and  C_3
REMARK    3  A    between atoms: C_3  and  C_4
REMARK    4  A    between atoms: C_4  and  C_5
REMARK    5  A    between atoms: C_8  and  C_9
REMARK    6  A    between atoms: N_13  and  C_14
REMARK    7  A    between atoms: C_14  and  C_15
REMARK    8  A    between atoms: C_20  and  N_21
REMARK    9  A    between atoms: C_22  and  C_23
REMARK                            x       y       z     vdW  Elec       q    Type
REMARK                         _______ _______ _______ _____ _____    ______ ____
ROOT
ATOM      1  C   UNL     1       3.960   6.300  18.519  0.00  0.00    +0.000 C 
ENDROOT
BRANCH   1   2
ATOM      2  C   UNL     1       2.795   7.273  18.665  0.00  0.00    +0.000 A 
ATOM      3  C   UNL     1       2.477   8.152  17.637  0.00  0.00    +0.000 A 
ATOM      4  C   UNL     1       1.610   9.203  17.912  0.00  0.00    +0.000 A 
ATOM      5  C   UNL     1       1.114   9.373  19.213  0.00  0.00    +0.000 A 
ATOM      6  C   UNL     1       0.416  10.534  19.601  0.00  0.00    +0.000 A 
ATOM      7  C   UNL     1       0.044  10.728  20.934  0.00  0.00    +0.000 A 
ATOM      8  C   UNL     1       0.245   9.685  21.839  0.00  0.00    +0.000 A 
ATOM      9  C   UNL     1       0.902   8.518  21.440  0.00  0.00    +0.000 A 
ATOM     10  C   UNL     1       1.404   8.373  20.158  0.00  0.00    +0.000 A 
ATOM     11  N   UNL     1       2.205   7.335  19.887  0.00  0.00    +0.000 NA
BRANCH   7  12
ATOM     12  N   UNL     1      -0.456  11.945  21.448  0.00  0.00    +0.000 N 
ATOM     13  C   UNL     1       0.269  13.092  21.725  0.00  0.00    +0.000 C 
ATOM     14  C   UNL     1      -0.546  14.145  22.437  0.00  0.00    +0.000 C 
ATOM     15  O   UNL     1       1.442  13.305  21.443  0.00  0.00    +0.000 OA
ATOM     16  H   UNL     1      -1.428  11.941  21.728  0.00  0.00    +0.000 HD
ENDBRANCH   7  12
ENDBRANCH   1   2
BRANCH   1  21
ATOM     17  C   UNL     1       4.433   4.767  16.576  0.00  0.00    +0.000 C 
ATOM     18  C   UNL     1       5.884   4.306  16.591  0.00  0.00    +0.000 C 
ATOM     19  C   UNL     1       6.643   5.572  16.284  0.00  0.00    +0.000 C 
ATOM     20  C   UNL     1       5.838   6.653  16.986  0.00  0.00    +0.000 C 
ATOM     21  N   UNL     1       4.448   6.161  17.118  0.00  0.00    +0.000 NA
BRANCH  17  25
ATOM     22  C   UNL     1       2.647   2.465  18.592  0.00  0.00    +0.000 A 
ATOM     23  N   UNL     1       1.641   2.807  17.777  0.00  0.00    +0.000 NA
ATOM     24  O   UNL     1       2.255   3.688  16.875  0.00  0.00    +0.000 OA
ATOM     25  C   UNL     1       3.563   3.771  17.257  0.00  0.00    +0.000 A 
ATOM     26  N   UNL     1       3.860   2.982  18.261  0.00  0.00    +0.000 NA
BRANCH  22  27
ATOM     27  C   UNL     1       2.467   1.774  19.882  0.00  0.00    +0.000 C 
BRANCH  27  28
ATOM     28  C   UNL     1       3.385   2.246  20.988  0.00  0.00    +0.000 C 
BRANCH  28  30
ATOM     29  C   UNL     1       2.158   4.185  21.551  0.00  0.00    +0.000 C 
ATOM     30  O   UNL     1       2.563   2.897  21.966  0.00  0.00    +0.000 OA
ENDBRANCH  28  30
ENDBRANCH  27  28
ENDBRANCH  22  27
ENDBRANCH  17  25
ENDBRANCH   1  21
TORSDOF 7
ENDMDL
MODEL 7
REMARK VINA RESULT:      -7.9      1.734      2.049
REMARK  Name = 
REMARK  9 active torsions:
REMARK  status: ('A' for Active; 'I' for Inactive)
REMARK    1  A    between atoms: C_1  and  O_2
REMARK    2  A    between atoms: O_2  and  C_3
REMARK    3  A    between atoms: C_3  and  C_4
REMARK    4  A    between atoms: C_4  and  C_5
REMARK    5  A    between atoms: C_8  and  C_9
REMARK    6  A    between atoms: N_13  and  C_14
REMARK    7  A    between atoms: C_14  and  C_15
REMARK    8  A    between atoms: C_20  and  N_21
REMARK    9  A    between atoms: C_22  and  C_23
REMARK                            x       y       z     vdW  Elec       q    Type
REMARK                         _______ _______ _______ _____ _____    ______ ____
ROOT
ATOM      1  C   UNL     1       3.401   6.947  18.418  0.00  0.00    +0.000 C 
ENDROOT
BRANCH   1   2
ATOM      2  C   UNL     1       2.202   7.823  18.766  0.00  0.00    +0.000 A 
ATOM      3  C   UNL     1       1.656   8.678  17.817  0.00  0.00    +0.000 A 
ATOM      4  C   UNL     1       0.765   9.656  18.245  0.00  0.00    +0.000 A 
ATOM      5  C   UNL     1       0.474   9.782  19.611  0.00  0.00    +0.000 A 
ATOM      6  C   UNL     1      -0.239  10.883  20.125  0.00  0.00    +0.000 A 
ATOM      7  C   UNL     1      -0.405  11.042  21.503  0.00  0.00    +0.000 A 
ATOM      8  C   UNL     1       0.020  10.016  22.348  0.00  0.00    +0.000 A 
ATOM      9  C   UNL     1       0.693   8.905  21.829  0.00  0.00    +0.000 A 
ATOM     10  C   UNL     1       0.990   8.805  20.481  0.00  0.00    +0.000 A 
ATOM     11  N   UNL     1       1.815   7.834  20.068  0.00  0.00    +0.000 NA
BRANCH   7  12
ATOM     12  N   UNL     1      -0.907  12.214  22.111  0.00  0.00    +0.000 N 
ATOM     13  C   UNL     1      -0.229  13.404  22.314  0.00  0.00    +0.000 C 
ATOM     14  C   UNL     1      -1.005  14.388  23.156  0.00  0.00    +0.000 C 
ATOM     15  O   UNL     1       0.877  13.701  21.878  0.00  0.00    +0.000 OA
ATOM     16  H   UNL     1      -1.829  12.139  22.522  0.00  0.00    +0.000 HD
ENDBRANCH   7  12
ENDBRANCH   1   2
BRANCH   1  21
ATOM     17  C   UNL     1       4.421   4.648  18.583  0.00  0.00    +0.000 C 
ATOM     18  C   UNL     1       4.124   3.833  17.331  0.00  0.00    +0.000 C 
ATOM     19  C   UNL     1       2.635   3.608  17.421  0.00  0.00    +0.000 C 
ATOM     20  C   UNL     1       2.113   4.900  18.028  0.00  0.00    +0.000 C 
ATOM     21  N   UNL     1       3.221   5.516  18.792  0.00  0.00    +0.000 NA
BRANCH  17  25
ATOM     22  C   UNL     1       7.333   6.598  18.061  0.00  0.00    +0.000 A 
ATOM     23  N   UNL     1       7.728   5.983  19.184  0.00  0.00    +0.000 NA
ATOM     24  O   UNL     1       6.659   5.119  19.459  0.00  0.00    +0.000 OA
ATOM     25  C   UNL     1       5.745   5.317  18.466  0.00  0.00    +0.000 A 
ATOM     26  N   UNL     1       6.150   6.164  17.550  0.00  0.00    +0.000 NA
BRANCH  22  27
ATOM     27  C   UNL     1       7.977   7.805  17.511  0.00  0.00    +0.000 C 
BRANCH  27  28
ATOM     28  C   UNL     1       8.538   8.753  18.549  0.00  0.00    +0.000 C 
BRANCH  28  30
ATOM     29  C   UNL     1       9.318  10.980  18.661  0.00  0.00    +0.000 C 
ATOM     30  O   UNL     1       8.466  10.072  17.993  0.00  0.00    +0.000 OA
ENDBRANCH  28  30
ENDBRANCH  27  28
ENDBRANCH  22  27
ENDBRANCH  17  25
ENDBRANCH   1  21
TORSDOF 7
ENDMDL
MODEL 8
REMARK VINA RESULT:      -7.8      1.810      2.491
REMARK  Name = 
REMARK  9 active torsions:
REMARK  status: ('A' for Active; 'I' for Inactive)
REMARK    1  A    between atoms: C_1  and  O_2
REMARK    2  A    between atoms: O_2  and  C_3
REMARK    3  A    between atoms: C_3  and  C_4
REMARK    4  A    between atoms: C_4  and  C_5
REMARK    5  A    between atoms: C_8  and  C_9
REMARK    6  A    between atoms: N_13  and  C_14
REMARK    7  A    between atoms: C_14  and  C_15
REMARK    8  A    between atoms: C_20  and  N_21
REMARK    9  A    between atoms: C_22  and  C_23
REMARK                            x       y       z     vdW  Elec       q    Type
REMARK                         _______ _______ _______ _____ _____    ______ ____
ROOT
ATOM      1  C   UNL     1       2.462   5.270  18.250  0.00  0.00    +0.000 C 
ENDROOT
BRANCH   1   2
ATOM      2  C   UNL     1       2.242   6.548  19.053  0.00  0.00    +0.000 A 
ATOM      3  C   UNL     1       1.898   6.486  20.397  0.00  0.00    +0.000 A 
ATOM      4  C   UNL     1       1.430   7.641  21.013  0.00  0.00    +0.000 A 
ATOM      5  C   UNL     1       1.281   8.817  20.264  0.00  0.00    +0.000 A 
ATOM      6  C   UNL     1       0.610   9.947  20.771  0.00  0.00    +0.000 A 
ATOM      7  C   UNL     1       0.370  11.057  19.957  0.00  0.00    +0.000 A 
ATOM      8  C   UNL     1       0.937  11.082  18.682  0.00  0.00    +0.000 A 
ATOM      9  C   UNL     1       1.636   9.973  18.196  0.00  0.00    +0.000 A 
ATOM     10  C   UNL     1       1.757   8.813  18.941  0.00  0.00    +0.000 A 
ATOM     11  N   UNL     1       2.249   7.713  18.354  0.00  0.00    +0.000 NA
BRANCH   7  12
ATOM     12  N   UNL     1      -0.478  12.131  20.310  0.00  0.00    +0.000 N 
ATOM     13  C   UNL     1      -0.205  13.146  21.210  0.00  0.00    +0.000 C 
ATOM     14  C   UNL     1      -1.401  14.025  21.486  0.00  0.00    +0.000 C 
ATOM     15  O   UNL     1       0.869  13.375  21.755  0.00  0.00    +0.000 OA
ATOM     16  H   UNL     1      -1.415  12.097  19.931  0.00  0.00    +0.000 HD
ENDBRANCH   7  12
ENDBRANCH   1   2
BRANCH   1  21
ATOM     17  C   UNL     1       3.638   3.204  19.085  0.00  0.00    +0.000 C 
ATOM     18  C   UNL     1       3.350   2.014  18.179  0.00  0.00    +0.000 C 
ATOM     19  C   UNL     1       1.884   1.754  18.419  0.00  0.00    +0.000 C 
ATOM     20  C   UNL     1       1.299   3.144  18.608  0.00  0.00    +0.000 C 
ATOM     21  N   UNL     1       2.391   4.030  19.072  0.00  0.00    +0.000 NA
BRANCH  17  25
ATOM     22  C   UNL     1       6.425   4.919  17.728  0.00  0.00    +0.000 A 
ATOM     23  N   UNL     1       6.746   5.053  19.022  0.00  0.00    +0.000 NA
ATOM     24  O   UNL     1       5.725   4.344  19.671  0.00  0.00    +0.000 OA
ATOM     25  C   UNL     1       4.909   3.866  18.687  0.00  0.00    +0.000 A 
ATOM     26  N   UNL     1       5.342   4.137  17.479  0.00  0.00    +0.000 NA
BRANCH  22  27
ATOM     27  C   UNL     1       7.026   5.716  16.642  0.00  0.00    +0.000 C 
BRANCH  27  28
ATOM     28  C   UNL     1       7.435   4.918  15.423  0.00  0.00    +0.000 C 
BRANCH  28  30
ATOM     29  C   UNL     1       5.941   4.054  13.808  0.00  0.00    +0.000 C 
ATOM     30  O   UNL     1       6.489   5.221  14.389  0.00  0.00    +0.000 OA
ENDBRANCH  28  30
ENDBRANCH  27  28
ENDBRANCH  22  27
ENDBRANCH  17  25
ENDBRANCH   1  21
TORSDOF 7
ENDMDL
MODEL 9
REMARK VINA RESULT:      -7.8      1.373      1.820
REMARK  Name = 
REMARK  9 active torsions:
REMARK  status: ('A' for Active; 'I' for Inactive)
REMARK    1  A    between atoms: C_1  and  O_2
REMARK    2  A    between atoms: O_2  and  C_3
REMARK    3  A    between atoms: C_3  and  C_4
REMARK    4  A    between atoms: C_4  and  C_5
REMARK    5  A    between atoms: C_8  and  C_9
REMARK    6  A    between atoms: N_13  and  C_14
REMARK    7  A    between atoms: C_14  and  C_15
REMARK    8  A    between atoms: C_20  and  N_21
REMARK    9  A    between atoms: C_22  and  C_23
REMARK                            x       y       z     vdW  Elec       q    Type
REMARK                         _______ _______ _______ _____ _____    ______ ____
ROOT
ATOM      1  C   UNL     1       2.884   5.977  18.265  0.00  0.00    +0.000 C 
ENDROOT
BRANCH   1   2
ATOM      2  C   UNL     1       2.361   7.110  19.142  0.00  0.00    +0.000 A 
ATOM      3  C   UNL     1       1.938   6.858  20.441  0.00  0.00    +0.000 A 
ATOM      4  C   UNL     1       1.209   7.842  21.101  0.00  0.00    +0.000 A 
ATOM      5  C   UNL     1       0.888   9.033  20.435  0.00  0.00    +0.000 A 
ATOM      6  C   UNL     1      -0.027   9.964  20.967  0.00  0.00    +0.000 A 
ATOM      7  C   UNL     1      -0.419  11.080  20.223  0.00  0.00    +0.000 A 
ATOM      8  C   UNL     1       0.223  11.330  19.010  0.00  0.00    +0.000 A 
ATOM      9  C   UNL     1       1.160  10.424  18.504  0.00  0.00    +0.000 A 
ATOM     10  C   UNL     1       1.451   9.243  19.164  0.00  0.00    +0.000 A 
ATOM     11  N   UNL     1       2.190   8.316  18.540  0.00  0.00    +0.000 NA
BRANCH   7  12
ATOM     12  N   UNL     1      -1.484  11.936  20.581  0.00  0.00    +0.000 N 
ATOM     13  C   UNL     1      -2.632  12.188  19.850  0.00  0.00    +0.000 C 
ATOM     14  C   UNL     1      -3.474  13.294  20.438  0.00  0.00    +0.000 C 
ATOM     15  O   UNL     1      -2.995  11.610  18.832  0.00  0.00    +0.000 OA
ATOM     16  H   UNL     1      -1.344  12.491  21.416  0.00  0.00    +0.000 HD
ENDBRANCH   7  12
ENDBRANCH   1   2
BRANCH   1  21
ATOM     17  C   UNL     1       3.819   3.731  18.920  0.00  0.00    +0.000 C 
ATOM     18  C   UNL     1       3.681   2.734  17.778  0.00  0.00    +0.000 C 
ATOM     19  C   UNL     1       2.190   2.526  17.689  0.00  0.00    +0.000 C 
ATOM     20  C   UNL     1       1.617   3.896  18.011  0.00  0.00    +0.000 C 
ATOM     21  N   UNL     1       2.621   4.622  18.823  0.00  0.00    +0.000 NA
BRANCH  17  25
ATOM     22  C   UNL     1       6.859   5.487  18.446  0.00  0.00    +0.000 A 
ATOM     23  N   UNL     1       6.934   5.355  19.777  0.00  0.00    +0.000 NA
ATOM     24  O   UNL     1       5.790   4.604  20.081  0.00  0.00    +0.000 OA
ATOM     25  C   UNL     1       5.160   4.373  18.893  0.00  0.00    +0.000 A 
ATOM     26  N   UNL     1       5.820   4.836  17.858  0.00  0.00    +0.000 NA
BRANCH  22  27
ATOM     27  C   UNL     1       7.675   6.432  17.662  0.00  0.00    +0.000 C 
BRANCH  27  28
ATOM     28  C   UNL     1       6.991   7.742  17.336  0.00  0.00    +0.000 C 
BRANCH  28  30
ATOM     29  C   UNL     1       8.498   9.215  18.403  0.00  0.00    +0.000 C 
ATOM     30  O   UNL     1       8.023   8.722  17.167  0.00  0.00    +0.000 OA
ENDBRANCH  28  30
ENDBRANCH  27  28
ENDBRANCH  22  27
ENDBRANCH  17  25
ENDBRANCH   1  21
TORSDOF 7
ENDMDL
