MODEL 1
REMARK VINA RESULT:      -7.7      0.000      0.000
REMARK  Name = 
REMARK  2 active torsions:
REMARK  status: ('A' for Active; 'I' for Inactive)
REMARK    1  A    between atoms: N_11  and  C_12
REMARK    2  A    between atoms: C_12  and  C_13
REMARK                            x       y       z     vdW  Elec       q    Type
REMARK                         _______ _______ _______ _____ _____    ______ ____
ROOT
ATOM      1  C   UNL     1       1.015   2.466  20.655  0.00  0.00    +0.000 A 
ATOM      2  C   UNL     1       1.662   3.226  21.655  0.00  0.00    +0.000 A 
ATOM      3  C   UNL     1       2.420   4.355  21.329  0.00  0.00    +0.000 A 
ATOM      4  C   UNL     1       2.520   4.718  19.994  0.00  0.00    +0.000 A 
ATOM      5  C   UNL     1       1.830   3.980  19.013  0.00  0.00    +0.000 A 
ATOM      6  C   UNL     1       1.091   2.848  19.318  0.00  0.00    +0.000 A 
ATOM      7  C   UNL     1       2.086   4.564  17.660  0.00  0.00    +0.000 C 
ATOM      8  C   UNL     1       3.150   3.803  16.871  0.00  0.00    +0.000 C 
ATOM      9  C   UNL     1       4.447   3.332  17.555  0.00  0.00    +0.000 C 
ATOM     10  C   UNL     1       4.952   3.971  18.849  0.00  0.00    +0.000 C 
ATOM     11  N   UNL     1       4.801   5.414  19.044  0.00  0.00    +0.000 NA
ATOM     12  C   UNL     1       3.377   5.800  19.331  0.00  0.00    +0.000 C 
ATOM     13  C   UNL     1       2.491   5.986  18.076  0.00  0.00    +0.000 C 
ENDROOT
BRANCH  11  14
ATOM     14  C   UNL     1       5.369   6.228  17.958  0.00  0.00    +0.000 C 
BRANCH  14  15
ATOM     15  C   UNL     1       6.832   6.328  17.637  0.00  0.00    +0.000 C 
ATOM     16  C   UNL     1       7.578   7.638  17.669  0.00  0.00    +0.000 C 
ATOM     17  C   UNL     1       8.004   6.514  18.571  0.00  0.00    +0.000 C 
ENDBRANCH  14  15
ENDBRANCH  11  14
TORSDOF 2
ENDMDL
MODEL 2
REMARK VINA RESULT:      -7.4      0.743      1.069
REMARK  Name = 
REMARK  2 active torsions:
REMARK  status: ('A' for Active; 'I' for Inactive)
REMARK    1  A    between atoms: N_11  and  C_12
REMARK    2  A    between atoms: C_12  and  C_13
REMARK                            x       y       z     vdW  Elec       q    Type
REMARK                         _______ _______ _______ _____ _____    ______ ____
ROOT
ATOM      1  C   UNL     1       0.948   2.609  20.895  0.00  0.00    +0.000 A 
ATOM      2  C   UNL     1       1.782   3.266  21.826  0.00  0.00    +0.000 A 
ATOM      3  C   UNL     1       2.617   4.318  21.434  0.00  0.00    +0.000 A 
ATOM      4  C   UNL     1       2.605   4.707  20.104  0.00  0.00    +0.000 A 
ATOM      5  C   UNL     1       1.733   4.075  19.196  0.00  0.00    +0.000 A 
ATOM      6  C   UNL     1       0.914   3.019  19.564  0.00  0.00    +0.000 A 
ATOM      7  C   UNL     1       1.897   4.669  17.833  0.00  0.00    +0.000 C 
ATOM      8  C   UNL     1       2.776   3.823  16.913  0.00  0.00    +0.000 C 
ATOM      9  C   UNL     1       4.083   3.197  17.435  0.00  0.00    +0.000 C 
ATOM     10  C   UNL     1       4.797   3.740  18.674  0.00  0.00    +0.000 C 
ATOM     11  N   UNL     1       4.827   5.185  18.910  0.00  0.00    +0.000 NA
ATOM     12  C   UNL     1       3.494   5.711  19.365  0.00  0.00    +0.000 C 
ATOM     13  C   UNL     1       2.498   6.027  18.224  0.00  0.00    +0.000 C 
ENDROOT
BRANCH  11  14
ATOM     14  C   UNL     1       5.353   5.966  17.779  0.00  0.00    +0.000 C 
BRANCH  14  15
ATOM     15  C   UNL     1       6.746   5.847  17.231  0.00  0.00    +0.000 C 
ATOM     16  C   UNL     1       7.623   4.653  17.510  0.00  0.00    +0.000 C 
ATOM     17  C   UNL     1       7.255   4.994  16.093  0.00  0.00    +0.000 C 
ENDBRANCH  14  15
ENDBRANCH  11  14
TORSDOF 2
ENDMDL
MODEL 3
REMARK VINA RESULT:      -7.2      1.863      2.792
REMARK  Name = 
REMARK  2 active torsions:
REMARK  status: ('A' for Active; 'I' for Inactive)
REMARK    1  A    between atoms: N_11  and  C_12
REMARK    2  A    between atoms: C_12  and  C_13
REMARK                            x       y       z     vdW  Elec       q    Type
REMARK                         _______ _______ _______ _____ _____    ______ ____
ROOT
ATOM      1  C   UNL     1       1.722   3.229  21.769  0.00  0.00    +0.000 A 
ATOM      2  C   UNL     1       2.679   2.210  21.574  0.00  0.00    +0.000 A 
ATOM      3  C   UNL     1       3.716   2.358  20.647  0.00  0.00    +0.000 A 
ATOM      4  C   UNL     1       3.787   3.538  19.923  0.00  0.00    +0.000 A 
ATOM      5  C   UNL     1       2.854   4.565  20.162  0.00  0.00    +0.000 A 
ATOM      6  C   UNL     1       1.809   4.426  21.062  0.00  0.00    +0.000 A 
ATOM      7  C   UNL     1       3.138   5.731  19.269  0.00  0.00    +0.000 C 
ATOM      8  C   UNL     1       2.230   5.780  18.041  0.00  0.00    +0.000 C 
ATOM      9  C   UNL     1       1.921   4.499  17.243  0.00  0.00    +0.000 C 
ATOM     10  C   UNL     1       2.823   3.267  17.318  0.00  0.00    +0.000 C 
ATOM     11  N   UNL     1       4.274   3.442  17.404  0.00  0.00    +0.000 NA
ATOM     12  C   UNL     1       4.706   3.925  18.760  0.00  0.00    +0.000 C 
ATOM     13  C   UNL     1       4.618   5.456  18.963  0.00  0.00    +0.000 C 
ENDROOT
BRANCH  11  14
ATOM     14  C   UNL     1       4.841   4.278  16.333  0.00  0.00    +0.000 C 
BRANCH  14  15
ATOM     15  C   UNL     1       6.057   3.927  15.525  0.00  0.00    +0.000 C 
ATOM     16  C   UNL     1       6.044   3.902  14.017  0.00  0.00    +0.000 C 
ATOM     17  C   UNL     1       6.976   4.833  14.741  0.00  0.00    +0.000 C 
ENDBRANCH  14  15
ENDBRANCH  11  14
TORSDOF 2
ENDMDL
MODEL 4
REMARK VINA RESULT:      -7.2      1.235      5.450
REMARK  Name = 
REMARK  2 active torsions:
REMARK  status: ('A' for Active; 'I' for Inactive)
REMARK    1  A    between atoms: N_11  and  C_12
REMARK    2  A    between atoms: C_12  and  C_13
REMARK                            x       y       z     vdW  Elec       q    Type
REMARK                         _______ _______ _______ _____ _____    ______ ____
ROOT
ATOM      1  C   UNL     1       7.743   7.571  17.961  0.00  0.00    +0.000 A 
ATOM      2  C   UNL     1       8.207   6.572  18.845  0.00  0.00    +0.000 A 
ATOM      3  C   UNL     1       7.528   5.358  18.986  0.00  0.00    +0.000 A 
ATOM      4  C   UNL     1       6.385   5.151  18.229  0.00  0.00    +0.000 A 
ATOM      5  C   UNL     1       5.962   6.136  17.315  0.00  0.00    +0.000 A 
ATOM      6  C   UNL     1       6.611   7.353  17.179  0.00  0.00    +0.000 A 
ATOM      7  C   UNL     1       4.718   5.684  16.618  0.00  0.00    +0.000 C 
ATOM      8  C   UNL     1       3.446   6.294  17.205  0.00  0.00    +0.000 C 
ATOM      9  C   UNL     1       3.254   6.390  18.731  0.00  0.00    +0.000 C 
ATOM     10  C   UNL     1       4.038   5.501  19.698  0.00  0.00    +0.000 C 
ATOM     11  N   UNL     1       4.314   4.110  19.332  0.00  0.00    +0.000 NA
ATOM     12  C   UNL     1       5.372   4.004  18.270  0.00  0.00    +0.000 C 
ATOM     13  C   UNL     1       4.856   4.168  16.821  0.00  0.00    +0.000 C 
ENDROOT
BRANCH  11  14
ATOM     14  C   UNL     1       3.115   3.336  18.973  0.00  0.00    +0.000 C 
BRANCH  14  15
ATOM     15  C   UNL     1       2.159   2.731  19.960  0.00  0.00    +0.000 C 
ATOM     16  C   UNL     1       2.399   2.778  21.449  0.00  0.00    +0.000 C 
ATOM     17  C   UNL     1       1.166   3.415  20.871  0.00  0.00    +0.000 C 
ENDBRANCH  14  15
ENDBRANCH  11  14
TORSDOF 2
ENDMDL
MODEL 5
REMARK VINA RESULT:      -6.9      1.344      5.519
REMARK  Name = 
REMARK  2 active torsions:
REMARK  status: ('A' for Active; 'I' for Inactive)
REMARK    1  A    between atoms: N_11  and  C_12
REMARK    2  A    between atoms: C_12  and  C_13
REMARK                            x       y       z     vdW  Elec       q    Type
REMARK                         _______ _______ _______ _____ _____    ______ ____
ROOT
ATOM      1  C   UNL     1       8.075   7.279  18.446  0.00  0.00    +0.000 A 
ATOM      2  C   UNL     1       8.163   6.054  19.142  0.00  0.00    +0.000 A 
ATOM      3  C   UNL     1       7.260   5.014  18.895  0.00  0.00    +0.000 A 
ATOM      4  C   UNL     1       6.273   5.213  17.942  0.00  0.00    +0.000 A 
ATOM      5  C   UNL     1       6.227   6.422  17.221  0.00  0.00    +0.000 A 
ATOM      6  C   UNL     1       7.101   7.469  17.468  0.00  0.00    +0.000 A 
ATOM      7  C   UNL     1       5.086   6.396  16.254  0.00  0.00    +0.000 C 
ATOM      8  C   UNL     1       3.856   7.149  16.759  0.00  0.00    +0.000 C 
ATOM      9  C   UNL     1       3.384   6.992  18.217  0.00  0.00    +0.000 C 
ATOM     10  C   UNL     1       3.784   5.786  19.067  0.00  0.00    +0.000 C 
ATOM     11  N   UNL     1       3.869   4.464  18.443  0.00  0.00    +0.000 NA
ATOM     12  C   UNL     1       5.081   4.330  17.563  0.00  0.00    +0.000 C 
ATOM     13  C   UNL     1       4.902   4.877  16.127  0.00  0.00    +0.000 C 
ENDROOT
BRANCH  11  14
ATOM     14  C   UNL     1       2.645   4.055  17.735  0.00  0.00    +0.000 C 
BRANCH  14  15
ATOM     15  C   UNL     1       1.638   3.075  18.262  0.00  0.00    +0.000 C 
ATOM     16  C   UNL     1       1.964   2.095  19.361  0.00  0.00    +0.000 C 
ATOM     17  C   UNL     1       0.867   3.103  19.561  0.00  0.00    +0.000 C 
ENDBRANCH  14  15
ENDBRANCH  11  14
TORSDOF 2
ENDMDL
MODEL 6
REMARK VINA RESULT:      -6.8      1.350      1.974
REMARK  Name = 
REMARK  2 active torsions:
REMARK  status: ('A' for Active; 'I' for Inactive)
REMARK    1  A    between atoms: N_11  and  C_12
REMARK    2  A    between atoms: C_12  and  C_13
REMARK                            x       y       z     vdW  Elec       q    Type
REMARK                         _______ _______ _______ _____ _____    ______ ____
ROOT
ATOM      1  C   UNL     1       1.240   2.888  21.609  0.00  0.00    +0.000 A 
ATOM      2  C   UNL     1       2.432   2.139  21.714  0.00  0.00    +0.000 A 
ATOM      3  C   UNL     1       3.572   2.485  20.980  0.00  0.00    +0.000 A 
ATOM      4  C   UNL     1       3.506   3.590  20.146  0.00  0.00    +0.000 A 
ATOM      5  C   UNL     1       2.326   4.356  20.088  0.00  0.00    +0.000 A 
ATOM      6  C   UNL     1       1.183   4.015  20.792  0.00  0.00    +0.000 A 
ATOM      7  C   UNL     1       2.501   5.491  19.129  0.00  0.00    +0.000 C 
ATOM      8  C   UNL     1       1.881   5.219  17.759  0.00  0.00    +0.000 C 
ATOM      9  C   UNL     1       2.058   3.850  17.076  0.00  0.00    +0.000 C 
ATOM     10  C   UNL     1       3.193   2.900  17.460  0.00  0.00    +0.000 C 
ATOM     11  N   UNL     1       4.510   3.449  17.787  0.00  0.00    +0.000 NA
ATOM     12  C   UNL     1       4.526   4.119  19.133  0.00  0.00    +0.000 C 
ATOM     13  C   UNL     1       4.034   5.586  19.133  0.00  0.00    +0.000 C 
ENDROOT
BRANCH  11  14
ATOM     14  C   UNL     1       5.069   4.326  16.746  0.00  0.00    +0.000 C 
BRANCH  14  15
ATOM     15  C   UNL     1       6.531   4.612  16.561  0.00  0.00    +0.000 C 
ATOM     16  C   UNL     1       7.159   5.915  16.989  0.00  0.00    +0.000 C 
ATOM     17  C   UNL     1       7.639   4.622  17.587  0.00  0.00    +0.000 C 
ENDBRANCH  14  15
ENDBRANCH  11  14
TORSDOF 2
ENDMDL
MODEL 7
REMARK VINA RESULT:      -6.6      1.966      2.885
REMARK  Name = 
REMARK  2 active torsions:
REMARK  status: ('A' for Active; 'I' for Inactive)
REMARK    1  A    between atoms: N_11  and  C_12
REMARK    2  A    between atoms: C_12  and  C_13
REMARK                            x       y       z     vdW  Elec       q    Type
REMARK                         _______ _______ _______ _____ _____    ______ ____
ROOT
ATOM      1  C   UNL     1       1.293   6.336  21.050  0.00  0.00    +0.000 A 
ATOM      2  C   UNL     1       1.898   7.367  20.297  0.00  0.00    +0.000 A 
ATOM      3  C   UNL     1       2.550   7.095  19.090  0.00  0.00    +0.000 A 
ATOM      4  C   UNL     1       2.585   5.784  18.642  0.00  0.00    +0.000 A 
ATOM      5  C   UNL     1       1.935   4.774  19.377  0.00  0.00    +0.000 A 
ATOM      6  C   UNL     1       1.302   5.023  20.585  0.00  0.00    +0.000 A 
ATOM      7  C   UNL     1       2.107   3.454  18.694  0.00  0.00    +0.000 C 
ATOM      8  C   UNL     1       3.211   2.598  19.313  0.00  0.00    +0.000 C 
ATOM      9  C   UNL     1       4.560   3.226  19.711  0.00  0.00    +0.000 C 
ATOM     10  C   UNL     1       5.042   4.546  19.109  0.00  0.00    +0.000 C 
ATOM     11  N   UNL     1       4.774   4.832  17.698  0.00  0.00    +0.000 NA
ATOM     12  C   UNL     1       3.330   5.170  17.453  0.00  0.00    +0.000 C 
ATOM     13  C   UNL     1       2.400   3.948  17.269  0.00  0.00    +0.000 C 
ENDROOT
BRANCH  11  14
ATOM     14  C   UNL     1       5.243   3.786  16.775  0.00  0.00    +0.000 C 
BRANCH  14  15
ATOM     15  C   UNL     1       5.520   3.994  15.314  0.00  0.00    +0.000 C 
ATOM     16  C   UNL     1       5.712   5.366  14.717  0.00  0.00    +0.000 C 
ATOM     17  C   UNL     1       6.818   4.352  14.630  0.00  0.00    +0.000 C 
ENDBRANCH  14  15
ENDBRANCH  11  14
TORSDOF 2
ENDMDL
MODEL 8
REMARK VINA RESULT:      -6.6      1.927      2.592
REMARK  Name = 
REMARK  2 active torsions:
REMARK  status: ('A' for Active; 'I' for Inactive)
REMARK    1  A    between atoms: N_11  and  C_12
REMARK    2  A    between atoms: C_12  and  C_13
REMARK                            x       y       z     vdW  Elec       q    Type
REMARK                         _______ _______ _______ _____ _____    ______ ____
ROOT
ATOM      1  C   UNL     1       0.918   4.504  20.846  0.00  0.00    +0.000 A 
ATOM      2  C   UNL     1       1.496   5.778  20.659  0.00  0.00    +0.000 A 
ATOM      3  C   UNL     1       2.336   6.040  19.572  0.00  0.00    +0.000 A 
ATOM      4  C   UNL     1       2.586   5.016  18.672  0.00  0.00    +0.000 A 
ATOM      5  C   UNL     1       1.964   3.764  18.844  0.00  0.00    +0.000 A 
ATOM      6  C   UNL     1       1.146   3.482  19.926  0.00  0.00    +0.000 A 
ATOM      7  C   UNL     1       2.384   2.832  17.752  0.00  0.00    +0.000 C 
ATOM      8  C   UNL     1       3.484   1.863  18.180  0.00  0.00    +0.000 C 
ATOM      9  C   UNL     1       4.682   2.355  19.014  0.00  0.00    +0.000 C 
ATOM     10  C   UNL     1       5.084   3.830  19.052  0.00  0.00    +0.000 C 
ATOM     11  N   UNL     1       4.982   4.634  17.833  0.00  0.00    +0.000 NA
ATOM     12  C   UNL     1       3.556   4.962  17.488  0.00  0.00    +0.000 C 
ATOM     13  C   UNL     1       2.810   3.862  16.696  0.00  0.00    +0.000 C 
ENDROOT
BRANCH  11  14
ATOM     14  C   UNL     1       5.694   4.064  16.678  0.00  0.00    +0.000 C 
BRANCH  14  15
ATOM     15  C   UNL     1       5.828   4.731  15.340  0.00  0.00    +0.000 C 
ATOM     16  C   UNL     1       6.975   4.439  14.404  0.00  0.00    +0.000 C 
ATOM     17  C   UNL     1       5.563   4.170  13.962  0.00  0.00    +0.000 C 
ENDBRANCH  14  15
ENDBRANCH  11  14
TORSDOF 2
ENDMDL
MODEL 9
REMARK VINA RESULT:      -6.6      1.791      5.442
REMARK  Name = 
REMARK  2 active torsions:
REMARK  status: ('A' for Active; 'I' for Inactive)
REMARK    1  A    between atoms: N_11  and  C_12
REMARK    2  A    between atoms: C_12  and  C_13
REMARK                            x       y       z     vdW  Elec       q    Type
REMARK                         _______ _______ _______ _____ _____    ______ ____
ROOT
ATOM      1  C   UNL     1       6.296   5.281  14.728  0.00  0.00    +0.000 A 
ATOM      2  C   UNL     1       6.252   3.870  14.755  0.00  0.00    +0.000 A 
ATOM      3  C   UNL     1       5.414   3.189  15.644  0.00  0.00    +0.000 A 
ATOM      4  C   UNL     1       4.618   3.933  16.500  0.00  0.00    +0.000 A 
ATOM      5  C   UNL     1       4.636   5.340  16.429  0.00  0.00    +0.000 A 
ATOM      6  C   UNL     1       5.475   6.030  15.568  0.00  0.00    +0.000 A 
ATOM      7  C   UNL     1       3.696   5.914  17.441  0.00  0.00    +0.000 C 
ATOM      8  C   UNL     1       4.402   6.398  18.707  0.00  0.00    +0.000 C 
ATOM      9  C   UNL     1       5.510   5.551  19.360  0.00  0.00    +0.000 C 
ATOM     10  C   UNL     1       5.637   4.050  19.096  0.00  0.00    +0.000 C 
ATOM     11  N   UNL     1       4.425   3.239  18.964  0.00  0.00    +0.000 NA
ATOM     12  C   UNL     1       3.723   3.478  17.656  0.00  0.00    +0.000 C 
ATOM     13  C   UNL     1       2.776   4.701  17.642  0.00  0.00    +0.000 C 
ENDROOT
BRANCH  11  14
ATOM     14  C   UNL     1       3.496   3.360  20.100  0.00  0.00    +0.000 C 
BRANCH  14  15
ATOM     15  C   UNL     1       2.248   2.546  20.276  0.00  0.00    +0.000 C 
ATOM     16  C   UNL     1       1.302   2.758  21.431  0.00  0.00    +0.000 C 
ATOM     17  C   UNL     1       0.810   2.934  20.021  0.00  0.00    +0.000 C 
ENDBRANCH  14  15
ENDBRANCH  11  14
TORSDOF 2
ENDMDL
