MODEL 1
REMARK VINA RESULT:      -7.5      0.000      0.000
REMARK  Name = 
REMARK  4 active torsions:
REMARK  status: ('A' for Active; 'I' for Inactive)
REMARK    1  A    between atoms: O_1  and  C_2
REMARK    2  A    between atoms: C_2  and  C_3
REMARK    3  A    between atoms: C_2  and  C_9
REMARK    4  A    between atoms: C_11  and  C_12
REMARK                            x       y       z     vdW  Elec       q    Type
REMARK                         _______ _______ _______ _____ _____    ______ ____
ROOT
ATOM      1  C   UNL     1       3.967   4.816  19.359  0.00  0.00    +0.000 A 
ATOM      2  N   UNL     1       3.644   6.046  18.992  0.00  0.00    +0.000 NA
ATOM      3  C   UNL     1       2.474   6.447  19.619  0.00  0.00    +0.000 A 
ATOM      4  C   UNL     1       1.866   5.467  20.379  0.00  0.00    +0.000 A 
ATOM      5  S   UNL     1       2.813   4.040  20.377  0.00  0.00    +0.000 S 
ENDROOT
BRANCH   3   6
ATOM      6  C   UNL     1       1.964   7.809  19.482  0.00  0.00    +0.000 A 
ATOM      7  C   UNL     1       1.325   8.431  20.563  0.00  0.00    +0.000 A 
ATOM      8  C   UNL     1       0.801   9.725  20.434  0.00  0.00    +0.000 A 
ATOM      9  C   UNL     1       0.907  10.397  19.219  0.00  0.00    +0.000 A 
ATOM     10 CL   UNL     1       0.247  11.977  19.050  0.00  0.00    +0.000 Cl
ATOM     11  C   UNL     1       1.535   9.793  18.133  0.00  0.00    +0.000 A 
ATOM     12  C   UNL     1       2.061   8.503  18.266  0.00  0.00    +0.000 A 
ENDBRANCH   3   6
BRANCH   1  13
ATOM     13  C   UNL     1       5.281   4.155  19.009  0.00  0.00    +0.000 C 
BRANCH  13  14
ATOM     14  C   UNL     1       5.747   4.288  17.570  0.00  0.00    +0.000 A 
ATOM     15  C   UNL     1       7.046   4.723  17.247  0.00  0.00    +0.000 A 
ATOM     16  C   UNL     1       7.422   4.930  15.918  0.00  0.00    +0.000 A 
ATOM     17  C   UNL     1       6.512   4.694  14.890  0.00  0.00    +0.000 A 
ATOM     18  C   UNL     1       5.235   4.229  15.191  0.00  0.00    +0.000 A 
ATOM     19  C   UNL     1       4.857   4.019  16.519  0.00  0.00    +0.000 A 
ENDBRANCH  13  14
BRANCH  13  20
ATOM     20  O   UNL     1       5.192   2.774  19.383  0.00  0.00    +0.000 OA
ATOM     21  H   UNL     1       5.439   2.740  20.322  0.00  0.00    +0.000 HD
ENDBRANCH  13  20
ENDBRANCH   1  13
TORSDOF 4
ENDMDL
MODEL 2
REMARK VINA RESULT:      -7.5      0.112      1.083
REMARK  Name = 
REMARK  4 active torsions:
REMARK  status: ('A' for Active; 'I' for Inactive)
REMARK    1  A    between atoms: O_1  and  C_2
REMARK    2  A    between atoms: C_2  and  C_3
REMARK    3  A    between atoms: C_2  and  C_9
REMARK    4  A    between atoms: C_11  and  C_12
REMARK                            x       y       z     vdW  Elec       q    Type
REMARK                         _______ _______ _______ _____ _____    ______ ____
ROOT
ATOM      1  C   UNL     1       3.932   4.839  19.397  0.00  0.00    +0.000 A 
ATOM      2  N   UNL     1       3.599   6.070  19.043  0.00  0.00    +0.000 NA
ATOM      3  C   UNL     1       2.440   6.465  19.694  0.00  0.00    +0.000 A 
ATOM      4  C   UNL     1       1.849   5.479  20.461  0.00  0.00    +0.000 A 
ATOM      5  S   UNL     1       2.799   4.055  20.434  0.00  0.00    +0.000 S 
ENDROOT
BRANCH   3   6
ATOM      6  C   UNL     1       1.924   7.826  19.574  0.00  0.00    +0.000 A 
ATOM      7  C   UNL     1       1.285   8.434  20.663  0.00  0.00    +0.000 A 
ATOM      8  C   UNL     1       0.755   9.726  20.550  0.00  0.00    +0.000 A 
ATOM      9  C   UNL     1       0.856  10.413  19.342  0.00  0.00    +0.000 A 
ATOM     10 CL   UNL     1       0.189  11.992  19.193  0.00  0.00    +0.000 Cl
ATOM     11  C   UNL     1       1.484   9.824  18.249  0.00  0.00    +0.000 A 
ATOM     12  C   UNL     1       2.016   8.535  18.365  0.00  0.00    +0.000 A 
ENDBRANCH   3   6
BRANCH   1  13
ATOM     13  C   UNL     1       5.240   4.183  19.019  0.00  0.00    +0.000 C 
BRANCH  13  14
ATOM     14  C   UNL     1       5.692   4.347  17.578  0.00  0.00    +0.000 A 
ATOM     15  C   UNL     1       4.831   4.086  16.495  0.00  0.00    +0.000 A 
ATOM     16  C   UNL     1       5.297   4.151  15.181  0.00  0.00    +0.000 A 
ATOM     17  C   UNL     1       6.623   4.490  14.925  0.00  0.00    +0.000 A 
ATOM     18  C   UNL     1       7.477   4.786  15.984  0.00  0.00    +0.000 A 
ATOM     19  C   UNL     1       7.015   4.724  17.300  0.00  0.00    +0.000 A 
ENDBRANCH  13  14
BRANCH  13  20
ATOM     20  O   UNL     1       5.151   2.794  19.364  0.00  0.00    +0.000 OA
ATOM     21  H   UNL     1       5.476   2.729  20.277  0.00  0.00    +0.000 HD
ENDBRANCH  13  20
ENDBRANCH   1  13
TORSDOF 4
ENDMDL
MODEL 3
REMARK VINA RESULT:      -7.5      0.109      1.530
REMARK  Name = 
REMARK  4 active torsions:
REMARK  status: ('A' for Active; 'I' for Inactive)
REMARK    1  A    between atoms: O_1  and  C_2
REMARK    2  A    between atoms: C_2  and  C_3
REMARK    3  A    between atoms: C_2  and  C_9
REMARK    4  A    between atoms: C_11  and  C_12
REMARK                            x       y       z     vdW  Elec       q    Type
REMARK                         _______ _______ _______ _____ _____    ______ ____
ROOT
ATOM      1  C   UNL     1       3.936   4.871  19.396  0.00  0.00    +0.000 A 
ATOM      2  N   UNL     1       3.588   6.093  19.026  0.00  0.00    +0.000 NA
ATOM      3  C   UNL     1       2.424   6.482  19.673  0.00  0.00    +0.000 A 
ATOM      4  C   UNL     1       1.845   5.499  20.451  0.00  0.00    +0.000 A 
ATOM      5  S   UNL     1       2.813   4.086  20.442  0.00  0.00    +0.000 S 
ENDROOT
BRANCH   3   6
ATOM      6  C   UNL     1       1.892   7.836  19.535  0.00  0.00    +0.000 A 
ATOM      7  C   UNL     1       2.028   8.524  18.323  0.00  0.00    +0.000 A 
ATOM      8  C   UNL     1       1.553   9.836  18.188  0.00  0.00    +0.000 A 
ATOM      9  C   UNL     1       0.946  10.466  19.272  0.00  0.00    +0.000 A 
ATOM     10 CL   UNL     1       0.379  12.084  19.118  0.00  0.00    +0.000 Cl
ATOM     11  C   UNL     1       0.805   9.799  20.485  0.00  0.00    +0.000 A 
ATOM     12  C   UNL     1       1.277   8.489  20.616  0.00  0.00    +0.000 A 
ENDBRANCH   3   6
BRANCH   1  13
ATOM     13  C   UNL     1       5.252   4.226  19.026  0.00  0.00    +0.000 C 
BRANCH  13  14
ATOM     14  C   UNL     1       5.696   4.367  17.580  0.00  0.00    +0.000 A 
ATOM     15  C   UNL     1       4.834   4.076  16.506  0.00  0.00    +0.000 A 
ATOM     16  C   UNL     1       5.293   4.120  15.189  0.00  0.00    +0.000 A 
ATOM     17  C   UNL     1       6.615   4.468  14.920  0.00  0.00    +0.000 A 
ATOM     18  C   UNL     1       7.470   4.795  15.969  0.00  0.00    +0.000 A 
ATOM     19  C   UNL     1       7.013   4.753  17.288  0.00  0.00    +0.000 A 
ENDBRANCH  13  14
BRANCH  13  20
ATOM     20  O   UNL     1       5.186   2.844  19.400  0.00  0.00    +0.000 OA
ATOM     21  H   UNL     1       5.639   2.782  20.256  0.00  0.00    +0.000 HD
ENDBRANCH  13  20
ENDBRANCH   1  13
TORSDOF 4
ENDMDL
MODEL 4
REMARK VINA RESULT:      -7.5      3.654      4.910
REMARK  Name = 
REMARK  4 active torsions:
REMARK  status: ('A' for Active; 'I' for Inactive)
REMARK    1  A    between atoms: O_1  and  C_2
REMARK    2  A    between atoms: C_2  and  C_3
REMARK    3  A    between atoms: C_2  and  C_9
REMARK    4  A    between atoms: C_11  and  C_12
REMARK                            x       y       z     vdW  Elec       q    Type
REMARK                         _______ _______ _______ _____ _____    ______ ____
ROOT
ATOM      1  C   UNL     1       5.942   5.527  16.847  0.00  0.00    +0.000 A 
ATOM      2  N   UNL     1       5.465   4.766  17.819  0.00  0.00    +0.000 NA
ATOM      3  C   UNL     1       4.232   5.239  18.244  0.00  0.00    +0.000 A 
ATOM      4  C   UNL     1       3.838   6.423  17.653  0.00  0.00    +0.000 A 
ATOM      5  S   UNL     1       4.989   6.917  16.484  0.00  0.00    +0.000 S 
ENDROOT
BRANCH   3   6
ATOM      6  C   UNL     1       3.432   4.510  19.225  0.00  0.00    +0.000 A 
ATOM      7  C   UNL     1       2.237   5.060  19.705  0.00  0.00    +0.000 A 
ATOM      8  C   UNL     1       1.478   4.386  20.672  0.00  0.00    +0.000 A 
ATOM      9  C   UNL     1       1.918   3.161  21.167  0.00  0.00    +0.000 A 
ATOM     10 CL   UNL     1       1.000   2.340  22.369  0.00  0.00    +0.000 Cl
ATOM     11  C   UNL     1       3.105   2.600  20.704  0.00  0.00    +0.000 A 
ATOM     12  C   UNL     1       3.859   3.274  19.737  0.00  0.00    +0.000 A 
ENDBRANCH   3   6
BRANCH   1  13
ATOM     13  C   UNL     1       7.169   5.178  16.035  0.00  0.00    +0.000 C 
BRANCH  13  14
ATOM     14  C   UNL     1       6.936   4.771  14.591  0.00  0.00    +0.000 A 
ATOM     15  C   UNL     1       5.944   3.840  14.232  0.00  0.00    +0.000 A 
ATOM     16  C   UNL     1       5.813   3.409  12.911  0.00  0.00    +0.000 A 
ATOM     17  C   UNL     1       6.660   3.909  11.925  0.00  0.00    +0.000 A 
ATOM     18  C   UNL     1       7.622   4.858  12.257  0.00  0.00    +0.000 A 
ATOM     19  C   UNL     1       7.755   5.293  13.578  0.00  0.00    +0.000 A 
ENDBRANCH  13  14
BRANCH  13  20
ATOM     20  O   UNL     1       7.884   4.154  16.739  0.00  0.00    +0.000 OA
ATOM     21  H   UNL     1       8.129   4.545  17.594  0.00  0.00    +0.000 HD
ENDBRANCH  13  20
ENDBRANCH   1  13
TORSDOF 4
ENDMDL
MODEL 5
REMARK VINA RESULT:      -7.5      0.075      1.082
REMARK  Name = 
REMARK  4 active torsions:
REMARK  status: ('A' for Active; 'I' for Inactive)
REMARK    1  A    between atoms: O_1  and  C_2
REMARK    2  A    between atoms: C_2  and  C_3
REMARK    3  A    between atoms: C_2  and  C_9
REMARK    4  A    between atoms: C_11  and  C_12
REMARK                            x       y       z     vdW  Elec       q    Type
REMARK                         _______ _______ _______ _____ _____    ______ ____
ROOT
ATOM      1  C   UNL     1       3.966   4.842  19.401  0.00  0.00    +0.000 A 
ATOM      2  N   UNL     1       3.632   6.067  19.025  0.00  0.00    +0.000 NA
ATOM      3  C   UNL     1       2.451   6.457  19.640  0.00  0.00    +0.000 A 
ATOM      4  C   UNL     1       1.848   5.473  20.399  0.00  0.00    +0.000 A 
ATOM      5  S   UNL     1       2.812   4.058  20.413  0.00  0.00    +0.000 S 
ENDROOT
BRANCH   3   6
ATOM      6  C   UNL     1       1.927   7.812  19.492  0.00  0.00    +0.000 A 
ATOM      7  C   UNL     1       2.072   8.492  18.276  0.00  0.00    +0.000 A 
ATOM      8  C   UNL     1       1.604   9.806  18.131  0.00  0.00    +0.000 A 
ATOM      9  C   UNL     1       0.996  10.446  19.209  0.00  0.00    +0.000 A 
ATOM     10 CL   UNL     1       0.438  12.066  19.042  0.00  0.00    +0.000 Cl
ATOM     11  C   UNL     1       0.845   9.788  20.425  0.00  0.00    +0.000 A 
ATOM     12  C   UNL     1       1.310   8.475  20.566  0.00  0.00    +0.000 A 
ENDBRANCH   3   6
BRANCH   1  13
ATOM     13  C   UNL     1       5.290   4.195  19.066  0.00  0.00    +0.000 C 
BRANCH  13  14
ATOM     14  C   UNL     1       5.757   4.308  17.625  0.00  0.00    +0.000 A 
ATOM     15  C   UNL     1       7.054   4.743  17.295  0.00  0.00    +0.000 A 
ATOM     16  C   UNL     1       7.429   4.930  15.964  0.00  0.00    +0.000 A 
ATOM     17  C   UNL     1       6.520   4.673  14.939  0.00  0.00    +0.000 A 
ATOM     18  C   UNL     1       5.245   4.207  15.247  0.00  0.00    +0.000 A 
ATOM     19  C   UNL     1       4.868   4.017  16.578  0.00  0.00    +0.000 A 
ENDBRANCH  13  14
BRANCH  13  20
ATOM     20  O   UNL     1       5.223   2.821  19.468  0.00  0.00    +0.000 OA
ATOM     21  H   UNL     1       4.290   2.566  19.375  0.00  0.00    +0.000 HD
ENDBRANCH  13  20
ENDBRANCH   1  13
TORSDOF 4
ENDMDL
MODEL 6
REMARK VINA RESULT:      -7.4      1.896      2.705
REMARK  Name = 
REMARK  4 active torsions:
REMARK  status: ('A' for Active; 'I' for Inactive)
REMARK    1  A    between atoms: O_1  and  C_2
REMARK    2  A    between atoms: C_2  and  C_3
REMARK    3  A    between atoms: C_2  and  C_9
REMARK    4  A    between atoms: C_11  and  C_12
REMARK                            x       y       z     vdW  Elec       q    Type
REMARK                         _______ _______ _______ _____ _____    ______ ____
ROOT
ATOM      1  C   UNL     1       5.216   5.236  16.826  0.00  0.00    +0.000 A 
ATOM      2  N   UNL     1       4.630   6.384  17.129  0.00  0.00    +0.000 NA
ATOM      3  C   UNL     1       3.471   6.158  17.858  0.00  0.00    +0.000 A 
ATOM      4  C   UNL     1       3.138   4.827  18.007  0.00  0.00    +0.000 A 
ATOM      5  S   UNL     1       4.335   3.830  17.294  0.00  0.00    +0.000 S 
ENDROOT
BRANCH   3   6
ATOM      6  C   UNL     1       2.700   7.262  18.424  0.00  0.00    +0.000 A 
ATOM      7  C   UNL     1       2.242   7.193  19.746  0.00  0.00    +0.000 A 
ATOM      8  C   UNL     1       1.472   8.230  20.291  0.00  0.00    +0.000 A 
ATOM      9  C   UNL     1       1.151   9.337  19.509  0.00  0.00    +0.000 A 
ATOM     10 CL   UNL     1       0.188  10.603  20.167  0.00  0.00    +0.000 Cl
ATOM     11  C   UNL     1       1.594   9.422  18.193  0.00  0.00    +0.000 A 
ATOM     12  C   UNL     1       2.366   8.387  17.653  0.00  0.00    +0.000 A 
ENDBRANCH   3   6
BRANCH   1  13
ATOM     13  C   UNL     1       6.591   5.135  16.206  0.00  0.00    +0.000 C 
BRANCH  13  14
ATOM     14  C   UNL     1       6.647   4.805  14.725  0.00  0.00    +0.000 A 
ATOM     15  C   UNL     1       5.790   3.853  14.143  0.00  0.00    +0.000 A 
ATOM     16  C   UNL     1       5.924   3.496  12.800  0.00  0.00    +0.000 A 
ATOM     17  C   UNL     1       6.907   4.092  12.013  0.00  0.00    +0.000 A 
ATOM     18  C   UNL     1       7.739   5.062  12.565  0.00  0.00    +0.000 A 
ATOM     19  C   UNL     1       7.606   5.423  13.907  0.00  0.00    +0.000 A 
ENDBRANCH  13  14
BRANCH  13  20
ATOM     20  O   UNL     1       7.346   4.181  16.964  0.00  0.00    +0.000 OA
ATOM     21  H   UNL     1       7.894   4.704  17.572  0.00  0.00    +0.000 HD
ENDBRANCH  13  20
ENDBRANCH   1  13
TORSDOF 4
ENDMDL
MODEL 7
REMARK VINA RESULT:      -7.4      3.636      4.926
REMARK  Name = 
REMARK  4 active torsions:
REMARK  status: ('A' for Active; 'I' for Inactive)
REMARK    1  A    between atoms: O_1  and  C_2
REMARK    2  A    between atoms: C_2  and  C_3
REMARK    3  A    between atoms: C_2  and  C_9
REMARK    4  A    between atoms: C_11  and  C_12
REMARK                            x       y       z     vdW  Elec       q    Type
REMARK                         _______ _______ _______ _____ _____    ______ ____
ROOT
ATOM      1  C   UNL     1       5.990   5.658  16.882  0.00  0.00    +0.000 A 
ATOM      2  N   UNL     1       5.543   4.902  17.872  0.00  0.00    +0.000 NA
ATOM      3  C   UNL     1       4.313   5.365  18.318  0.00  0.00    +0.000 A 
ATOM      4  C   UNL     1       3.894   6.539  17.724  0.00  0.00    +0.000 A 
ATOM      5  S   UNL     1       5.014   7.034  16.527  0.00  0.00    +0.000 S 
ENDROOT
BRANCH   3   6
ATOM      6  C   UNL     1       3.543   4.636  19.322  0.00  0.00    +0.000 A 
ATOM      7  C   UNL     1       3.867   3.308  19.628  0.00  0.00    +0.000 A 
ATOM      8  C   UNL     1       3.115   2.585  20.564  0.00  0.00    +0.000 A 
ATOM      9  C   UNL     1       2.027   3.189  21.191  0.00  0.00    +0.000 A 
ATOM     10 CL   UNL     1       1.088   2.299  22.326  0.00  0.00    +0.000 Cl
ATOM     11  C   UNL     1       1.688   4.506  20.898  0.00  0.00    +0.000 A 
ATOM     12  C   UNL     1       2.443   5.226  19.965  0.00  0.00    +0.000 A 
ENDBRANCH   3   6
BRANCH   1  13
ATOM     13  C   UNL     1       7.204   5.316  16.049  0.00  0.00    +0.000 C 
BRANCH  13  14
ATOM     14  C   UNL     1       6.942   4.836  14.631  0.00  0.00    +0.000 A 
ATOM     15  C   UNL     1       5.937   3.896  14.338  0.00  0.00    +0.000 A 
ATOM     16  C   UNL     1       5.779   3.399  13.043  0.00  0.00    +0.000 A 
ATOM     17  C   UNL     1       6.612   3.841  12.018  0.00  0.00    +0.000 A 
ATOM     18  C   UNL     1       7.587   4.798  12.285  0.00  0.00    +0.000 A 
ATOM     19  C   UNL     1       7.747   5.299  13.578  0.00  0.00    +0.000 A 
ENDBRANCH  13  14
BRANCH  13  20
ATOM     20  O   UNL     1       7.976   4.349  16.773  0.00  0.00    +0.000 OA
ATOM     21  H   UNL     1       7.344   3.670  17.062  0.00  0.00    +0.000 HD
ENDBRANCH  13  20
ENDBRANCH   1  13
TORSDOF 4
ENDMDL
MODEL 8
REMARK VINA RESULT:      -7.4      2.010      3.035
REMARK  Name = 
REMARK  4 active torsions:
REMARK  status: ('A' for Active; 'I' for Inactive)
REMARK    1  A    between atoms: O_1  and  C_2
REMARK    2  A    between atoms: C_2  and  C_3
REMARK    3  A    between atoms: C_2  and  C_9
REMARK    4  A    between atoms: C_11  and  C_12
REMARK                            x       y       z     vdW  Elec       q    Type
REMARK                         _______ _______ _______ _____ _____    ______ ____
ROOT
ATOM      1  C   UNL     1       5.397   5.392  16.712  0.00  0.00    +0.000 A 
ATOM      2  N   UNL     1       4.682   6.475  16.976  0.00  0.00    +0.000 NA
ATOM      3  C   UNL     1       3.670   6.180  17.877  0.00  0.00    +0.000 A 
ATOM      4  C   UNL     1       3.566   4.842  18.205  0.00  0.00    +0.000 A 
ATOM      5  S   UNL     1       4.807   3.944  17.438  0.00  0.00    +0.000 S 
ENDROOT
BRANCH   3   6
ATOM      6  C   UNL     1       2.812   7.226  18.430  0.00  0.00    +0.000 A 
ATOM      7  C   UNL     1       2.512   8.362  17.668  0.00  0.00    +0.000 A 
ATOM      8  C   UNL     1       1.719   9.389  18.199  0.00  0.00    +0.000 A 
ATOM      9  C   UNL     1       1.231   9.285  19.499  0.00  0.00    +0.000 A 
ATOM     10 CL   UNL     1       0.274  10.552  20.162  0.00  0.00    +0.000 Cl
ATOM     11  C   UNL     1       1.522   8.164  20.272  0.00  0.00    +0.000 A 
ATOM     12  C   UNL     1       2.311   7.139  19.738  0.00  0.00    +0.000 A 
ENDBRANCH   3   6
BRANCH   1  13
ATOM     13  C   UNL     1       6.685   5.411  15.922  0.00  0.00    +0.000 C 
BRANCH  13  14
ATOM     14  C   UNL     1       6.619   4.879  14.501  0.00  0.00    +0.000 A 
ATOM     15  C   UNL     1       5.604   3.998  14.084  0.00  0.00    +0.000 A 
ATOM     16  C   UNL     1       5.618   3.447  12.801  0.00  0.00    +0.000 A 
ATOM     17  C   UNL     1       6.637   3.776  11.910  0.00  0.00    +0.000 A 
ATOM     18  C   UNL     1       7.628   4.675  12.295  0.00  0.00    +0.000 A 
ATOM     19  C   UNL     1       7.616   5.229  13.577  0.00  0.00    +0.000 A 
ENDBRANCH  13  14
BRANCH  13  20
ATOM     20  O   UNL     1       7.675   4.703  16.679  0.00  0.00    +0.000 OA
ATOM     21  H   UNL     1       8.420   5.319  16.779  0.00  0.00    +0.000 HD
ENDBRANCH  13  20
ENDBRANCH   1  13
TORSDOF 4
ENDMDL
MODEL 9
REMARK VINA RESULT:      -7.3      3.624      4.808
REMARK  Name = 
REMARK  4 active torsions:
REMARK  status: ('A' for Active; 'I' for Inactive)
REMARK    1  A    between atoms: O_1  and  C_2
REMARK    2  A    between atoms: C_2  and  C_3
REMARK    3  A    between atoms: C_2  and  C_9
REMARK    4  A    between atoms: C_11  and  C_12
REMARK                            x       y       z     vdW  Elec       q    Type
REMARK                         _______ _______ _______ _____ _____    ______ ____
ROOT
ATOM      1  C   UNL     1       6.008   5.655  16.837  0.00  0.00    +0.000 A 
ATOM      2  N   UNL     1       5.557   4.931  17.849  0.00  0.00    +0.000 NA
ATOM      3  C   UNL     1       4.308   5.382  18.249  0.00  0.00    +0.000 A 
ATOM      4  C   UNL     1       3.873   6.519  17.596  0.00  0.00    +0.000 A 
ATOM      5  S   UNL     1       5.007   6.990  16.402  0.00  0.00    +0.000 S 
ENDROOT
BRANCH   3   6
ATOM      6  C   UNL     1       3.533   4.678  19.268  0.00  0.00    +0.000 A 
ATOM      7  C   UNL     1       3.861   3.361  19.613  0.00  0.00    +0.000 A 
ATOM      8  C   UNL     1       3.105   2.661  20.564  0.00  0.00    +0.000 A 
ATOM      9  C   UNL     1       2.011   3.277  21.167  0.00  0.00    +0.000 A 
ATOM     10 CL   UNL     1       1.067   2.416  22.320  0.00  0.00    +0.000 Cl
ATOM     11  C   UNL     1       1.668   4.585  20.835  0.00  0.00    +0.000 A 
ATOM     12  C   UNL     1       2.427   5.281  19.887  0.00  0.00    +0.000 A 
ENDBRANCH   3   6
BRANCH   1  13
ATOM     13  C   UNL     1       7.247   5.307  16.044  0.00  0.00    +0.000 C 
BRANCH  13  14
ATOM     14  C   UNL     1       7.028   4.782  14.636  0.00  0.00    +0.000 A 
ATOM     15  C   UNL     1       7.817   5.211  13.552  0.00  0.00    +0.000 A 
ATOM     16  C   UNL     1       7.536   4.788  12.252  0.00  0.00    +0.000 A 
ATOM     17  C   UNL     1       6.473   3.921  12.013  0.00  0.00    +0.000 A 
ATOM     18  C   UNL     1       5.706   3.459  13.079  0.00  0.00    +0.000 A 
ATOM     19  C   UNL     1       5.985   3.878  14.381  0.00  0.00    +0.000 A 
ENDBRANCH  13  14
BRANCH  13  20
ATOM     20  O   UNL     1       8.015   4.375  16.816  0.00  0.00    +0.000 OA
ATOM     21  H   UNL     1       7.586   3.512  16.689  0.00  0.00    +0.000 HD
ENDBRANCH  13  20
ENDBRANCH   1  13
TORSDOF 4
ENDMDL
