MODEL 1
REMARK VINA RESULT:      -7.6      0.000      0.000
REMARK  Name = 
REMARK  3 active torsions:
REMARK  status: ('A' for Active; 'I' for Inactive)
REMARK    1  A    between atoms: C_2  and  C_3
REMARK    2  A    between atoms: C_3  and  O_4
REMARK    3  A    between atoms: O_4  and  C_5
REMARK                            x       y       z     vdW  Elec       q    Type
REMARK                         _______ _______ _______ _____ _____    ______ ____
ROOT
ATOM      1  O   UNL     1       6.465   7.778  17.041  0.00  0.00    +0.000 OA
ATOM      2  C   UNL     1       6.143   6.598  17.187  0.00  0.00    +0.000 C 
ATOM      3  N   UNL     1       4.882   6.246  17.607  0.00  0.00    +0.000 N 
ATOM      4  C   UNL     1       4.346   4.909  17.816  0.00  0.00    +0.000 C 
ATOM      5  C   UNL     1       2.830   5.124  17.804  0.00  0.00    +0.000 C 
ATOM      6  C   UNL     1       2.020   4.018  18.466  0.00  0.00    +0.000 C 
ATOM      7  C   UNL     1       2.121   4.064  19.986  0.00  0.00    +0.000 C 
ATOM      8  C   UNL     1       1.836   5.468  20.509  0.00  0.00    +0.000 C 
ATOM      9  N   UNL     1       2.749   6.456  19.939  0.00  0.00    +0.000 NA
ATOM     10  C   UNL     1       2.670   6.504  18.469  0.00  0.00    +0.000 C 
ATOM     11  C   UNL     1       3.872   7.267  17.878  0.00  0.00    +0.000 C 
ATOM     12  H   UNL     1       3.707   6.247  20.224  0.00  0.00    +0.000 HD
ENDROOT
BRANCH   2  13
ATOM     13  C   UNL     1       7.136   5.483  16.855  0.00  0.00    +0.000 C 
BRANCH  13  14
ATOM     14  O   UNL     1       7.621   5.609  15.526  0.00  0.00    +0.000 OA
BRANCH  14  15
ATOM     15  C   UNL     1       6.979   4.873  14.561  0.00  0.00    +0.000 A 
ATOM     16  C   UNL     1       5.850   4.078  14.794  0.00  0.00    +0.000 A 
ATOM     17  C   UNL     1       5.265   3.354  13.752  0.00  0.00    +0.000 A 
ATOM     18  C   UNL     1       5.796   3.426  12.467  0.00  0.00    +0.000 A 
ATOM     19 CL   UNL     1       5.081   2.515  11.196  0.00  0.00    +0.000 Cl
ATOM     20  C   UNL     1       6.904   4.227  12.209  0.00  0.00    +0.000 A 
ATOM     21  C   UNL     1       7.489   4.950  13.253  0.00  0.00    +0.000 A 
ATOM     22 CL   UNL     1       8.866   5.928  12.883  0.00  0.00    +0.000 Cl
ENDBRANCH  14  15
ENDBRANCH  13  14
ENDBRANCH   2  13
TORSDOF 3
ENDMDL
MODEL 2
REMARK VINA RESULT:      -7.6      1.438      2.003
REMARK  Name = 
REMARK  3 active torsions:
REMARK  status: ('A' for Active; 'I' for Inactive)
REMARK    1  A    between atoms: C_2  and  C_3
REMARK    2  A    between atoms: C_3  and  O_4
REMARK    3  A    between atoms: O_4  and  C_5
REMARK                            x       y       z     vdW  Elec       q    Type
REMARK                         _______ _______ _______ _____ _____    ______ ____
ROOT
ATOM      1  O   UNL     1       7.777   4.476  18.132  0.00  0.00    +0.000 OA
ATOM      2  C   UNL     1       6.773   5.046  17.701  0.00  0.00    +0.000 C 
ATOM      3  N   UNL     1       5.524   4.777  18.206  0.00  0.00    +0.000 N 
ATOM      4  C   UNL     1       4.252   5.368  17.817  0.00  0.00    +0.000 C 
ATOM      5  C   UNL     1       3.334   5.056  19.002  0.00  0.00    +0.000 C 
ATOM      6  C   UNL     1       1.844   5.117  18.692  0.00  0.00    +0.000 C 
ATOM      7  C   UNL     1       1.377   3.917  17.879  0.00  0.00    +0.000 C 
ATOM      8  C   UNL     1       1.847   2.612  18.513  0.00  0.00    +0.000 C 
ATOM      9  N   UNL     1       3.301   2.564  18.645  0.00  0.00    +0.000 NA
ATOM     10  C   UNL     1       3.822   3.671  19.465  0.00  0.00    +0.000 C 
ATOM     11  C   UNL     1       5.348   3.814  19.290  0.00  0.00    +0.000 C 
ATOM     12  H   UNL     1       3.734   2.589  17.720  0.00  0.00    +0.000 HD
ENDROOT
BRANCH   2  13
ATOM     13  C   UNL     1       6.903   6.113  16.612  0.00  0.00    +0.000 C 
BRANCH  13  14
ATOM     14  O   UNL     1       7.674   5.637  15.518  0.00  0.00    +0.000 OA
BRANCH  14  15
ATOM     15  C   UNL     1       7.011   4.905  14.565  0.00  0.00    +0.000 A 
ATOM     16  C   UNL     1       5.865   4.139  14.813  0.00  0.00    +0.000 A 
ATOM     17  C   UNL     1       5.257   3.417  13.782  0.00  0.00    +0.000 A 
ATOM     18  C   UNL     1       5.783   3.463  12.493  0.00  0.00    +0.000 A 
ATOM     19 CL   UNL     1       5.040   2.554  11.237  0.00  0.00    +0.000 Cl
ATOM     20  C   UNL     1       6.907   4.235  12.220  0.00  0.00    +0.000 A 
ATOM     21  C   UNL     1       7.514   4.957  13.253  0.00  0.00    +0.000 A 
ATOM     22 CL   UNL     1       8.912   5.898  12.865  0.00  0.00    +0.000 Cl
ENDBRANCH  14  15
ENDBRANCH  13  14
ENDBRANCH   2  13
TORSDOF 3
ENDMDL
MODEL 3
REMARK VINA RESULT:      -7.1      4.739      6.853
REMARK  Name = 
REMARK  3 active torsions:
REMARK  status: ('A' for Active; 'I' for Inactive)
REMARK    1  A    between atoms: C_2  and  C_3
REMARK    2  A    between atoms: C_3  and  O_4
REMARK    3  A    between atoms: O_4  and  C_5
REMARK                            x       y       z     vdW  Elec       q    Type
REMARK                         _______ _______ _______ _____ _____    ______ ____
ROOT
ATOM      1  O   UNL     1       7.161   8.156  16.830  0.00  0.00    +0.000 OA
ATOM      2  C   UNL     1       7.874   8.189  17.835  0.00  0.00    +0.000 C 
ATOM      3  N   UNL     1       8.487   9.350  18.241  0.00  0.00    +0.000 N 
ATOM      4  C   UNL     1       9.343   9.556  19.400  0.00  0.00    +0.000 C 
ATOM      5  C   UNL     1       9.321  11.074  19.597  0.00  0.00    +0.000 C 
ATOM      6  C   UNL     1      10.481  11.631  20.412  0.00  0.00    +0.000 C 
ATOM      7  C   UNL     1      11.783  11.647  19.622  0.00  0.00    +0.000 C 
ATOM      8  C   UNL     1      11.585  12.301  18.258  0.00  0.00    +0.000 C 
ATOM      9  N   UNL     1      10.557  11.621  17.473  0.00  0.00    +0.000 NA
ATOM     10  C   UNL     1       9.252  11.611  18.156  0.00  0.00    +0.000 C 
ATOM     11  C   UNL     1       8.295  10.595  17.500  0.00  0.00    +0.000 C 
ATOM     12  H   UNL     1      10.849  10.662  17.277  0.00  0.00    +0.000 HD
ENDROOT
BRANCH   2  13
ATOM     13  C   UNL     1       8.057   6.933  18.689  0.00  0.00    +0.000 C 
BRANCH  13  14
ATOM     14  O   UNL     1       7.879   5.757  17.914  0.00  0.00    +0.000 OA
BRANCH  14  15
ATOM     15  C   UNL     1       6.632   5.183  17.935  0.00  0.00    +0.000 A 
ATOM     16  C   UNL     1       5.821   5.102  19.074  0.00  0.00    +0.000 A 
ATOM     17  C   UNL     1       4.565   4.491  19.008  0.00  0.00    +0.000 A 
ATOM     18  C   UNL     1       4.106   3.968  17.802  0.00  0.00    +0.000 A 
ATOM     19 CL   UNL     1       2.568   3.201  17.736  0.00  0.00    +0.000 Cl
ATOM     20  C   UNL     1       4.886   4.058  16.655  0.00  0.00    +0.000 A 
ATOM     21  C   UNL     1       6.143   4.668  16.722  0.00  0.00    +0.000 A 
ATOM     22 CL   UNL     1       7.078   4.751  15.270  0.00  0.00    +0.000 Cl
ENDBRANCH  14  15
ENDBRANCH  13  14
ENDBRANCH   2  13
TORSDOF 3
ENDMDL
MODEL 4
REMARK VINA RESULT:      -7.0      5.643      8.559
REMARK  Name = 
REMARK  3 active torsions:
REMARK  status: ('A' for Active; 'I' for Inactive)
REMARK    1  A    between atoms: C_2  and  C_3
REMARK    2  A    between atoms: C_3  and  O_4
REMARK    3  A    between atoms: O_4  and  C_5
REMARK                            x       y       z     vdW  Elec       q    Type
REMARK                         _______ _______ _______ _____ _____    ______ ____
ROOT
ATOM      1  O   UNL     1       2.120   5.713  20.587  0.00  0.00    +0.000 OA
ATOM      2  C   UNL     1       2.586   6.338  19.632  0.00  0.00    +0.000 C 
ATOM      3  N   UNL     1       3.485   5.761  18.768  0.00  0.00    +0.000 N 
ATOM      4  C   UNL     1       4.113   6.355  17.598  0.00  0.00    +0.000 C 
ATOM      5  C   UNL     1       4.604   5.144  16.800  0.00  0.00    +0.000 C 
ATOM      6  C   UNL     1       5.703   5.444  15.790  0.00  0.00    +0.000 C 
ATOM      7  C   UNL     1       7.050   5.682  16.460  0.00  0.00    +0.000 C 
ATOM      8  C   UNL     1       7.374   4.563  17.446  0.00  0.00    +0.000 C 
ATOM      9  N   UNL     1       6.344   4.431  18.474  0.00  0.00    +0.000 NA
ATOM     10  C   UNL     1       5.017   4.148  17.899  0.00  0.00    +0.000 C 
ATOM     11  C   UNL     1       3.906   4.373  18.945  0.00  0.00    +0.000 C 
ATOM     12  H   UNL     1       6.301   5.284  19.034  0.00  0.00    +0.000 HD
ENDROOT
BRANCH   2  13
ATOM     13  C   UNL     1       2.131   7.773  19.358  0.00  0.00    +0.000 C 
BRANCH  13  14
ATOM     14  O   UNL     1       1.562   8.360  20.519  0.00  0.00    +0.000 OA
BRANCH  14  15
ATOM     15  C   UNL     1       0.699   9.410  20.322  0.00  0.00    +0.000 A 
ATOM     16  C   UNL     1       0.325   9.899  19.065  0.00  0.00    +0.000 A 
ATOM     17  C   UNL     1      -0.555  10.981  18.957  0.00  0.00    +0.000 A 
ATOM     18  C   UNL     1      -1.076  11.573  20.104  0.00  0.00    +0.000 A 
ATOM     19 CL   UNL     1      -2.141  12.916  19.962  0.00  0.00    +0.000 Cl
ATOM     20  C   UNL     1      -0.735  11.088  21.362  0.00  0.00    +0.000 A 
ATOM     21  C   UNL     1       0.146  10.007  21.469  0.00  0.00    +0.000 A 
ATOM     22 CL   UNL     1       0.543   9.444  23.054  0.00  0.00    +0.000 Cl
ENDBRANCH  14  15
ENDBRANCH  13  14
ENDBRANCH   2  13
TORSDOF 3
ENDMDL
MODEL 5
REMARK VINA RESULT:      -6.9      4.744      7.795
REMARK  Name = 
REMARK  3 active torsions:
REMARK  status: ('A' for Active; 'I' for Inactive)
REMARK    1  A    between atoms: C_2  and  C_3
REMARK    2  A    between atoms: C_3  and  O_4
REMARK    3  A    between atoms: O_4  and  C_5
REMARK                            x       y       z     vdW  Elec       q    Type
REMARK                         _______ _______ _______ _____ _____    ______ ____
ROOT
ATOM      1  O   UNL     1       2.446   3.952  21.515  0.00  0.00    +0.000 OA
ATOM      2  C   UNL     1       2.474   4.698  20.534  0.00  0.00    +0.000 C 
ATOM      3  N   UNL     1       3.338   4.477  19.489  0.00  0.00    +0.000 N 
ATOM      4  C   UNL     1       3.485   5.252  18.266  0.00  0.00    +0.000 C 
ATOM      5  C   UNL     1       4.210   4.292  17.318  0.00  0.00    +0.000 C 
ATOM      6  C   UNL     1       4.922   4.961  16.150  0.00  0.00    +0.000 C 
ATOM      7  C   UNL     1       6.202   5.665  16.585  0.00  0.00    +0.000 C 
ATOM      8  C   UNL     1       7.076   4.737  17.423  0.00  0.00    +0.000 C 
ATOM      9  N   UNL     1       6.372   4.250  18.607  0.00  0.00    +0.000 NA
ATOM     10  C   UNL     1       5.145   3.512  18.260  0.00  0.00    +0.000 C 
ATOM     11  C   UNL     1       4.244   3.330  19.498  0.00  0.00    +0.000 C 
ATOM     12  H   UNL     1       6.140   5.033  19.219  0.00  0.00    +0.000 HD
ENDROOT
BRANCH   2  13
ATOM     13  C   UNL     1       1.503   5.876  20.438  0.00  0.00    +0.000 C 
BRANCH  13  14
ATOM     14  O   UNL     1       2.202   7.109  20.338  0.00  0.00    +0.000 OA
BRANCH  14  15
ATOM     15  C   UNL     1       1.449   8.255  20.402  0.00  0.00    +0.000 A 
ATOM     16  C   UNL     1       0.768   8.688  21.546  0.00  0.00    +0.000 A 
ATOM     17  C   UNL     1       0.016   9.867  21.520  0.00  0.00    +0.000 A 
ATOM     18  C   UNL     1      -0.052  10.626  20.355  0.00  0.00    +0.000 A 
ATOM     19 CL   UNL     1      -0.997  12.062  20.327  0.00  0.00    +0.000 Cl
ATOM     20  C   UNL     1       0.635  10.225  19.214  0.00  0.00    +0.000 A 
ATOM     21  C   UNL     1       1.386   9.046  19.242  0.00  0.00    +0.000 A 
ATOM     22 CL   UNL     1       2.219   8.587  17.797  0.00  0.00    +0.000 Cl
ENDBRANCH  14  15
ENDBRANCH  13  14
ENDBRANCH   2  13
TORSDOF 3
ENDMDL
MODEL 6
REMARK VINA RESULT:      -6.9      5.071      8.262
REMARK  Name = 
REMARK  3 active torsions:
REMARK  status: ('A' for Active; 'I' for Inactive)
REMARK    1  A    between atoms: C_2  and  C_3
REMARK    2  A    between atoms: C_3  and  O_4
REMARK    3  A    between atoms: O_4  and  C_5
REMARK                            x       y       z     vdW  Elec       q    Type
REMARK                         _______ _______ _______ _____ _____    ______ ____
ROOT
ATOM      1  O   UNL     1       1.464   4.210  19.189  0.00  0.00    +0.000 OA
ATOM      2  C   UNL     1       2.249   5.148  19.340  0.00  0.00    +0.000 C 
ATOM      3  N   UNL     1       3.364   5.284  18.547  0.00  0.00    +0.000 N 
ATOM      4  C   UNL     1       4.373   6.331  18.590  0.00  0.00    +0.000 C 
ATOM      5  C   UNL     1       5.056   6.228  17.223  0.00  0.00    +0.000 C 
ATOM      6  C   UNL     1       6.442   6.854  17.151  0.00  0.00    +0.000 C 
ATOM      7  C   UNL     1       7.493   6.006  17.857  0.00  0.00    +0.000 C 
ATOM      8  C   UNL     1       7.419   4.553  17.398  0.00  0.00    +0.000 C 
ATOM      9  N   UNL     1       6.099   3.974  17.634  0.00  0.00    +0.000 NA
ATOM     10  C   UNL     1       5.034   4.716  16.937  0.00  0.00    +0.000 C 
ATOM     11  C   UNL     1       3.645   4.325  17.482  0.00  0.00    +0.000 C 
ATOM     12  H   UNL     1       5.904   3.954  18.636  0.00  0.00    +0.000 HD
ENDROOT
BRANCH   2  13
ATOM     13  C   UNL     1       1.972   6.220  20.394  0.00  0.00    +0.000 C 
BRANCH  13  14
ATOM     14  O   UNL     1       1.898   7.511  19.806  0.00  0.00    +0.000 OA
BRANCH  14  15
ATOM     15  C   UNL     1       1.246   8.483  20.523  0.00  0.00    +0.000 A 
ATOM     16  C   UNL     1       1.084   8.462  21.914  0.00  0.00    +0.000 A 
ATOM     17  C   UNL     1       0.397   9.492  22.563  0.00  0.00    +0.000 A 
ATOM     18  C   UNL     1      -0.124  10.555  21.829  0.00  0.00    +0.000 A 
ATOM     19 CL   UNL     1      -0.985  11.806  22.635  0.00  0.00    +0.000 Cl
ATOM     20  C   UNL     1       0.045  10.606  20.450  0.00  0.00    +0.000 A 
ATOM     21  C   UNL     1       0.732   9.574  19.801  0.00  0.00    +0.000 A 
ATOM     22 CL   UNL     1       0.912   9.680  18.085  0.00  0.00    +0.000 Cl
ENDBRANCH  14  15
ENDBRANCH  13  14
ENDBRANCH   2  13
TORSDOF 3
ENDMDL
MODEL 7
REMARK VINA RESULT:      -6.8      6.019      8.392
REMARK  Name = 
REMARK  3 active torsions:
REMARK  status: ('A' for Active; 'I' for Inactive)
REMARK    1  A    between atoms: C_2  and  C_3
REMARK    2  A    between atoms: C_3  and  O_4
REMARK    3  A    between atoms: O_4  and  C_5
REMARK                            x       y       z     vdW  Elec       q    Type
REMARK                         _______ _______ _______ _____ _____    ______ ____
ROOT
ATOM      1  O   UNL     1       2.529   8.730  17.926  0.00  0.00    +0.000 OA
ATOM      2  C   UNL     1       2.025   8.225  18.931  0.00  0.00    +0.000 C 
ATOM      3  N   UNL     1       2.241   6.907  19.256  0.00  0.00    +0.000 N 
ATOM      4  C   UNL     1       1.731   6.170  20.402  0.00  0.00    +0.000 C 
ATOM      5  C   UNL     1       2.658   4.954  20.488  0.00  0.00    +0.000 C 
ATOM      6  C   UNL     1       2.096   3.774  21.269  0.00  0.00    +0.000 C 
ATOM      7  C   UNL     1       1.019   3.030  20.489  0.00  0.00    +0.000 C 
ATOM      8  C   UNL     1       1.497   2.698  19.079  0.00  0.00    +0.000 C 
ATOM      9  N   UNL     1       1.882   3.897  18.339  0.00  0.00    +0.000 NA
ATOM     10  C   UNL     1       2.960   4.643  19.011  0.00  0.00    +0.000 C 
ATOM     11  C   UNL     1       3.095   6.063  18.424  0.00  0.00    +0.000 C 
ATOM     12  H   UNL     1       1.070   4.503  18.215  0.00  0.00    +0.000 HD
ENDROOT
BRANCH   2  13
ATOM     13  C   UNL     1       1.176   9.077  19.876  0.00  0.00    +0.000 C 
BRANCH  13  14
ATOM     14  O   UNL     1       0.938  10.366  19.329  0.00  0.00    +0.000 OA
BRANCH  14  15
ATOM     15  C   UNL     1      -0.321  10.608  18.839  0.00  0.00    +0.000 A 
ATOM     16  C   UNL     1      -0.888   9.934  17.750  0.00  0.00    +0.000 A 
ATOM     17  C   UNL     1      -2.177  10.252  17.312  0.00  0.00    +0.000 A 
ATOM     18  C   UNL     1      -2.913  11.237  17.964  0.00  0.00    +0.000 A 
ATOM     19 CL   UNL     1      -4.489  11.634  17.404  0.00  0.00    +0.000 Cl
ATOM     20  C   UNL     1      -2.378  11.903  19.061  0.00  0.00    +0.000 A 
ATOM     21  C   UNL     1      -1.088  11.585  19.498  0.00  0.00    +0.000 A 
ATOM     22 CL   UNL     1      -0.465  12.444  20.864  0.00  0.00    +0.000 Cl
ENDBRANCH  14  15
ENDBRANCH  13  14
ENDBRANCH   2  13
TORSDOF 3
ENDMDL
MODEL 8
REMARK VINA RESULT:      -6.8      4.976      7.789
REMARK  Name = 
REMARK  3 active torsions:
REMARK  status: ('A' for Active; 'I' for Inactive)
REMARK    1  A    between atoms: C_2  and  C_3
REMARK    2  A    between atoms: C_3  and  O_4
REMARK    3  A    between atoms: O_4  and  C_5
REMARK                            x       y       z     vdW  Elec       q    Type
REMARK                         _______ _______ _______ _____ _____    ______ ____
ROOT
ATOM      1  O   UNL     1       2.228   4.095  21.494  0.00  0.00    +0.000 OA
ATOM      2  C   UNL     1       2.311   4.841  20.517  0.00  0.00    +0.000 C 
ATOM      3  N   UNL     1       3.203   4.595  19.500  0.00  0.00    +0.000 N 
ATOM      4  C   UNL     1       3.414   5.366  18.285  0.00  0.00    +0.000 C 
ATOM      5  C   UNL     1       4.141   4.387  17.360  0.00  0.00    +0.000 C 
ATOM      6  C   UNL     1       4.912   5.035  16.217  0.00  0.00    +0.000 C 
ATOM      7  C   UNL     1       6.196   5.700  16.696  0.00  0.00    +0.000 C 
ATOM      8  C   UNL     1       7.014   4.747  17.563  0.00  0.00    +0.000 C 
ATOM      9  N   UNL     1       6.256   4.280  18.721  0.00  0.00    +0.000 NA
ATOM     10  C   UNL     1       5.020   3.579  18.331  0.00  0.00    +0.000 C 
ATOM     11  C   UNL     1       4.073   3.422  19.538  0.00  0.00    +0.000 C 
ATOM     12  H   UNL     1       6.027   5.069  19.326  0.00  0.00    +0.000 HD
ENDROOT
BRANCH   2  13
ATOM     13  C   UNL     1       1.379   6.048  20.389  0.00  0.00    +0.000 C 
BRANCH  13  14
ATOM     14  O   UNL     1       2.051   7.252  20.728  0.00  0.00    +0.000 OA
BRANCH  14  15
ATOM     15  C   UNL     1       1.603   8.402  20.126  0.00  0.00    +0.000 A 
ATOM     16  C   UNL     1       1.731   8.679  18.760  0.00  0.00    +0.000 A 
ATOM     17  C   UNL     1       1.253   9.882  18.232  0.00  0.00    +0.000 A 
ATOM     18  C   UNL     1       0.634  10.812  19.063  0.00  0.00    +0.000 A 
ATOM     19 CL   UNL     1       0.068  12.297  18.408  0.00  0.00    +0.000 Cl
ATOM     20  C   UNL     1       0.477  10.547  20.419  0.00  0.00    +0.000 A 
ATOM     21  C   UNL     1       0.957   9.343  20.946  0.00  0.00    +0.000 A 
ATOM     22 CL   UNL     1       0.742   9.062  22.639  0.00  0.00    +0.000 Cl
ENDBRANCH  14  15
ENDBRANCH  13  14
ENDBRANCH   2  13
TORSDOF 3
ENDMDL
MODEL 9
REMARK VINA RESULT:      -6.8      5.043      7.730
REMARK  Name = 
REMARK  3 active torsions:
REMARK  status: ('A' for Active; 'I' for Inactive)
REMARK    1  A    between atoms: C_2  and  C_3
REMARK    2  A    between atoms: C_3  and  O_4
REMARK    3  A    between atoms: O_4  and  C_5
REMARK                            x       y       z     vdW  Elec       q    Type
REMARK                         _______ _______ _______ _____ _____    ______ ____
ROOT
ATOM      1  O   UNL     1       4.457   7.633  17.524  0.00  0.00    +0.000 OA
ATOM      2  C   UNL     1       3.422   7.094  17.920  0.00  0.00    +0.000 C 
ATOM      3  N   UNL     1       3.439   5.849  18.501  0.00  0.00    +0.000 N 
ATOM      4  C   UNL     1       2.316   5.088  19.026  0.00  0.00    +0.000 C 
ATOM      5  C   UNL     1       2.978   4.055  19.942  0.00  0.00    +0.000 C 
ATOM      6  C   UNL     1       2.125   2.831  20.250  0.00  0.00    +0.000 C 
ATOM      7  C   UNL     1       2.037   1.879  19.064  0.00  0.00    +0.000 C 
ATOM      8  C   UNL     1       3.424   1.571  18.508  0.00  0.00    +0.000 C 
ATOM      9  N   UNL     1       4.126   2.784  18.097  0.00  0.00    +0.000 NA
ATOM     10  C   UNL     1       4.294   3.734  19.209  0.00  0.00    +0.000 C 
ATOM     11  C   UNL     1       4.696   5.128  18.686  0.00  0.00    +0.000 C 
ATOM     12  H   UNL     1       3.620   3.235  17.333  0.00  0.00    +0.000 HD
ENDROOT
BRANCH   2  13
ATOM     13  C   UNL     1       2.084   7.828  17.813  0.00  0.00    +0.000 C 
BRANCH  13  14
ATOM     14  O   UNL     1       2.164   9.123  18.393  0.00  0.00    +0.000 OA
BRANCH  14  15
ATOM     15  C   UNL     1       1.457   9.327  19.552  0.00  0.00    +0.000 A 
ATOM     16  C   UNL     1       1.277   8.359  20.548  0.00  0.00    +0.000 A 
ATOM     17  C   UNL     1       0.533   8.651  21.695  0.00  0.00    +0.000 A 
ATOM     18  C   UNL     1      -0.027   9.915  21.861  0.00  0.00    +0.000 A 
ATOM     19 CL   UNL     1      -0.958  10.257  23.266  0.00  0.00    +0.000 Cl
ATOM     20  C   UNL     1       0.157  10.897  20.894  0.00  0.00    +0.000 A 
ATOM     21  C   UNL     1       0.901  10.604  19.747  0.00  0.00    +0.000 A 
ATOM     22 CL   UNL     1       1.099  11.857  18.572  0.00  0.00    +0.000 Cl
ENDBRANCH  14  15
ENDBRANCH  13  14
ENDBRANCH   2  13
TORSDOF 3
ENDMDL
