MODEL 1
REMARK VINA RESULT:      -8.9      0.000      0.000
REMARK  Name = 
REMARK  7 active torsions:
REMARK  status: ('A' for Active; 'I' for Inactive)
REMARK    1  A    between atoms: C_1  and  C_2
REMARK    2  A    between atoms: C_5  and  C_6
REMARK    3  A    between atoms: N_8  and  N_9
REMARK    4  A    between atoms: C_15  and  S_16
REMARK    5  A    between atoms: S_16  and  C_19
REMARK    6  A    between atoms: C_22  and  C_23
REMARK    7  A    between atoms: C_23  and  O_25
REMARK                            x       y       z     vdW  Elec       q    Type
REMARK                         _______ _______ _______ _____ _____    ______ ____
ROOT
ATOM      1  N   UNL     1       0.648   9.925  19.692  0.00  0.00    +0.000 N 
ATOM      2  C   UNL     1       0.819   9.184  20.847  0.00  0.00    +0.000 C 
ATOM      3  O   UNL     1       0.235   9.258  21.914  0.00  0.00    +0.000 OA
ATOM      4  C   UNL     1       1.664   8.041  20.491  0.00  0.00    +0.000 A 
ATOM      5  C   UNL     1       1.860   6.865  21.194  0.00  0.00    +0.000 A 
ATOM      6  C   UNL     1       2.278   5.745  20.466  0.00  0.00    +0.000 A 
ATOM      7  C   UNL     1       2.478   5.833  19.067  0.00  0.00    +0.000 A 
ATOM      8  C   UNL     1       2.340   7.051  18.388  0.00  0.00    +0.000 A 
ATOM      9  C   UNL     1       1.949   8.144  19.142  0.00  0.00    +0.000 A 
ATOM     10  C   UNL     1       1.439   9.429  18.675  0.00  0.00    +0.000 C 
ATOM     11  O   UNL     1       1.669   9.861  17.561  0.00  0.00    +0.000 OA
ENDROOT
BRANCH   1  14
ATOM     12  C   UNL     1      -1.320  11.355  19.670  0.00  0.00    +0.000 C 
ATOM     13  O   UNL     1      -0.867  12.175  20.451  0.00  0.00    +0.000 OA
ATOM     14  N   UNL     1      -0.712  10.163  19.344  0.00  0.00    +0.000 N 
ATOM     15  H   UNL     1      -1.032   9.651  18.530  0.00  0.00    +0.000 HD
BRANCH  12  20
ATOM     16  C   UNL     1      -6.454  12.262  17.093  0.00  0.00    +0.000 C 
ATOM     17  C   UNL     1      -5.107  12.074  17.732  0.00  0.00    +0.000 A 
ATOM     18  C   UNL     1      -4.880  12.473  19.054  0.00  0.00    +0.000 A 
ATOM     19  C   UNL     1      -3.640  12.243  19.662  0.00  0.00    +0.000 A 
ATOM     20  C   UNL     1      -2.609  11.618  18.953  0.00  0.00    +0.000 A 
ATOM     21  C   UNL     1      -2.824  11.238  17.621  0.00  0.00    +0.000 A 
ATOM     22  C   UNL     1      -4.067  11.467  17.016  0.00  0.00    +0.000 A 
ENDBRANCH  12  20
ENDBRANCH   1  14
BRANCH   7  23
ATOM     23  S   UNL     1       2.593   4.316  18.122  0.00  0.00    +0.000 S 
ATOM     24  O   UNL     1       2.953   3.269  19.060  0.00  0.00    +0.000 OA
ATOM     25  O   UNL     1       1.371   4.211  17.350  0.00  0.00    +0.000 OA
BRANCH  23  26
ATOM     26  C   UNL     1       3.943   4.485  16.982  0.00  0.00    +0.000 A 
ATOM     27  C   UNL     1       4.525   3.336  16.437  0.00  0.00    +0.000 A 
ATOM     28  C   UNL     1       5.559   3.464  15.505  0.00  0.00    +0.000 A 
ATOM     29  C   UNL     1       6.007   4.737  15.125  0.00  0.00    +0.000 A 
ATOM     30  C   UNL     1       5.384   5.880  15.642  0.00  0.00    +0.000 A 
ATOM     31  C   UNL     1       4.351   5.757  16.577  0.00  0.00    +0.000 A 
BRANCH  29  32
ATOM     32  C   UNL     1       7.099   4.931  14.135  0.00  0.00    +0.000 C 
ATOM     33  O   UNL     1       8.060   5.649  14.347  0.00  0.00    +0.000 OA
BRANCH  32  34
ATOM     34  O   UNL     1       6.960   4.198  13.012  0.00  0.00    +0.000 OA
ATOM     35  H   UNL     1       7.717   3.633  12.777  0.00  0.00    +0.000 HD
ENDBRANCH  32  34
ENDBRANCH  29  32
ENDBRANCH  23  26
ENDBRANCH   7  23
TORSDOF 6
ENDMDL
MODEL 2
REMARK VINA RESULT:      -8.7      1.145      1.387
REMARK  Name = 
REMARK  7 active torsions:
REMARK  status: ('A' for Active; 'I' for Inactive)
REMARK    1  A    between atoms: C_1  and  C_2
REMARK    2  A    between atoms: C_5  and  C_6
REMARK    3  A    between atoms: N_8  and  N_9
REMARK    4  A    between atoms: C_15  and  S_16
REMARK    5  A    between atoms: S_16  and  C_19
REMARK    6  A    between atoms: C_22  and  C_23
REMARK    7  A    between atoms: C_23  and  O_25
REMARK                            x       y       z     vdW  Elec       q    Type
REMARK                         _______ _______ _______ _____ _____    ______ ____
ROOT
ATOM      1  N   UNL     1       1.378   8.991  19.499  0.00  0.00    +0.000 N 
ATOM      2  C   UNL     1       1.456   8.102  20.556  0.00  0.00    +0.000 C 
ATOM      3  O   UNL     1       0.780   8.031  21.568  0.00  0.00    +0.000 OA
ATOM      4  C   UNL     1       2.344   7.018  20.127  0.00  0.00    +0.000 A 
ATOM      5  C   UNL     1       2.492   5.758  20.682  0.00  0.00    +0.000 A 
ATOM      6  C   UNL     1       2.987   4.746  19.851  0.00  0.00    +0.000 A 
ATOM      7  C   UNL     1       3.308   5.021  18.500  0.00  0.00    +0.000 A 
ATOM      8  C   UNL     1       3.215   6.319  17.979  0.00  0.00    +0.000 A 
ATOM      9  C   UNL     1       2.745   7.300  18.835  0.00  0.00    +0.000 A 
ATOM     10  C   UNL     1       2.262   8.637  18.500  0.00  0.00    +0.000 C 
ATOM     11  O   UNL     1       2.583   9.214  17.479  0.00  0.00    +0.000 OA
ENDROOT
BRANCH   1  14
ATOM     12  C   UNL     1      -0.614  10.388  19.526  0.00  0.00    +0.000 C 
ATOM     13  O   UNL     1      -0.255  11.070  20.471  0.00  0.00    +0.000 OA
ATOM     14  N   UNL     1       0.051   9.272  19.067  0.00  0.00    +0.000 N 
ATOM     15  H   UNL     1      -0.180   8.900  18.153  0.00  0.00    +0.000 HD
BRANCH  12  20
ATOM     16  C   UNL     1      -5.506  11.786  16.709  0.00  0.00    +0.000 C 
ATOM     17  C   UNL     1      -4.213  11.458  17.400  0.00  0.00    +0.000 A 
ATOM     18  C   UNL     1      -3.857  12.094  18.595  0.00  0.00    +0.000 A 
ATOM     19  C   UNL     1      -2.679  11.743  19.263  0.00  0.00    +0.000 A 
ATOM     20  C   UNL     1      -1.836  10.756  18.742  0.00  0.00    +0.000 A 
ATOM     21  C   UNL     1      -2.176  10.133  17.533  0.00  0.00    +0.000 A 
ATOM     22  C   UNL     1      -3.357  10.485  16.868  0.00  0.00    +0.000 A 
ENDBRANCH  12  20
ENDBRANCH   1  14
BRANCH   7  23
ATOM     23  S   UNL     1       3.525   3.644  17.375  0.00  0.00    +0.000 S 
ATOM     24  O   UNL     1       4.076   2.553  18.156  0.00  0.00    +0.000 OA
ATOM     25  O   UNL     1       2.267   3.475  16.674  0.00  0.00    +0.000 OA
BRANCH  23  26
ATOM     26  C   UNL     1       4.754   4.106  16.179  0.00  0.00    +0.000 A 
ATOM     27  C   UNL     1       6.031   4.470  16.619  0.00  0.00    +0.000 A 
ATOM     28  C   UNL     1       7.016   4.792  15.680  0.00  0.00    +0.000 A 
ATOM     29  C   UNL     1       6.719   4.753  14.311  0.00  0.00    +0.000 A 
ATOM     30  C   UNL     1       5.450   4.341  13.883  0.00  0.00    +0.000 A 
ATOM     31  C   UNL     1       4.461   4.021  14.817  0.00  0.00    +0.000 A 
BRANCH  29  32
ATOM     32  C   UNL     1       7.728   5.082  13.270  0.00  0.00    +0.000 C 
ATOM     33  O   UNL     1       8.668   5.829  13.476  0.00  0.00    +0.000 OA
BRANCH  32  34
ATOM     34  O   UNL     1       7.543   4.435  12.101  0.00  0.00    +0.000 OA
ATOM     35  H   UNL     1       6.627   4.170  11.904  0.00  0.00    +0.000 HD
ENDBRANCH  32  34
ENDBRANCH  29  32
ENDBRANCH  23  26
ENDBRANCH   7  23
TORSDOF 6
ENDMDL
MODEL 3
REMARK VINA RESULT:      -8.5      1.157      1.470
REMARK  Name = 
REMARK  7 active torsions:
REMARK  status: ('A' for Active; 'I' for Inactive)
REMARK    1  A    between atoms: C_1  and  C_2
REMARK    2  A    between atoms: C_5  and  C_6
REMARK    3  A    between atoms: N_8  and  N_9
REMARK    4  A    between atoms: C_15  and  S_16
REMARK    5  A    between atoms: S_16  and  C_19
REMARK    6  A    between atoms: C_22  and  C_23
REMARK    7  A    between atoms: C_23  and  O_25
REMARK                            x       y       z     vdW  Elec       q    Type
REMARK                         _______ _______ _______ _____ _____    ______ ____
ROOT
ATOM      1  N   UNL     1       1.454   8.969  19.421  0.00  0.00    +0.000 N 
ATOM      2  C   UNL     1       1.570   8.101  20.491  0.00  0.00    +0.000 C 
ATOM      3  O   UNL     1       0.935   8.056  21.531  0.00  0.00    +0.000 OA
ATOM      4  C   UNL     1       2.432   7.002  20.049  0.00  0.00    +0.000 A 
ATOM      5  C   UNL     1       2.595   5.753  20.623  0.00  0.00    +0.000 A 
ATOM      6  C   UNL     1       3.049   4.721  19.794  0.00  0.00    +0.000 A 
ATOM      7  C   UNL     1       3.317   4.966  18.425  0.00  0.00    +0.000 A 
ATOM      8  C   UNL     1       3.211   6.254  17.883  0.00  0.00    +0.000 A 
ATOM      9  C   UNL     1       2.782   7.256  18.736  0.00  0.00    +0.000 A 
ATOM     10  C   UNL     1       2.294   8.588  18.394  0.00  0.00    +0.000 C 
ATOM     11  O   UNL     1       2.577   9.142  17.349  0.00  0.00    +0.000 OA
ENDROOT
BRANCH   1  14
ATOM     12  C   UNL     1      -0.506  10.411  19.449  0.00  0.00    +0.000 C 
ATOM     13  O   UNL     1      -0.085  11.148  20.325  0.00  0.00    +0.000 OA
ATOM     14  N   UNL     1       0.112   9.251  19.037  0.00  0.00    +0.000 N 
ATOM     15  H   UNL     1      -0.173   8.822  18.164  0.00  0.00    +0.000 HD
BRANCH  12  20
ATOM     16  C   UNL     1      -5.513  11.694  16.784  0.00  0.00    +0.000 C 
ATOM     17  C   UNL     1      -4.192  11.398  17.436  0.00  0.00    +0.000 A 
ATOM     18  C   UNL     1      -3.834  12.014  18.641  0.00  0.00    +0.000 A 
ATOM     19  C   UNL     1      -2.627  11.691  19.272  0.00  0.00    +0.000 A 
ATOM     20  C   UNL     1      -1.760  10.753  18.704  0.00  0.00    +0.000 A 
ATOM     21  C   UNL     1      -2.103  10.150  17.485  0.00  0.00    +0.000 A 
ATOM     22  C   UNL     1      -3.312  10.474  16.857  0.00  0.00    +0.000 A 
ENDBRANCH  12  20
ENDBRANCH   1  14
BRANCH   7  23
ATOM     23  S   UNL     1       3.479   3.565  17.321  0.00  0.00    +0.000 S 
ATOM     24  O   UNL     1       3.999   2.469  18.116  0.00  0.00    +0.000 OA
ATOM     25  O   UNL     1       2.211   3.427  16.632  0.00  0.00    +0.000 OA
BRANCH  23  26
ATOM     26  C   UNL     1       4.714   3.966  16.111  0.00  0.00    +0.000 A 
ATOM     27  C   UNL     1       4.436   3.757  14.756  0.00  0.00    +0.000 A 
ATOM     28  C   UNL     1       5.387   4.112  13.795  0.00  0.00    +0.000 A 
ATOM     29  C   UNL     1       6.610   4.670  14.192  0.00  0.00    +0.000 A 
ATOM     30  C   UNL     1       6.857   4.919  15.548  0.00  0.00    +0.000 A 
ATOM     31  C   UNL     1       5.911   4.563  16.513  0.00  0.00    +0.000 A 
BRANCH  29  32
ATOM     32  C   UNL     1       7.655   5.070  13.212  0.00  0.00    +0.000 C 
ATOM     33  O   UNL     1       7.617   4.745  12.039  0.00  0.00    +0.000 OA
BRANCH  32  34
ATOM     34  O   UNL     1       8.612   5.868  13.726  0.00  0.00    +0.000 OA
ATOM     35  H   UNL     1       8.305   6.556  14.343  0.00  0.00    +0.000 HD
ENDBRANCH  32  34
ENDBRANCH  29  32
ENDBRANCH  23  26
ENDBRANCH   7  23
TORSDOF 6
ENDMDL
MODEL 4
REMARK VINA RESULT:      -8.1      5.538      8.668
REMARK  Name = 
REMARK  7 active torsions:
REMARK  status: ('A' for Active; 'I' for Inactive)
REMARK    1  A    between atoms: C_1  and  C_2
REMARK    2  A    between atoms: C_5  and  C_6
REMARK    3  A    between atoms: N_8  and  N_9
REMARK    4  A    between atoms: C_15  and  S_16
REMARK    5  A    between atoms: S_16  and  C_19
REMARK    6  A    between atoms: C_22  and  C_23
REMARK    7  A    between atoms: C_23  and  O_25
REMARK                            x       y       z     vdW  Elec       q    Type
REMARK                         _______ _______ _______ _____ _____    ______ ____
ROOT
ATOM      1  N   UNL     1       3.808  15.065  19.738  0.00  0.00    +0.000 N 
ATOM      2  C   UNL     1       2.754  15.402  18.908  0.00  0.00    +0.000 C 
ATOM      3  O   UNL     1       2.752  16.047  17.874  0.00  0.00    +0.000 OA
ATOM      4  C   UNL     1       1.612  14.584  19.326  0.00  0.00    +0.000 A 
ATOM      5  C   UNL     1       0.445  14.318  18.631  0.00  0.00    +0.000 A 
ATOM      6  C   UNL     1      -0.254  13.155  18.973  0.00  0.00    +0.000 A 
ATOM      7  C   UNL     1       0.235  12.297  19.987  0.00  0.00    +0.000 A 
ATOM      8  C   UNL     1       1.383  12.622  20.725  0.00  0.00    +0.000 A 
ATOM      9  C   UNL     1       2.036  13.791  20.375  0.00  0.00    +0.000 A 
ATOM     10  C   UNL     1       3.383  14.219  20.742  0.00  0.00    +0.000 C 
ATOM     11  O   UNL     1       3.960  13.798  21.727  0.00  0.00    +0.000 OA
ENDROOT
BRANCH   1  14
ATOM     12  C   UNL     1       6.154  15.375  19.175  0.00  0.00    +0.000 C 
ATOM     13  O   UNL     1       6.233  16.496  19.650  0.00  0.00    +0.000 OA
ATOM     14  N   UNL     1       4.987  14.655  19.054  0.00  0.00    +0.000 N 
ATOM     15  H   UNL     1       5.037  13.661  18.864  0.00  0.00    +0.000 HD
BRANCH  12  20
ATOM     16  C   UNL     1      11.037  12.841  17.290  0.00  0.00    +0.000 C 
ATOM     17  C   UNL     1       9.768  13.452  17.814  0.00  0.00    +0.000 A 
ATOM     18  C   UNL     1       9.807  14.498  18.742  0.00  0.00    +0.000 A 
ATOM     19  C   UNL     1       8.623  15.101  19.183  0.00  0.00    +0.000 A 
ATOM     20  C   UNL     1       7.384  14.661  18.706  0.00  0.00    +0.000 A 
ATOM     21  C   UNL     1       7.339  13.597  17.794  0.00  0.00    +0.000 A 
ATOM     22  C   UNL     1       8.526  12.997  17.353  0.00  0.00    +0.000 A 
ENDBRANCH  12  20
ENDBRANCH   1  14
BRANCH   7  23
ATOM     23  S   UNL     1      -0.434  10.640  20.103  0.00  0.00    +0.000 S 
ATOM     24  O   UNL     1      -0.581  10.350  21.516  0.00  0.00    +0.000 OA
ATOM     25  O   UNL     1      -1.588  10.593  19.226  0.00  0.00    +0.000 OA
BRANCH  23  26
ATOM     26  C   UNL     1       0.781   9.516  19.460  0.00  0.00    +0.000 A 
ATOM     27  C   UNL     1       1.238   8.470  20.268  0.00  0.00    +0.000 A 
ATOM     28  C   UNL     1       2.161   7.555  19.753  0.00  0.00    +0.000 A 
ATOM     29  C   UNL     1       2.624   7.692  18.438  0.00  0.00    +0.000 A 
ATOM     30  C   UNL     1       2.123   8.716  17.624  0.00  0.00    +0.000 A 
ATOM     31  C   UNL     1       1.202   9.635  18.134  0.00  0.00    +0.000 A 
BRANCH  29  32
ATOM     32  C   UNL     1       3.602   6.746  17.838  0.00  0.00    +0.000 C 
ATOM     33  O   UNL     1       4.686   7.102  17.411  0.00  0.00    +0.000 OA
BRANCH  32  34
ATOM     34  O   UNL     1       3.207   5.457  17.863  0.00  0.00    +0.000 OA
ATOM     35  H   UNL     1       2.724   5.177  18.661  0.00  0.00    +0.000 HD
ENDBRANCH  32  34
ENDBRANCH  29  32
ENDBRANCH  23  26
ENDBRANCH   7  23
TORSDOF 6
ENDMDL
MODEL 5
REMARK VINA RESULT:      -8.1      1.607      1.886
REMARK  Name = 
REMARK  7 active torsions:
REMARK  status: ('A' for Active; 'I' for Inactive)
REMARK    1  A    between atoms: C_1  and  C_2
REMARK    2  A    between atoms: C_5  and  C_6
REMARK    3  A    between atoms: N_8  and  N_9
REMARK    4  A    between atoms: C_15  and  S_16
REMARK    5  A    between atoms: S_16  and  C_19
REMARK    6  A    between atoms: C_22  and  C_23
REMARK    7  A    between atoms: C_23  and  O_25
REMARK                            x       y       z     vdW  Elec       q    Type
REMARK                         _______ _______ _______ _____ _____    ______ ____
ROOT
ATOM      1  N   UNL     1       0.643  11.318  19.585  0.00  0.00    +0.000 N 
ATOM      2  C   UNL     1       0.484  10.701  20.813  0.00  0.00    +0.000 C 
ATOM      3  O   UNL     1      -0.263  10.979  21.734  0.00  0.00    +0.000 OA
ATOM      4  C   UNL     1       1.189   9.419  20.732  0.00  0.00    +0.000 A 
ATOM      5  C   UNL     1       1.067   8.317  21.562  0.00  0.00    +0.000 A 
ATOM      6  C   UNL     1       1.428   7.073  21.032  0.00  0.00    +0.000 A 
ATOM      7  C   UNL     1       1.889   6.968  19.697  0.00  0.00    +0.000 A 
ATOM      8  C   UNL     1       2.069   8.106  18.898  0.00  0.00    +0.000 A 
ATOM      9  C   UNL     1       1.724   9.322  19.462  0.00  0.00    +0.000 A 
ATOM     10  C   UNL     1       1.516  10.602  18.792  0.00  0.00    +0.000 C 
ATOM     11  O   UNL     1       2.008  10.865  17.710  0.00  0.00    +0.000 OA
ENDROOT
BRANCH   1  14
ATOM     12  C   UNL     1      -1.406  10.749  18.403  0.00  0.00    +0.000 C 
ATOM     13  O   UNL     1      -1.089   9.591  18.188  0.00  0.00    +0.000 OA
ATOM     14  N   UNL     1      -0.577  11.698  18.958  0.00  0.00    +0.000 N 
ATOM     15  H   UNL     1      -0.979  12.560  19.310  0.00  0.00    +0.000 HD
BRANCH  12  20
ATOM     16  C   UNL     1      -6.875  12.483  17.451  0.00  0.00    +0.000 C 
ATOM     17  C   UNL     1      -5.443  12.081  17.668  0.00  0.00    +0.000 A 
ATOM     18  C   UNL     1      -4.808  12.325  18.891  0.00  0.00    +0.000 A 
ATOM     19  C   UNL     1      -3.493  11.897  19.106  0.00  0.00    +0.000 A 
ATOM     20  C   UNL     1      -2.793  11.226  18.099  0.00  0.00    +0.000 A 
ATOM     21  C   UNL     1      -3.416  11.000  16.864  0.00  0.00    +0.000 A 
ATOM     22  C   UNL     1      -4.734  11.427  16.652  0.00  0.00    +0.000 A 
ENDBRANCH  12  20
ENDBRANCH   1  14
BRANCH   7  23
ATOM     23  S   UNL     1       1.932   5.349  18.932  0.00  0.00    +0.000 S 
ATOM     24  O   UNL     1       1.628   4.389  19.976  0.00  0.00    +0.000 OA
ATOM     25  O   UNL     1       1.099   5.425  17.748  0.00  0.00    +0.000 OA
BRANCH  23  26
ATOM     26  C   UNL     1       3.599   5.041  18.404  0.00  0.00    +0.000 A 
ATOM     27  C   UNL     1       3.844   4.740  17.060  0.00  0.00    +0.000 A 
ATOM     28  C   UNL     1       5.159   4.540  16.628  0.00  0.00    +0.000 A 
ATOM     29  C   UNL     1       6.218   4.638  17.541  0.00  0.00    +0.000 A 
ATOM     30  C   UNL     1       5.963   4.986  18.873  0.00  0.00    +0.000 A 
ATOM     31  C   UNL     1       4.650   5.185  19.310  0.00  0.00    +0.000 A 
BRANCH  29  32
ATOM     32  C   UNL     1       7.635   4.439  17.136  0.00  0.00    +0.000 C 
ATOM     33  O   UNL     1       8.508   4.123  17.925  0.00  0.00    +0.000 OA
BRANCH  32  34
ATOM     34  O   UNL     1       7.854   4.583  15.813  0.00  0.00    +0.000 OA
ATOM     35  H   UNL     1       7.116   4.328  15.231  0.00  0.00    +0.000 HD
ENDBRANCH  32  34
ENDBRANCH  29  32
ENDBRANCH  23  26
ENDBRANCH   7  23
TORSDOF 6
ENDMDL
MODEL 6
REMARK VINA RESULT:      -8.1      1.065      1.704
REMARK  Name = 
REMARK  7 active torsions:
REMARK  status: ('A' for Active; 'I' for Inactive)
REMARK    1  A    between atoms: C_1  and  C_2
REMARK    2  A    between atoms: C_5  and  C_6
REMARK    3  A    between atoms: N_8  and  N_9
REMARK    4  A    between atoms: C_15  and  S_16
REMARK    5  A    between atoms: S_16  and  C_19
REMARK    6  A    between atoms: C_22  and  C_23
REMARK    7  A    between atoms: C_23  and  O_25
REMARK                            x       y       z     vdW  Elec       q    Type
REMARK                         _______ _______ _______ _____ _____    ______ ____
ROOT
ATOM      1  N   UNL     1       1.352   9.149  19.513  0.00  0.00    +0.000 N 
ATOM      2  C   UNL     1       1.521   8.273  20.570  0.00  0.00    +0.000 C 
ATOM      3  O   UNL     1       0.918   8.200  21.627  0.00  0.00    +0.000 OA
ATOM      4  C   UNL     1       2.397   7.200  20.091  0.00  0.00    +0.000 A 
ATOM      5  C   UNL     1       2.608   5.950  20.645  0.00  0.00    +0.000 A 
ATOM      6  C   UNL     1       3.063   4.938  19.792  0.00  0.00    +0.000 A 
ATOM      7  C   UNL     1       3.285   5.204  18.419  0.00  0.00    +0.000 A 
ATOM      8  C   UNL     1       3.131   6.495  17.894  0.00  0.00    +0.000 A 
ATOM      9  C   UNL     1       2.702   7.477  18.771  0.00  0.00    +0.000 A 
ATOM     10  C   UNL     1       2.171   8.800  18.458  0.00  0.00    +0.000 C 
ATOM     11  O   UNL     1       2.409   9.372  17.411  0.00  0.00    +0.000 OA
ENDROOT
BRANCH   1  14
ATOM     12  C   UNL     1      -0.652  10.522  19.643  0.00  0.00    +0.000 C 
ATOM     13  O   UNL     1      -0.234  11.239  20.538  0.00  0.00    +0.000 OA
ATOM     14  N   UNL     1      -0.007   9.401  19.171  0.00  0.00    +0.000 N 
ATOM     15  H   UNL     1      -0.299   8.997  18.289  0.00  0.00    +0.000 HD
BRANCH  12  20
ATOM     16  C   UNL     1      -5.491  11.808  16.684  0.00  0.00    +0.000 C 
ATOM     17  C   UNL     1      -4.272  11.448  17.487  0.00  0.00    +0.000 A 
ATOM     18  C   UNL     1      -3.445  10.388  17.098  0.00  0.00    +0.000 A 
ATOM     19  C   UNL     1      -2.281  10.094  17.818  0.00  0.00    +0.000 A 
ATOM     20  C   UNL     1      -1.933  10.851  18.941  0.00  0.00    +0.000 A 
ATOM     21  C   UNL     1      -2.772  11.898  19.349  0.00  0.00    +0.000 A 
ATOM     22  C   UNL     1      -3.934  12.191  18.625  0.00  0.00    +0.000 A 
ENDBRANCH  12  20
ENDBRANCH   1  14
BRANCH   7  23
ATOM     23  S   UNL     1       3.450   3.820  17.294  0.00  0.00    +0.000 S 
ATOM     24  O   UNL     1       3.982   2.717  18.071  0.00  0.00    +0.000 OA
ATOM     25  O   UNL     1       2.178   3.683  16.611  0.00  0.00    +0.000 OA
BRANCH  23  26
ATOM     26  C   UNL     1       4.674   4.247  16.082  0.00  0.00    +0.000 A 
ATOM     27  C   UNL     1       5.603   5.250  16.374  0.00  0.00    +0.000 A 
ATOM     28  C   UNL     1       6.598   5.560  15.441  0.00  0.00    +0.000 A 
ATOM     29  C   UNL     1       6.656   4.870  14.223  0.00  0.00    +0.000 A 
ATOM     30  C   UNL     1       5.748   3.835  13.962  0.00  0.00    +0.000 A 
ATOM     31  C   UNL     1       4.750   3.523  14.890  0.00  0.00    +0.000 A 
BRANCH  29  32
ATOM     32  C   UNL     1       7.693   5.156  13.197  0.00  0.00    +0.000 C 
ATOM     33  O   UNL     1       7.603   4.772  12.044  0.00  0.00    +0.000 OA
BRANCH  32  34
ATOM     34  O   UNL     1       8.708   5.924  13.641  0.00  0.00    +0.000 OA
ATOM     35  H   UNL     1       9.540   5.457  13.836  0.00  0.00    +0.000 HD
ENDBRANCH  32  34
ENDBRANCH  29  32
ENDBRANCH  23  26
ENDBRANCH   7  23
TORSDOF 6
ENDMDL
MODEL 7
REMARK VINA RESULT:      -8.1      1.642      2.141
REMARK  Name = 
REMARK  7 active torsions:
REMARK  status: ('A' for Active; 'I' for Inactive)
REMARK    1  A    between atoms: C_1  and  C_2
REMARK    2  A    between atoms: C_5  and  C_6
REMARK    3  A    between atoms: N_8  and  N_9
REMARK    4  A    between atoms: C_15  and  S_16
REMARK    5  A    between atoms: S_16  and  C_19
REMARK    6  A    between atoms: C_22  and  C_23
REMARK    7  A    between atoms: C_23  and  O_25
REMARK                            x       y       z     vdW  Elec       q    Type
REMARK                         _______ _______ _______ _____ _____    ______ ____
ROOT
ATOM      1  N   UNL     1       0.548  11.428  19.655  0.00  0.00    +0.000 N 
ATOM      2  C   UNL     1       0.396  10.793  20.874  0.00  0.00    +0.000 C 
ATOM      3  O   UNL     1      -0.364  11.042  21.794  0.00  0.00    +0.000 OA
ATOM      4  C   UNL     1       1.132   9.529  20.783  0.00  0.00    +0.000 A 
ATOM      5  C   UNL     1       1.031   8.415  21.599  0.00  0.00    +0.000 A 
ATOM      6  C   UNL     1       1.424   7.186  21.057  0.00  0.00    +0.000 A 
ATOM      7  C   UNL     1       1.895   7.108  19.725  0.00  0.00    +0.000 A 
ATOM      8  C   UNL     1       2.054   8.259  18.940  0.00  0.00    +0.000 A 
ATOM      9  C   UNL     1       1.677   9.460  19.515  0.00  0.00    +0.000 A 
ATOM     10  C   UNL     1       1.443  10.743  18.859  0.00  0.00    +0.000 C 
ATOM     11  O   UNL     1       1.935  11.030  17.784  0.00  0.00    +0.000 OA
ENDROOT
BRANCH   1  14
ATOM     12  C   UNL     1      -1.492  10.822  18.477  0.00  0.00    +0.000 C 
ATOM     13  O   UNL     1      -1.159   9.667  18.271  0.00  0.00    +0.000 OA
ATOM     14  N   UNL     1      -0.676  11.787  19.024  0.00  0.00    +0.000 N 
ATOM     15  H   UNL     1      -1.090  12.646  19.369  0.00  0.00    +0.000 HD
BRANCH  12  20
ATOM     16  C   UNL     1      -6.803  12.723  17.062  0.00  0.00    +0.000 C 
ATOM     17  C   UNL     1      -5.455  12.186  17.452  0.00  0.00    +0.000 A 
ATOM     18  C   UNL     1      -4.649  11.526  16.518  0.00  0.00    +0.000 A 
ATOM     19  C   UNL     1      -3.371  11.078  16.872  0.00  0.00    +0.000 A 
ATOM     20  C   UNL     1      -2.885  11.279  18.168  0.00  0.00    +0.000 A 
ATOM     21  C   UNL     1      -3.698  11.918  19.114  0.00  0.00    +0.000 A 
ATOM     22  C   UNL     1      -4.975  12.367  18.756  0.00  0.00    +0.000 A 
ENDBRANCH  12  20
ENDBRANCH   1  14
BRANCH   7  23
ATOM     23  S   UNL     1       1.982   5.500  18.940  0.00  0.00    +0.000 S 
ATOM     24  O   UNL     1       1.696   4.520  19.971  0.00  0.00    +0.000 OA
ATOM     25  O   UNL     1       1.153   5.569  17.753  0.00  0.00    +0.000 OA
BRANCH  23  26
ATOM     26  C   UNL     1       3.658   5.238  18.418  0.00  0.00    +0.000 A 
ATOM     27  C   UNL     1       4.687   5.318  19.361  0.00  0.00    +0.000 A 
ATOM     28  C   UNL     1       6.005   5.069  18.965  0.00  0.00    +0.000 A 
ATOM     29  C   UNL     1       6.286   4.746  17.631  0.00  0.00    +0.000 A 
ATOM     30  C   UNL     1       5.241   4.624  16.706  0.00  0.00    +0.000 A 
ATOM     31  C   UNL     1       3.922   4.874  17.096  0.00  0.00    +0.000 A 
BRANCH  29  32
ATOM     32  C   UNL     1       7.668   4.469  17.155  0.00  0.00    +0.000 C 
ATOM     33  O   UNL     1       8.559   4.099  17.899  0.00  0.00    +0.000 OA
BRANCH  32  34
ATOM     34  O   UNL     1       7.829   4.606  15.824  0.00  0.00    +0.000 OA
ATOM     35  H   UNL     1       8.229   5.443  15.529  0.00  0.00    +0.000 HD
ENDBRANCH  32  34
ENDBRANCH  29  32
ENDBRANCH  23  26
ENDBRANCH   7  23
TORSDOF 6
ENDMDL
MODEL 8
REMARK VINA RESULT:      -8.1      1.599      1.984
REMARK  Name = 
REMARK  7 active torsions:
REMARK  status: ('A' for Active; 'I' for Inactive)
REMARK    1  A    between atoms: C_1  and  C_2
REMARK    2  A    between atoms: C_5  and  C_6
REMARK    3  A    between atoms: N_8  and  N_9
REMARK    4  A    between atoms: C_15  and  S_16
REMARK    5  A    between atoms: S_16  and  C_19
REMARK    6  A    between atoms: C_22  and  C_23
REMARK    7  A    between atoms: C_23  and  O_25
REMARK                            x       y       z     vdW  Elec       q    Type
REMARK                         _______ _______ _______ _____ _____    ______ ____
ROOT
ATOM      1  N   UNL     1       0.586  11.350  19.684  0.00  0.00    +0.000 N 
ATOM      2  C   UNL     1       0.417  10.726  20.907  0.00  0.00    +0.000 C 
ATOM      3  O   UNL     1      -0.346  10.992  21.820  0.00  0.00    +0.000 OA
ATOM      4  C   UNL     1       1.136   9.451  20.831  0.00  0.00    +0.000 A 
ATOM      5  C   UNL     1       1.014   8.345  21.654  0.00  0.00    +0.000 A 
ATOM      6  C   UNL     1       1.395   7.107  21.125  0.00  0.00    +0.000 A 
ATOM      7  C   UNL     1       1.875   7.012  19.796  0.00  0.00    +0.000 A 
ATOM      8  C   UNL     1       2.055   8.156  19.004  0.00  0.00    +0.000 A 
ATOM      9  C   UNL     1       1.690   9.366  19.568  0.00  0.00    +0.000 A 
ATOM     10  C   UNL     1       1.478  10.647  18.900  0.00  0.00    +0.000 C 
ATOM     11  O   UNL     1       1.981  10.919  17.827  0.00  0.00    +0.000 OA
ENDROOT
BRANCH   1  14
ATOM     12  C   UNL     1      -1.402  10.775  18.405  0.00  0.00    +0.000 C 
ATOM     13  O   UNL     1      -1.032   9.645  18.132  0.00  0.00    +0.000 OA
ATOM     14  N   UNL     1      -0.629  11.721  19.042  0.00  0.00    +0.000 N 
ATOM     15  H   UNL     1      -1.075  12.543  19.431  0.00  0.00    +0.000 HD
BRANCH  12  20
ATOM     16  C   UNL     1      -6.902  12.373  17.395  0.00  0.00    +0.000 C 
ATOM     17  C   UNL     1      -5.463  12.006  17.627  0.00  0.00    +0.000 A 
ATOM     18  C   UNL     1      -4.837  12.294  18.844  0.00  0.00    +0.000 A 
ATOM     19  C   UNL     1      -3.514  11.899  19.074  0.00  0.00    +0.000 A 
ATOM     20  C   UNL     1      -2.797  11.216  18.086  0.00  0.00    +0.000 A 
ATOM     21  C   UNL     1      -3.412  10.946  16.855  0.00  0.00    +0.000 A 
ATOM     22  C   UNL     1      -4.737  11.341  16.629  0.00  0.00    +0.000 A 
ENDBRANCH  12  20
ENDBRANCH   1  14
BRANCH   7  23
ATOM     23  S   UNL     1       1.945   5.398  19.025  0.00  0.00    +0.000 S 
ATOM     24  O   UNL     1       1.730   4.425  20.079  0.00  0.00    +0.000 OA
ATOM     25  O   UNL     1       1.055   5.442  17.882  0.00  0.00    +0.000 OA
BRANCH  23  26
ATOM     26  C   UNL     1       3.596   5.156  18.417  0.00  0.00    +0.000 A 
ATOM     27  C   UNL     1       4.676   5.326  19.289  0.00  0.00    +0.000 A 
ATOM     28  C   UNL     1       5.976   5.094  18.829  0.00  0.00    +0.000 A 
ATOM     29  C   UNL     1       6.189   4.698  17.502  0.00  0.00    +0.000 A 
ATOM     30  C   UNL     1       5.096   4.486  16.652  0.00  0.00    +0.000 A 
ATOM     31  C   UNL     1       3.794   4.719  17.106  0.00  0.00    +0.000 A 
BRANCH  29  32
ATOM     32  C   UNL     1       7.548   4.434  16.961  0.00  0.00    +0.000 C 
ATOM     33  O   UNL     1       7.830   4.581  15.785  0.00  0.00    +0.000 OA
BRANCH  32  34
ATOM     34  O   UNL     1       8.452   4.075  17.896  0.00  0.00    +0.000 OA
ATOM     35  H   UNL     1       9.363   4.386  17.747  0.00  0.00    +0.000 HD
ENDBRANCH  32  34
ENDBRANCH  29  32
ENDBRANCH  23  26
ENDBRANCH   7  23
TORSDOF 6
ENDMDL
MODEL 9
REMARK VINA RESULT:      -8.1      0.982      1.441
REMARK  Name = 
REMARK  7 active torsions:
REMARK  status: ('A' for Active; 'I' for Inactive)
REMARK    1  A    between atoms: C_1  and  C_2
REMARK    2  A    between atoms: C_5  and  C_6
REMARK    3  A    between atoms: N_8  and  N_9
REMARK    4  A    between atoms: C_15  and  S_16
REMARK    5  A    between atoms: S_16  and  C_19
REMARK    6  A    between atoms: C_22  and  C_23
REMARK    7  A    between atoms: C_23  and  O_25
REMARK                            x       y       z     vdW  Elec       q    Type
REMARK                         _______ _______ _______ _____ _____    ______ ____
ROOT
ATOM      1  N   UNL     1       1.010  10.938  19.162  0.00  0.00    +0.000 N 
ATOM      2  C   UNL     1       0.870  10.314  20.388  0.00  0.00    +0.000 C 
ATOM      3  O   UNL     1       0.141  10.592  21.326  0.00  0.00    +0.000 OA
ATOM      4  C   UNL     1       1.563   9.028  20.287  0.00  0.00    +0.000 A 
ATOM      5  C   UNL     1       1.449   7.922  21.112  0.00  0.00    +0.000 A 
ATOM      6  C   UNL     1       1.791   6.678  20.568  0.00  0.00    +0.000 A 
ATOM      7  C   UNL     1       2.226   6.578  19.225  0.00  0.00    +0.000 A 
ATOM      8  C   UNL     1       2.400   7.720  18.429  0.00  0.00    +0.000 A 
ATOM      9  C   UNL     1       2.075   8.935  19.006  0.00  0.00    +0.000 A 
ATOM     10  C   UNL     1       1.864  10.221  18.348  0.00  0.00    +0.000 C 
ATOM     11  O   UNL     1       2.337  10.486  17.259  0.00  0.00    +0.000 OA
ENDROOT
BRANCH   1  14
ATOM     12  C   UNL     1      -1.087  10.387  18.058  0.00  0.00    +0.000 C 
ATOM     13  O   UNL     1      -0.805   9.215  17.868  0.00  0.00    +0.000 OA
ATOM     14  N   UNL     1      -0.219  11.331  18.560  0.00  0.00    +0.000 N 
ATOM     15  H   UNL     1      -0.588  12.213  18.897  0.00  0.00    +0.000 HD
BRANCH  12  20
ATOM     16  C   UNL     1      -6.541  12.218  17.206  0.00  0.00    +0.000 C 
ATOM     17  C   UNL     1      -5.113  11.791  17.399  0.00  0.00    +0.000 A 
ATOM     18  C   UNL     1      -4.465  11.990  18.624  0.00  0.00    +0.000 A 
ATOM     19  C   UNL     1      -3.153  11.539  18.814  0.00  0.00    +0.000 A 
ATOM     20  C   UNL     1      -2.470  10.891  17.781  0.00  0.00    +0.000 A 
ATOM     21  C   UNL     1      -3.106  10.711  16.545  0.00  0.00    +0.000 A 
ATOM     22  C   UNL     1      -4.420  11.161  16.358  0.00  0.00    +0.000 A 
ENDBRANCH  12  20
ENDBRANCH   1  14
BRANCH   7  23
ATOM     23  S   UNL     1       2.243   4.964  18.449  0.00  0.00    +0.000 S 
ATOM     24  O   UNL     1       2.549   4.006  19.493  0.00  0.00    +0.000 OA
ATOM     25  O   UNL     1       1.010   4.850  17.695  0.00  0.00    +0.000 OA
BRANCH  23  26
ATOM     26  C   UNL     1       3.590   4.930  17.293  0.00  0.00    +0.000 A 
ATOM     27  C   UNL     1       4.196   6.133  16.916  0.00  0.00    +0.000 A 
ATOM     28  C   UNL     1       5.287   6.109  16.041  0.00  0.00    +0.000 A 
ATOM     29  C   UNL     1       5.761   4.887  15.545  0.00  0.00    +0.000 A 
ATOM     30  C   UNL     1       5.175   3.687  15.968  0.00  0.00    +0.000 A 
ATOM     31  C   UNL     1       4.083   3.705  16.841  0.00  0.00    +0.000 A 
BRANCH  29  32
ATOM     32  C   UNL     1       6.918   4.803  14.616  0.00  0.00    +0.000 C 
ATOM     33  O   UNL     1       7.882   5.544  14.694  0.00  0.00    +0.000 OA
BRANCH  32  34
ATOM     34  O   UNL     1       6.831   3.800  13.719  0.00  0.00    +0.000 OA
ATOM     35  H   UNL     1       6.040   3.806  13.151  0.00  0.00    +0.000 HD
ENDBRANCH  32  34
ENDBRANCH  29  32
ENDBRANCH  23  26
ENDBRANCH   7  23
TORSDOF 6
ENDMDL
