MODEL 1
REMARK VINA RESULT:      -7.7      0.000      0.000
REMARK  Name = 
REMARK  3 active torsions:
REMARK  status: ('A' for Active; 'I' for Inactive)
REMARK    1  A    between atoms: N_4  and  N_5
REMARK    2  A    between atoms: C_6  and  C_7
REMARK    3  A    between atoms: C_10  and  C_11
REMARK                            x       y       z     vdW  Elec       q    Type
REMARK                         _______ _______ _______ _____ _____    ______ ____
ROOT
ATOM      1  C   UNL     1       7.256   6.998  17.417  0.00  0.00    +0.000 A 
ATOM      2  N   UNL     1       7.612   6.405  16.294  0.00  0.00    +0.000 NA
ATOM      3  C   UNL     1       6.634   5.464  16.104  0.00  0.00    +0.000 A 
ATOM      4  C   UNL     1       5.707   5.513  17.124  0.00  0.00    +0.000 A 
ATOM      5  O   UNL     1       6.111   6.502  17.985  0.00  0.00    +0.000 OA
ENDROOT
BRANCH   4   6
ATOM      6  C   UNL     1       4.465   4.813  17.425  0.00  0.00    +0.000 A 
ATOM      7  C   UNL     1       3.340   5.536  17.857  0.00  0.00    +0.000 A 
ATOM      8  C   UNL     1       2.163   4.879  18.230  0.00  0.00    +0.000 A 
ATOM      9  C   UNL     1       2.095   3.492  18.167  0.00  0.00    +0.000 A 
ATOM     10 CL   UNL     1       0.663   2.682  18.669  0.00  0.00    +0.000 Cl
ATOM     11  C   UNL     1       3.187   2.757  17.711  0.00  0.00    +0.000 A 
ATOM     12  C   UNL     1       4.364   3.416  17.338  0.00  0.00    +0.000 A 
ENDBRANCH   4   6
BRANCH   1  14
ATOM     13  N   UNL     1       7.848   9.306  17.592  0.00  0.00    +0.000 NA
ATOM     14  C   UNL     1       7.969   8.091  18.029  0.00  0.00    +0.000 C 
BRANCH  13  18
ATOM     15  O   UNL     1      10.704  11.669  20.540  0.00  0.00    +0.000 OA
ATOM     16  C   UNL     1       9.922  11.399  19.641  0.00  0.00    +0.000 C 
ATOM     17  C   UNL     1       9.434  10.011  19.283  0.00  0.00    +0.000 C 
ATOM     18  N   UNL     1       8.551  10.322  18.182  0.00  0.00    +0.000 N 
ATOM     19  C   UNL     1       8.505  11.701  17.934  0.00  0.00    +0.000 C 
ATOM     20  O   UNL     1       7.842  12.310  17.110  0.00  0.00    +0.000 OA
ATOM     21  N   UNL     1       9.352  12.306  18.809  0.00  0.00    +0.000 N 
ATOM     22  H   UNL     1       9.501  13.299  18.852  0.00  0.00    +0.000 HD
ENDBRANCH  13  18
ENDBRANCH   1  14
TORSDOF 3
ENDMDL
MODEL 2
REMARK VINA RESULT:      -7.5      0.208      1.058
REMARK  Name = 
REMARK  3 active torsions:
REMARK  status: ('A' for Active; 'I' for Inactive)
REMARK    1  A    between atoms: N_4  and  N_5
REMARK    2  A    between atoms: C_6  and  C_7
REMARK    3  A    between atoms: C_10  and  C_11
REMARK                            x       y       z     vdW  Elec       q    Type
REMARK                         _______ _______ _______ _____ _____    ______ ____
ROOT
ATOM      1  C   UNL     1       7.280   7.079  17.480  0.00  0.00    +0.000 A 
ATOM      2  N   UNL     1       7.540   6.513  16.317  0.00  0.00    +0.000 NA
ATOM      3  C   UNL     1       6.552   5.571  16.191  0.00  0.00    +0.000 A 
ATOM      4  C   UNL     1       5.717   5.592  17.288  0.00  0.00    +0.000 A 
ATOM      5  O   UNL     1       6.189   6.564  18.133  0.00  0.00    +0.000 OA
ENDROOT
BRANCH   4   6
ATOM      6  C   UNL     1       4.508   4.879  17.677  0.00  0.00    +0.000 A 
ATOM      7  C   UNL     1       4.539   3.485  17.851  0.00  0.00    +0.000 A 
ATOM      8  C   UNL     1       3.374   2.770  18.144  0.00  0.00    +0.000 A 
ATOM      9  C   UNL     1       2.164   3.442  18.276  0.00  0.00    +0.000 A 
ATOM     10 CL   UNL     1       0.724   2.556  18.591  0.00  0.00    +0.000 Cl
ATOM     11  C   UNL     1       2.114   4.827  18.139  0.00  0.00    +0.000 A 
ATOM     12  C   UNL     1       3.282   5.542  17.846  0.00  0.00    +0.000 A 
ENDBRANCH   4   6
BRANCH   1  14
ATOM     13  N   UNL     1       7.846   9.391  17.686  0.00  0.00    +0.000 NA
ATOM     14  C   UNL     1       8.039   8.162  18.053  0.00  0.00    +0.000 C 
BRANCH  13  18
ATOM     15  O   UNL     1      10.811  11.741  20.535  0.00  0.00    +0.000 OA
ATOM     16  C   UNL     1      10.015  11.470  19.649  0.00  0.00    +0.000 C 
ATOM     17  C   UNL     1       9.467  10.091  19.345  0.00  0.00    +0.000 C 
ATOM     18  N   UNL     1       8.594  10.397  18.234  0.00  0.00    +0.000 N 
ATOM     19  C   UNL     1       8.606  11.766  17.933  0.00  0.00    +0.000 C 
ATOM     20  O   UNL     1       7.967  12.371  17.088  0.00  0.00    +0.000 OA
ATOM     21  N   UNL     1       9.482  12.368  18.783  0.00  0.00    +0.000 N 
ATOM     22  H   UNL     1       9.673  13.354  18.787  0.00  0.00    +0.000 HD
ENDBRANCH  13  18
ENDBRANCH   1  14
TORSDOF 3
ENDMDL
MODEL 3
REMARK VINA RESULT:      -7.3      5.760      8.374
REMARK  Name = 
REMARK  3 active torsions:
REMARK  status: ('A' for Active; 'I' for Inactive)
REMARK    1  A    between atoms: N_4  and  N_5
REMARK    2  A    between atoms: C_6  and  C_7
REMARK    3  A    between atoms: C_10  and  C_11
REMARK                            x       y       z     vdW  Elec       q    Type
REMARK                         _______ _______ _______ _____ _____    ______ ____
ROOT
ATOM      1  C   UNL     1       2.256   8.101  18.466  0.00  0.00    +0.000 A 
ATOM      2  N   UNL     1       2.282   9.056  17.557  0.00  0.00    +0.000 NA
ATOM      3  C   UNL     1       1.525  10.052  18.116  0.00  0.00    +0.000 A 
ATOM      4  C   UNL     1       1.057   9.669  19.356  0.00  0.00    +0.000 A 
ATOM      5  O   UNL     1       1.522   8.399  19.585  0.00  0.00    +0.000 OA
ENDROOT
BRANCH   4   6
ATOM      6  C   UNL     1       0.270  10.306  20.403  0.00  0.00    +0.000 A 
ATOM      7  C   UNL     1       0.190   9.718  21.677  0.00  0.00    +0.000 A 
ATOM      8  C   UNL     1      -0.624  10.266  22.673  0.00  0.00    +0.000 A 
ATOM      9  C   UNL     1      -1.362  11.414  22.409  0.00  0.00    +0.000 A 
ATOM     10 CL   UNL     1      -2.399  12.061  23.620  0.00  0.00    +0.000 Cl
ATOM     11  C   UNL     1      -1.275  12.032  21.164  0.00  0.00    +0.000 A 
ATOM     12  C   UNL     1      -0.458  11.483  20.168  0.00  0.00    +0.000 A 
ENDBRANCH   4   6
BRANCH   1  14
ATOM     13  N   UNL     1       2.950   5.980  19.320  0.00  0.00    +0.000 NA
ATOM     14  C   UNL     1       2.939   6.837  18.347  0.00  0.00    +0.000 C 
BRANCH  13  18
ATOM     15  O   UNL     1       3.844   1.367  18.724  0.00  0.00    +0.000 OA
ATOM     16  C   UNL     1       3.980   2.567  18.911  0.00  0.00    +0.000 C 
ATOM     17  C   UNL     1       2.868   3.594  18.906  0.00  0.00    +0.000 C 
ATOM     18  N   UNL     1       3.621   4.795  19.186  0.00  0.00    +0.000 N 
ATOM     19  C   UNL     1       4.986   4.519  19.353  0.00  0.00    +0.000 C 
ATOM     20  O   UNL     1       5.895   5.284  19.632  0.00  0.00    +0.000 OA
ATOM     21  N   UNL     1       5.163   3.184  19.159  0.00  0.00    +0.000 N 
ATOM     22  H   UNL     1       6.051   2.719  19.231  0.00  0.00    +0.000 HD
ENDBRANCH  13  18
ENDBRANCH   1  14
TORSDOF 3
ENDMDL
MODEL 4
REMARK VINA RESULT:      -7.3      4.751      7.183
REMARK  Name = 
REMARK  3 active torsions:
REMARK  status: ('A' for Active; 'I' for Inactive)
REMARK    1  A    between atoms: N_4  and  N_5
REMARK    2  A    between atoms: C_6  and  C_7
REMARK    3  A    between atoms: C_10  and  C_11
REMARK                            x       y       z     vdW  Elec       q    Type
REMARK                         _______ _______ _______ _____ _____    ______ ____
ROOT
ATOM      1  C   UNL     1       2.940   6.297  18.919  0.00  0.00    +0.000 A 
ATOM      2  N   UNL     1       2.579   5.407  19.824  0.00  0.00    +0.000 NA
ATOM      3  C   UNL     1       1.833   6.136  20.712  0.00  0.00    +0.000 A 
ATOM      4  C   UNL     1       1.762   7.456  20.319  0.00  0.00    +0.000 A 
ATOM      5  O   UNL     1       2.486   7.568  19.159  0.00  0.00    +0.000 OA
ENDROOT
BRANCH   4   6
ATOM      6  C   UNL     1       1.092   8.648  20.822  0.00  0.00    +0.000 A 
ATOM      7  C   UNL     1       0.800   8.764  22.192  0.00  0.00    +0.000 A 
ATOM      8  C   UNL     1       0.085   9.859  22.685  0.00  0.00    +0.000 A 
ATOM      9  C   UNL     1      -0.340  10.857  21.814  0.00  0.00    +0.000 A 
ATOM     10 CL   UNL     1      -1.259  12.181  22.415  0.00  0.00    +0.000 Cl
ATOM     11  C   UNL     1      -0.035  10.779  20.458  0.00  0.00    +0.000 A 
ATOM     12  C   UNL     1       0.682   9.681  19.966  0.00  0.00    +0.000 A 
ENDBRANCH   4   6
BRANCH   1  14
ATOM     13  N   UNL     1       4.976   5.662  17.844  0.00  0.00    +0.000 NA
ATOM     14  C   UNL     1       3.729   6.004  17.750  0.00  0.00    +0.000 C 
BRANCH  13  18
ATOM     15  O   UNL     1       6.425   3.712  13.778  0.00  0.00    +0.000 OA
ATOM     16  C   UNL     1       6.357   4.415  14.775  0.00  0.00    +0.000 C 
ATOM     17  C   UNL     1       5.238   4.396  15.794  0.00  0.00    +0.000 C 
ATOM     18  N   UNL     1       5.707   5.407  16.715  0.00  0.00    +0.000 N 
ATOM     19  C   UNL     1       6.940   5.937  16.310  0.00  0.00    +0.000 C 
ATOM     20  O   UNL     1       7.633   6.775  16.865  0.00  0.00    +0.000 OA
ATOM     21  N   UNL     1       7.283   5.338  15.139  0.00  0.00    +0.000 N 
ATOM     22  H   UNL     1       8.131   5.531  14.636  0.00  0.00    +0.000 HD
ENDBRANCH  13  18
ENDBRANCH   1  14
TORSDOF 3
ENDMDL
MODEL 5
REMARK VINA RESULT:      -7.3      4.881      7.165
REMARK  Name = 
REMARK  3 active torsions:
REMARK  status: ('A' for Active; 'I' for Inactive)
REMARK    1  A    between atoms: N_4  and  N_5
REMARK    2  A    between atoms: C_6  and  C_7
REMARK    3  A    between atoms: C_10  and  C_11
REMARK                            x       y       z     vdW  Elec       q    Type
REMARK                         _______ _______ _______ _____ _____    ______ ____
ROOT
ATOM      1  C   UNL     1       3.061   6.300  18.747  0.00  0.00    +0.000 A 
ATOM      2  N   UNL     1       2.729   5.363  19.613  0.00  0.00    +0.000 NA
ATOM      3  C   UNL     1       1.956   6.029  20.528  0.00  0.00    +0.000 A 
ATOM      4  C   UNL     1       1.842   7.361  20.189  0.00  0.00    +0.000 A 
ATOM      5  O   UNL     1       2.564   7.545  19.038  0.00  0.00    +0.000 OA
ENDROOT
BRANCH   4   6
ATOM      6  C   UNL     1       1.131   8.508  20.738  0.00  0.00    +0.000 A 
ATOM      7  C   UNL     1       0.833   9.609  19.916  0.00  0.00    +0.000 A 
ATOM      8  C   UNL     1       0.226  10.754  20.439  0.00  0.00    +0.000 A 
ATOM      9  C   UNL     1      -0.100  10.809  21.790  0.00  0.00    +0.000 A 
ATOM     10 CL   UNL     1      -0.805  12.236  22.442  0.00  0.00    +0.000 Cl
ATOM     11  C   UNL     1       0.157   9.718  22.617  0.00  0.00    +0.000 A 
ATOM     12  C   UNL     1       0.765   8.572  22.092  0.00  0.00    +0.000 A 
ENDBRANCH   4   6
BRANCH   1  14
ATOM     13  N   UNL     1       4.957   5.387  17.616  0.00  0.00    +0.000 NA
ATOM     14  C   UNL     1       3.864   6.083  17.570  0.00  0.00    +0.000 C 
BRANCH  13  18
ATOM     15  O   UNL     1       6.493   3.713  13.460  0.00  0.00    +0.000 OA
ATOM     16  C   UNL     1       6.400   4.352  14.498  0.00  0.00    +0.000 C 
ATOM     17  C   UNL     1       5.266   4.256  15.495  0.00  0.00    +0.000 C 
ATOM     18  N   UNL     1       5.708   5.211  16.485  0.00  0.00    +0.000 N 
ATOM     19  C   UNL     1       6.941   5.780  16.136  0.00  0.00    +0.000 C 
ATOM     20  O   UNL     1       7.616   6.588  16.753  0.00  0.00    +0.000 OA
ATOM     21  N   UNL     1       7.310   5.259  14.934  0.00  0.00    +0.000 N 
ATOM     22  H   UNL     1       8.163   5.492  14.459  0.00  0.00    +0.000 HD
ENDBRANCH  13  18
ENDBRANCH   1  14
TORSDOF 3
ENDMDL
MODEL 6
REMARK VINA RESULT:      -7.3      5.746      8.333
REMARK  Name = 
REMARK  3 active torsions:
REMARK  status: ('A' for Active; 'I' for Inactive)
REMARK    1  A    between atoms: N_4  and  N_5
REMARK    2  A    between atoms: C_6  and  C_7
REMARK    3  A    between atoms: C_10  and  C_11
REMARK                            x       y       z     vdW  Elec       q    Type
REMARK                         _______ _______ _______ _____ _____    ______ ____
ROOT
ATOM      1  C   UNL     1       2.253   8.015  18.414  0.00  0.00    +0.000 A 
ATOM      2  N   UNL     1       2.427   9.011  17.568  0.00  0.00    +0.000 NA
ATOM      3  C   UNL     1       1.683  10.027  18.110  0.00  0.00    +0.000 A 
ATOM      4  C   UNL     1       1.075   9.615  19.277  0.00  0.00    +0.000 A 
ATOM      5  O   UNL     1       1.435   8.306  19.476  0.00  0.00    +0.000 OA
ENDROOT
BRANCH   4   6
ATOM      6  C   UNL     1       0.233  10.250  20.282  0.00  0.00    +0.000 A 
ATOM      7  C   UNL     1      -0.638  11.289  19.914  0.00  0.00    +0.000 A 
ATOM      8  C   UNL     1      -1.395  11.968  20.873  0.00  0.00    +0.000 A 
ATOM      9  C   UNL     1      -1.295  11.611  22.213  0.00  0.00    +0.000 A 
ATOM     10 CL   UNL     1      -2.191  12.477  23.398  0.00  0.00    +0.000 Cl
ATOM     11  C   UNL     1      -0.461  10.563  22.598  0.00  0.00    +0.000 A 
ATOM     12  C   UNL     1       0.295   9.884  21.636  0.00  0.00    +0.000 A 
ENDBRANCH   4   6
BRANCH   1  14
ATOM     13  N   UNL     1       3.185   6.015  19.330  0.00  0.00    +0.000 NA
ATOM     14  C   UNL     1       2.863   6.715  18.287  0.00  0.00    +0.000 C 
BRANCH  13  18
ATOM     15  O   UNL     1       3.780   1.363  18.664  0.00  0.00    +0.000 OA
ATOM     16  C   UNL     1       3.994   2.549  18.870  0.00  0.00    +0.000 C 
ATOM     17  C   UNL     1       2.950   3.646  18.877  0.00  0.00    +0.000 C 
ATOM     18  N   UNL     1       3.779   4.791  19.179  0.00  0.00    +0.000 N 
ATOM     19  C   UNL     1       5.121   4.423  19.347  0.00  0.00    +0.000 C 
ATOM     20  O   UNL     1       6.077   5.123  19.642  0.00  0.00    +0.000 OA
ATOM     21  N   UNL     1       5.213   3.083  19.133  0.00  0.00    +0.000 N 
ATOM     22  H   UNL     1       6.068   2.560  19.200  0.00  0.00    +0.000 HD
ENDBRANCH  13  18
ENDBRANCH   1  14
TORSDOF 3
ENDMDL
MODEL 7
REMARK VINA RESULT:      -7.2      5.048      7.026
REMARK  Name = 
REMARK  3 active torsions:
REMARK  status: ('A' for Active; 'I' for Inactive)
REMARK    1  A    between atoms: N_4  and  N_5
REMARK    2  A    between atoms: C_6  and  C_7
REMARK    3  A    between atoms: C_10  and  C_11
REMARK                            x       y       z     vdW  Elec       q    Type
REMARK                         _______ _______ _______ _____ _____    ______ ____
ROOT
ATOM      1  C   UNL     1       3.190   5.552  19.372  0.00  0.00    +0.000 A 
ATOM      2  N   UNL     1       2.485   4.765  20.162  0.00  0.00    +0.000 NA
ATOM      3  C   UNL     1       1.648   5.631  20.816  0.00  0.00    +0.000 A 
ATOM      4  C   UNL     1       1.871   6.927  20.402  0.00  0.00    +0.000 A 
ATOM      5  O   UNL     1       2.877   6.884  19.470  0.00  0.00    +0.000 OA
ENDROOT
BRANCH   4   6
ATOM      6  C   UNL     1       1.272   8.222  20.699  0.00  0.00    +0.000 A 
ATOM      7  C   UNL     1       1.173   9.197  19.691  0.00  0.00    +0.000 A 
ATOM      8  C   UNL     1       0.678  10.474  19.971  0.00  0.00    +0.000 A 
ATOM      9  C   UNL     1       0.269  10.790  21.262  0.00  0.00    +0.000 A 
ATOM     10 CL   UNL     1      -0.296  12.375  21.617  0.00  0.00    +0.000 Cl
ATOM     11  C   UNL     1       0.330   9.830  22.270  0.00  0.00    +0.000 A 
ATOM     12  C   UNL     1       0.824   8.551  21.987  0.00  0.00    +0.000 A 
ENDBRANCH   4   6
BRANCH   1  14
ATOM     13  N   UNL     1       5.003   5.931  17.864  0.00  0.00    +0.000 NA
ATOM     14  C   UNL     1       4.203   5.098  18.453  0.00  0.00    +0.000 C 
BRANCH  13  18
ATOM     15  O   UNL     1       7.163   4.726  13.825  0.00  0.00    +0.000 OA
ATOM     16  C   UNL     1       6.918   4.901  15.009  0.00  0.00    +0.000 C 
ATOM     17  C   UNL     1       5.677   5.566  15.565  0.00  0.00    +0.000 C 
ATOM     18  N   UNL     1       5.945   5.473  16.983  0.00  0.00    +0.000 N 
ATOM     19  C   UNL     1       7.162   4.825  17.234  0.00  0.00    +0.000 C 
ATOM     20  O   UNL     1       7.676   4.546  18.305  0.00  0.00    +0.000 OA
ATOM     21  N   UNL     1       7.723   4.520  16.032  0.00  0.00    +0.000 N 
ATOM     22  H   UNL     1       8.600   4.041  15.927  0.00  0.00    +0.000 HD
ENDBRANCH  13  18
ENDBRANCH   1  14
TORSDOF 3
ENDMDL
MODEL 8
REMARK VINA RESULT:      -7.2      5.355      7.647
REMARK  Name = 
REMARK  3 active torsions:
REMARK  status: ('A' for Active; 'I' for Inactive)
REMARK    1  A    between atoms: N_4  and  N_5
REMARK    2  A    between atoms: C_6  and  C_7
REMARK    3  A    between atoms: C_10  and  C_11
REMARK                            x       y       z     vdW  Elec       q    Type
REMARK                         _______ _______ _______ _____ _____    ______ ____
ROOT
ATOM      1  C   UNL     1       2.456   8.075  18.402  0.00  0.00    +0.000 A 
ATOM      2  N   UNL     1       2.157   8.862  17.387  0.00  0.00    +0.000 NA
ATOM      3  C   UNL     1       1.270   9.758  17.925  0.00  0.00    +0.000 A 
ATOM      4  C   UNL     1       1.055   9.487  19.259  0.00  0.00    +0.000 A 
ATOM      5  O   UNL     1       1.816   8.389  19.574  0.00  0.00    +0.000 OA
ENDROOT
BRANCH   4   6
ATOM      6  C   UNL     1       0.280  10.106  20.326  0.00  0.00    +0.000 A 
ATOM      7  C   UNL     1       0.284   9.544  21.614  0.00  0.00    +0.000 A 
ATOM      8  C   UNL     1      -0.516  10.071  22.633  0.00  0.00    +0.000 A 
ATOM      9  C   UNL     1      -1.323  11.174  22.377  0.00  0.00    +0.000 A 
ATOM     10 CL   UNL     1      -2.341  11.795  23.617  0.00  0.00    +0.000 Cl
ATOM     11  C   UNL     1      -1.320  11.768  21.116  0.00  0.00    +0.000 A 
ATOM     12  C   UNL     1      -0.518  11.238  20.098  0.00  0.00    +0.000 A 
ENDBRANCH   4   6
BRANCH   1  14
ATOM     13  N   UNL     1       4.122   6.769  17.295  0.00  0.00    +0.000 NA
ATOM     14  C   UNL     1       3.384   6.974  18.341  0.00  0.00    +0.000 C 
BRANCH  13  18
ATOM     15  O   UNL     1       8.115   4.222  17.224  0.00  0.00    +0.000 OA
ATOM     16  C   UNL     1       6.936   4.543  17.212  0.00  0.00    +0.000 C 
ATOM     17  C   UNL     1       6.402   5.951  17.364  0.00  0.00    +0.000 C 
ATOM     18  N   UNL     1       4.982   5.705  17.258  0.00  0.00    +0.000 N 
ATOM     19  C   UNL     1       4.711   4.345  17.052  0.00  0.00    +0.000 C 
ATOM     20  O   UNL     1       3.635   3.794  16.885  0.00  0.00    +0.000 OA
ATOM     21  N   UNL     1       5.899   3.682  17.053  0.00  0.00    +0.000 N 
ATOM     22  H   UNL     1       5.990   2.691  16.915  0.00  0.00    +0.000 HD
ENDBRANCH  13  18
ENDBRANCH   1  14
TORSDOF 3
ENDMDL
MODEL 9
REMARK VINA RESULT:      -7.2      2.903      3.650
REMARK  Name = 
REMARK  3 active torsions:
REMARK  status: ('A' for Active; 'I' for Inactive)
REMARK    1  A    between atoms: N_4  and  N_5
REMARK    2  A    between atoms: C_6  and  C_7
REMARK    3  A    between atoms: C_10  and  C_11
REMARK                            x       y       z     vdW  Elec       q    Type
REMARK                         _______ _______ _______ _____ _____    ______ ____
ROOT
ATOM      1  C   UNL     1       7.862   7.717  17.862  0.00  0.00    +0.000 A 
ATOM      2  N   UNL     1       7.974   6.765  18.769  0.00  0.00    +0.000 NA
ATOM      3  C   UNL     1       7.546   5.642  18.110  0.00  0.00    +0.000 A 
ATOM      4  C   UNL     1       7.183   5.947  16.815  0.00  0.00    +0.000 A 
ATOM      5  O   UNL     1       7.379   7.295  16.650  0.00  0.00    +0.000 OA
ENDROOT
BRANCH   4   6
ATOM      6  C   UNL     1       6.715   5.181  15.667  0.00  0.00    +0.000 A 
ATOM      7  C   UNL     1       7.490   5.127  14.496  0.00  0.00    +0.000 A 
ATOM      8  C   UNL     1       7.024   4.468  13.354  0.00  0.00    +0.000 A 
ATOM      9  C   UNL     1       5.780   3.848  13.373  0.00  0.00    +0.000 A 
ATOM     10 CL   UNL     1       5.187   3.077  11.954  0.00  0.00    +0.000 Cl
ATOM     11  C   UNL     1       5.007   3.862  14.532  0.00  0.00    +0.000 A 
ATOM     12  C   UNL     1       5.476   4.522  15.675  0.00  0.00    +0.000 A 
ENDBRANCH   4   6
BRANCH   1  14
ATOM     13  N   UNL     1       9.063   9.443  18.996  0.00  0.00    +0.000 NA
ATOM     14  C   UNL     1       8.220   9.096  18.074  0.00  0.00    +0.000 C 
BRANCH  13  18
ATOM     15  O   UNL     1      10.566  13.863  18.197  0.00  0.00    +0.000 OA
ATOM     16  C   UNL     1      10.123  12.862  18.741  0.00  0.00    +0.000 C 
ATOM     17  C   UNL     1       9.866  11.531  18.066  0.00  0.00    +0.000 C 
ATOM     18  N   UNL     1       9.371  10.763  19.186  0.00  0.00    +0.000 N 
ATOM     19  C   UNL     1       9.356  11.523  20.363  0.00  0.00    +0.000 C 
ATOM     20  O   UNL     1       9.035  11.184  21.491  0.00  0.00    +0.000 OA
ATOM     21  N   UNL     1       9.790  12.775  20.053  0.00  0.00    +0.000 N 
ATOM     22  H   UNL     1       9.884  13.519  20.721  0.00  0.00    +0.000 HD
ENDBRANCH  13  18
ENDBRANCH   1  14
TORSDOF 3
ENDMDL
