MODEL 1
REMARK VINA RESULT:      -8.9      0.000      0.000
REMARK  Name = 
REMARK  7 active torsions:
REMARK  status: ('A' for Active; 'I' for Inactive)
REMARK    1  A    between atoms: C_1  and  C_2
REMARK    2  A    between atoms: C_5  and  O_6
REMARK    3  A    between atoms: O_6  and  C_7
REMARK    4  A    between atoms: C_7  and  C_8
REMARK    5  A    between atoms: N_10  and  C_11
REMARK    6  A    between atoms: C_14  and  C_15
REMARK    7  A    between atoms: C_20  and  C_21
REMARK                            x       y       z     vdW  Elec       q    Type
REMARK                         _______ _______ _______ _____ _____    ______ ____
ROOT
ATOM      1  C   UNL     1       4.151   6.077  18.179  0.00  0.00    +0.000 A 
ATOM      2  C   UNL     1       3.593   5.698  19.391  0.00  0.00    +0.000 A 
ATOM      3  C   UNL     1       2.629   6.498  20.012  0.00  0.00    +0.000 A 
ATOM      4  C   UNL     1       2.187   7.705  19.449  0.00  0.00    +0.000 A 
ATOM      5  C   UNL     1       2.711   8.070  18.206  0.00  0.00    +0.000 A 
ATOM      6  C   UNL     1       3.693   7.267  17.583  0.00  0.00    +0.000 A 
ENDROOT
BRANCH   4   7
ATOM      7  C   UNL     1       1.254   8.513  20.241  0.00  0.00    +0.000 A 
ATOM      8  N   UNL     1       1.007   8.352  21.527  0.00  0.00    +0.000 NA
ATOM      9  C   UNL     1       0.169   9.387  21.837  0.00  0.00    +0.000 A 
ATOM     10  C   UNL     1      -0.393   9.745  23.064  0.00  0.00    +0.000 A 
ATOM     11  C   UNL     1      -1.225  10.867  23.106  0.00  0.00    +0.000 A 
ATOM     12  C   UNL     1      -1.505  11.616  21.951  0.00  0.00    +0.000 A 
ATOM     13  C   UNL     1      -2.385  12.830  22.081  0.00  0.00    +0.000 C 
ATOM     14  C   UNL     1      -0.924  11.268  20.710  0.00  0.00    +0.000 A 
ATOM     15  C   UNL     1      -0.095  10.144  20.709  0.00  0.00    +0.000 A 
ATOM     16  O   UNL     1       0.610   9.587  19.664  0.00  0.00    +0.000 OA
ENDBRANCH   4   7
BRANCH   1  19
ATOM     17  C   UNL     1       6.520   5.719  17.423  0.00  0.00    +0.000 C 
ATOM     18  O   UNL     1       7.045   6.694  17.953  0.00  0.00    +0.000 OA
ATOM     19  N   UNL     1       5.182   5.347  17.536  0.00  0.00    +0.000 N 
ATOM     20  H   UNL     1       4.930   4.438  17.164  0.00  0.00    +0.000 HD
BRANCH  17  21
ATOM     21  C   UNL     1       7.344   4.783  16.532  0.00  0.00    +0.000 C 
BRANCH  21  22
ATOM     22  O   UNL     1       7.487   5.381  15.249  0.00  0.00    +0.000 OA
BRANCH  22  27
ATOM     23  C   UNL     1       4.671   2.809  11.040  0.00  0.00    +0.000 C 
ATOM     24  C   UNL     1       5.452   3.440  12.156  0.00  0.00    +0.000 A 
ATOM     25  C   UNL     1       4.901   3.582  13.432  0.00  0.00    +0.000 A 
ATOM     26  C   UNL     1       5.625   4.217  14.445  0.00  0.00    +0.000 A 
ATOM     27  C   UNL     1       6.911   4.707  14.205  0.00  0.00    +0.000 A 
ATOM     28  C   UNL     1       7.473   4.553  12.939  0.00  0.00    +0.000 A 
ATOM     29  C   UNL     1       6.745   3.924  11.920  0.00  0.00    +0.000 A 
ENDBRANCH  22  27
ENDBRANCH  21  22
ENDBRANCH  17  21
ENDBRANCH   1  19
TORSDOF 5
ENDMDL
MODEL 2
REMARK VINA RESULT:      -8.6      2.412     11.558
REMARK  Name = 
REMARK  7 active torsions:
REMARK  status: ('A' for Active; 'I' for Inactive)
REMARK    1  A    between atoms: C_1  and  C_2
REMARK    2  A    between atoms: C_5  and  O_6
REMARK    3  A    between atoms: O_6  and  C_7
REMARK    4  A    between atoms: C_7  and  C_8
REMARK    5  A    between atoms: N_10  and  C_11
REMARK    6  A    between atoms: C_14  and  C_15
REMARK    7  A    between atoms: C_20  and  C_21
REMARK                            x       y       z     vdW  Elec       q    Type
REMARK                         _______ _______ _______ _____ _____    ______ ____
ROOT
ATOM      1  C   UNL     1       0.571   9.105  20.702  0.00  0.00    +0.000 A 
ATOM      2  C   UNL     1       1.192   7.954  21.164  0.00  0.00    +0.000 A 
ATOM      3  C   UNL     1       2.072   7.241  20.343  0.00  0.00    +0.000 A 
ATOM      4  C   UNL     1       2.363   7.647  19.033  0.00  0.00    +0.000 A 
ATOM      5  C   UNL     1       1.778   8.831  18.576  0.00  0.00    +0.000 A 
ATOM      6  C   UNL     1       0.880   9.546  19.401  0.00  0.00    +0.000 A 
ENDROOT
BRANCH   4   7
ATOM      7  C   UNL     1       3.214   6.764  18.229  0.00  0.00    +0.000 A 
ATOM      8  N   UNL     1       3.259   5.448  18.330  0.00  0.00    +0.000 NA
ATOM      9  C   UNL     1       4.101   5.066  17.323  0.00  0.00    +0.000 A 
ATOM     10  C   UNL     1       4.494   3.786  16.925  0.00  0.00    +0.000 A 
ATOM     11  C   UNL     1       5.374   3.673  15.846  0.00  0.00    +0.000 A 
ATOM     12  C   UNL     1       5.867   4.808  15.179  0.00  0.00    +0.000 A 
ATOM     13  C   UNL     1       6.787   4.605  14.006  0.00  0.00    +0.000 C 
ATOM     14  C   UNL     1       5.456   6.104  15.566  0.00  0.00    +0.000 A 
ATOM     15  C   UNL     1       4.573   6.176  16.646  0.00  0.00    +0.000 A 
ATOM     16  O   UNL     1       3.999   7.288  17.224  0.00  0.00    +0.000 OA
ENDBRANCH   4   7
BRANCH   1  19
ATOM     17  C   UNL     1      -0.251  11.134  21.933  0.00  0.00    +0.000 C 
ATOM     18  O   UNL     1       0.674  11.903  21.685  0.00  0.00    +0.000 OA
ATOM     19  N   UNL     1      -0.382   9.831  21.458  0.00  0.00    +0.000 N 
ATOM     20  H   UNL     1      -1.271   9.373  21.628  0.00  0.00    +0.000 HD
BRANCH  17  21
ATOM     21  C   UNL     1      -1.399  11.572  22.850  0.00  0.00    +0.000 C 
BRANCH  21  22
ATOM     22  O   UNL     1      -2.182  12.545  22.169  0.00  0.00    +0.000 OA
BRANCH  22  27
ATOM     23  C   UNL     1      -7.462  13.188  24.159  0.00  0.00    +0.000 C 
ATOM     24  C   UNL     1      -6.084  12.965  23.609  0.00  0.00    +0.000 A 
ATOM     25  C   UNL     1      -5.010  12.666  24.451  0.00  0.00    +0.000 A 
ATOM     26  C   UNL     1      -3.724  12.509  23.926  0.00  0.00    +0.000 A 
ATOM     27  C   UNL     1      -3.493  12.637  22.554  0.00  0.00    +0.000 A 
ATOM     28  C   UNL     1      -4.563  12.918  21.706  0.00  0.00    +0.000 A 
ATOM     29  C   UNL     1      -5.851  13.083  22.233  0.00  0.00    +0.000 A 
ENDBRANCH  22  27
ENDBRANCH  21  22
ENDBRANCH  17  21
ENDBRANCH   1  19
TORSDOF 5
ENDMDL
MODEL 3
REMARK VINA RESULT:      -8.4      2.468     11.434
REMARK  Name = 
REMARK  7 active torsions:
REMARK  status: ('A' for Active; 'I' for Inactive)
REMARK    1  A    between atoms: C_1  and  C_2
REMARK    2  A    between atoms: C_5  and  O_6
REMARK    3  A    between atoms: O_6  and  C_7
REMARK    4  A    between atoms: C_7  and  C_8
REMARK    5  A    between atoms: N_10  and  C_11
REMARK    6  A    between atoms: C_14  and  C_15
REMARK    7  A    between atoms: C_20  and  C_21
REMARK                            x       y       z     vdW  Elec       q    Type
REMARK                         _______ _______ _______ _____ _____    ______ ____
ROOT
ATOM      1  C   UNL     1       0.239  10.168  20.044  0.00  0.00    +0.000 A 
ATOM      2  C   UNL     1       0.541  10.135  18.691  0.00  0.00    +0.000 A 
ATOM      3  C   UNL     1       1.353   9.124  18.167  0.00  0.00    +0.000 A 
ATOM      4  C   UNL     1       1.894   8.111  18.973  0.00  0.00    +0.000 A 
ATOM      5  C   UNL     1       1.556   8.110  20.329  0.00  0.00    +0.000 A 
ATOM      6  C   UNL     1       0.744   9.138  20.860  0.00  0.00    +0.000 A 
ENDROOT
BRANCH   4   7
ATOM      7  C   UNL     1       2.818   7.167  18.334  0.00  0.00    +0.000 A 
ATOM      8  N   UNL     1       2.778   5.854  18.464  0.00  0.00    +0.000 NA
ATOM      9  C   UNL     1       3.751   5.406  17.615  0.00  0.00    +0.000 A 
ATOM     10  C   UNL     1       4.138   4.100  17.309  0.00  0.00    +0.000 A 
ATOM     11  C   UNL     1       5.175   3.917  16.391  0.00  0.00    +0.000 A 
ATOM     12  C   UNL     1       5.826   5.009  15.793  0.00  0.00    +0.000 A 
ATOM     13  C   UNL     1       6.913   4.733  14.790  0.00  0.00    +0.000 C 
ATOM     14  C   UNL     1       5.425   6.333  16.085  0.00  0.00    +0.000 A 
ATOM     15  C   UNL     1       4.383   6.475  17.005  0.00  0.00    +0.000 A 
ATOM     16  O   UNL     1       3.781   7.627  17.462  0.00  0.00    +0.000 OA
ENDBRANCH   4   7
BRANCH   1  19
ATOM     17  C   UNL     1      -0.019  12.306  21.337  0.00  0.00    +0.000 C 
ATOM     18  O   UNL     1       1.165  12.613  21.448  0.00  0.00    +0.000 OA
ATOM     19  N   UNL     1      -0.518  11.203  20.647  0.00  0.00    +0.000 N 
ATOM     20  H   UNL     1      -1.523  11.165  20.519  0.00  0.00    +0.000 HD
BRANCH  17  21
ATOM     21  C   UNL     1      -1.106  13.159  22.001  0.00  0.00    +0.000 C 
BRANCH  21  22
ATOM     22  O   UNL     1      -1.771  12.371  22.980  0.00  0.00    +0.000 OA
BRANCH  22  27
ATOM     23  C   UNL     1      -7.422  12.935  23.073  0.00  0.00    +0.000 C 
ATOM     24  C   UNL     1      -5.924  12.842  23.074  0.00  0.00    +0.000 A 
ATOM     25  C   UNL     1      -5.195  12.920  21.885  0.00  0.00    +0.000 A 
ATOM     26  C   UNL     1      -3.804  12.781  21.900  0.00  0.00    +0.000 A 
ATOM     27  C   UNL     1      -3.120  12.575  23.101  0.00  0.00    +0.000 A 
ATOM     28  C   UNL     1      -3.840  12.513  24.293  0.00  0.00    +0.000 A 
ATOM     29  C   UNL     1      -5.235  12.644  24.278  0.00  0.00    +0.000 A 
ENDBRANCH  22  27
ENDBRANCH  21  22
ENDBRANCH  17  21
ENDBRANCH   1  19
TORSDOF 5
ENDMDL
MODEL 4
REMARK VINA RESULT:      -8.3      2.557     10.854
REMARK  Name = 
REMARK  7 active torsions:
REMARK  status: ('A' for Active; 'I' for Inactive)
REMARK    1  A    between atoms: C_1  and  C_2
REMARK    2  A    between atoms: C_5  and  O_6
REMARK    3  A    between atoms: O_6  and  C_7
REMARK    4  A    between atoms: C_7  and  C_8
REMARK    5  A    between atoms: N_10  and  C_11
REMARK    6  A    between atoms: C_14  and  C_15
REMARK    7  A    between atoms: C_20  and  C_21
REMARK                            x       y       z     vdW  Elec       q    Type
REMARK                         _______ _______ _______ _____ _____    ______ ____
ROOT
ATOM      1  C   UNL     1       0.236   9.719  20.613  0.00  0.00    +0.000 A 
ATOM      2  C   UNL     1       0.894   8.652  21.208  0.00  0.00    +0.000 A 
ATOM      3  C   UNL     1       1.763   7.847  20.463  0.00  0.00    +0.000 A 
ATOM      4  C   UNL     1       2.006   8.075  19.101  0.00  0.00    +0.000 A 
ATOM      5  C   UNL     1       1.383   9.176  18.506  0.00  0.00    +0.000 A 
ATOM      6  C   UNL     1       0.497   9.983  19.255  0.00  0.00    +0.000 A 
ENDROOT
BRANCH   4   7
ATOM      7  C   UNL     1       2.850   7.103  18.398  0.00  0.00    +0.000 A 
ATOM      8  N   UNL     1       2.714   5.791  18.457  0.00  0.00    +0.000 NA
ATOM      9  C   UNL     1       3.642   5.322  17.569  0.00  0.00    +0.000 A 
ATOM     10  C   UNL     1       3.927   4.009  17.187  0.00  0.00    +0.000 A 
ATOM     11  C   UNL     1       4.937   3.802  16.243  0.00  0.00    +0.000 A 
ATOM     12  C   UNL     1       5.660   4.875  15.695  0.00  0.00    +0.000 A 
ATOM     13  C   UNL     1       6.711   4.576  14.661  0.00  0.00    +0.000 C 
ATOM     14  C   UNL     1       5.361   6.207  16.065  0.00  0.00    +0.000 A 
ATOM     15  C   UNL     1       4.344   6.374  17.007  0.00  0.00    +0.000 A 
ATOM     16  O   UNL     1       3.834   7.539  17.536  0.00  0.00    +0.000 OA
ENDBRANCH   4   7
BRANCH   1  19
ATOM     17  C   UNL     1      -0.475  11.771  21.875  0.00  0.00    +0.000 C 
ATOM     18  O   UNL     1       0.566  12.418  21.802  0.00  0.00    +0.000 OA
ATOM     19  N   UNL     1      -0.709  10.526  21.294  0.00  0.00    +0.000 N 
ATOM     20  H   UNL     1      -1.663  10.187  21.318  0.00  0.00    +0.000 HD
BRANCH  17  21
ATOM     21  C   UNL     1      -1.669  12.312  22.670  0.00  0.00    +0.000 C 
BRANCH  21  22
ATOM     22  O   UNL     1      -2.340  13.287  21.881  0.00  0.00    +0.000 OA
BRANCH  22  27
ATOM     23  C   UNL     1      -7.292  11.890  19.477  0.00  0.00    +0.000 C 
ATOM     24  C   UNL     1      -5.966  12.201  20.107  0.00  0.00    +0.000 A 
ATOM     25  C   UNL     1      -5.867  12.506  21.467  0.00  0.00    +0.000 A 
ATOM     26  C   UNL     1      -4.630  12.841  22.026  0.00  0.00    +0.000 A 
ATOM     27  C   UNL     1      -3.475  12.865  21.241  0.00  0.00    +0.000 A 
ATOM     28  C   UNL     1      -3.564  12.545  19.888  0.00  0.00    +0.000 A 
ATOM     29  C   UNL     1      -4.804  12.216  19.325  0.00  0.00    +0.000 A 
ENDBRANCH  22  27
ENDBRANCH  21  22
ENDBRANCH  17  21
ENDBRANCH   1  19
TORSDOF 5
ENDMDL
MODEL 5
REMARK VINA RESULT:      -8.3      5.431      8.294
REMARK  Name = 
REMARK  7 active torsions:
REMARK  status: ('A' for Active; 'I' for Inactive)
REMARK    1  A    between atoms: C_1  and  C_2
REMARK    2  A    between atoms: C_5  and  O_6
REMARK    3  A    between atoms: O_6  and  C_7
REMARK    4  A    between atoms: C_7  and  C_8
REMARK    5  A    between atoms: N_10  and  C_11
REMARK    6  A    between atoms: C_14  and  C_15
REMARK    7  A    between atoms: C_20  and  C_21
REMARK                            x       y       z     vdW  Elec       q    Type
REMARK                         _______ _______ _______ _____ _____    ______ ____
ROOT
ATOM      1  C   UNL     1       6.962   6.720  17.685  0.00  0.00    +0.000 A 
ATOM      2  C   UNL     1       7.994   6.746  18.611  0.00  0.00    +0.000 A 
ATOM      3  C   UNL     1       8.658   7.942  18.903  0.00  0.00    +0.000 A 
ATOM      4  C   UNL     1       8.319   9.153  18.282  0.00  0.00    +0.000 A 
ATOM      5  C   UNL     1       7.250   9.143  17.382  0.00  0.00    +0.000 A 
ATOM      6  C   UNL     1       6.585   7.933  17.079  0.00  0.00    +0.000 A 
ENDROOT
BRANCH   4   7
ATOM      7  C   UNL     1       9.155  10.320  18.585  0.00  0.00    +0.000 A 
ATOM      8  N   UNL     1       9.897  10.466  19.667  0.00  0.00    +0.000 NA
ATOM      9  C   UNL     1      10.562  11.641  19.457  0.00  0.00    +0.000 A 
ATOM     10  C   UNL     1      11.515  12.283  20.251  0.00  0.00    +0.000 A 
ATOM     11  C   UNL     1      12.049  13.490  19.795  0.00  0.00    +0.000 A 
ATOM     12  C   UNL     1      11.639  14.060  18.577  0.00  0.00    +0.000 A 
ATOM     13  C   UNL     1      12.282  15.348  18.137  0.00  0.00    +0.000 C 
ATOM     14  C   UNL     1      10.689  13.405  17.761  0.00  0.00    +0.000 A 
ATOM     15  C   UNL     1      10.181  12.199  18.249  0.00  0.00    +0.000 A 
ATOM     16  O   UNL     1       9.268  11.345  17.670  0.00  0.00    +0.000 OA
ENDBRANCH   4   7
BRANCH   1  19
ATOM     17  C   UNL     1       6.726   4.615  16.334  0.00  0.00    +0.000 C 
ATOM     18  O   UNL     1       7.802   4.639  15.743  0.00  0.00    +0.000 OA
ATOM     19  N   UNL     1       6.298   5.530  17.294  0.00  0.00    +0.000 N 
ATOM     20  H   UNL     1       5.452   5.295  17.799  0.00  0.00    +0.000 HD
BRANCH  17  21
ATOM     21  C   UNL     1       5.702   3.513  16.036  0.00  0.00    +0.000 C 
BRANCH  21  22
ATOM     22  O   UNL     1       4.396   4.069  16.121  0.00  0.00    +0.000 OA
BRANCH  22  27
ATOM     23  C   UNL     1       1.024   2.948  20.551  0.00  0.00    +0.000 C 
ATOM     24  C   UNL     1       1.963   3.247  19.419  0.00  0.00    +0.000 A 
ATOM     25  C   UNL     1       1.937   4.482  18.767  0.00  0.00    +0.000 A 
ATOM     26  C   UNL     1       2.784   4.725  17.683  0.00  0.00    +0.000 A 
ATOM     27  C   UNL     1       3.677   3.746  17.241  0.00  0.00    +0.000 A 
ATOM     28  C   UNL     1       3.721   2.517  17.898  0.00  0.00    +0.000 A 
ATOM     29  C   UNL     1       2.866   2.270  18.980  0.00  0.00    +0.000 A 
ENDBRANCH  22  27
ENDBRANCH  21  22
ENDBRANCH  17  21
ENDBRANCH   1  19
TORSDOF 5
ENDMDL
MODEL 6
REMARK VINA RESULT:      -8.2      2.750      3.921
REMARK  Name = 
REMARK  7 active torsions:
REMARK  status: ('A' for Active; 'I' for Inactive)
REMARK    1  A    between atoms: C_1  and  C_2
REMARK    2  A    between atoms: C_5  and  O_6
REMARK    3  A    between atoms: O_6  and  C_7
REMARK    4  A    between atoms: C_7  and  C_8
REMARK    5  A    between atoms: N_10  and  C_11
REMARK    6  A    between atoms: C_14  and  C_15
REMARK    7  A    between atoms: C_20  and  C_21
REMARK                            x       y       z     vdW  Elec       q    Type
REMARK                         _______ _______ _______ _____ _____    ______ ____
ROOT
ATOM      1  C   UNL     1       2.400   6.682  19.040  0.00  0.00    +0.000 A 
ATOM      2  C   UNL     1       1.885   6.661  20.328  0.00  0.00    +0.000 A 
ATOM      3  C   UNL     1       1.274   7.798  20.869  0.00  0.00    +0.000 A 
ATOM      4  C   UNL     1       1.157   8.995  20.147  0.00  0.00    +0.000 A 
ATOM      5  C   UNL     1       1.632   9.009  18.833  0.00  0.00    +0.000 A 
ATOM      6  C   UNL     1       2.258   7.865  18.290  0.00  0.00    +0.000 A 
ENDROOT
BRANCH   4   7
ATOM      7  C   UNL     1       0.597  10.152  20.853  0.00  0.00    +0.000 A 
ATOM      8  N   UNL     1       0.979  11.405  20.688  0.00  0.00    +0.000 NA
ATOM      9  C   UNL     1       0.112  12.121  21.465  0.00  0.00    +0.000 A 
ATOM     10  C   UNL     1       0.013  13.502  21.654  0.00  0.00    +0.000 A 
ATOM     11  C   UNL     1      -0.979  13.981  22.512  0.00  0.00    +0.000 A 
ATOM     12  C   UNL     1      -1.853  13.108  23.183  0.00  0.00    +0.000 A 
ATOM     13  C   UNL     1      -2.917  13.700  24.067  0.00  0.00    +0.000 C 
ATOM     14  C   UNL     1      -1.770  11.711  22.979  0.00  0.00    +0.000 A 
ATOM     15  C   UNL     1      -0.768  11.271  22.112  0.00  0.00    +0.000 A 
ATOM     16  O   UNL     1      -0.465   9.986  21.718  0.00  0.00    +0.000 OA
ENDBRANCH   4   7
BRANCH   1  19
ATOM     17  C   UNL     1       2.527   4.517  17.773  0.00  0.00    +0.000 C 
ATOM     18  O   UNL     1       1.344   4.399  17.466  0.00  0.00    +0.000 OA
ATOM     19  N   UNL     1       3.091   5.588  18.462  0.00  0.00    +0.000 N 
ATOM     20  H   UNL     1       4.103   5.614  18.512  0.00  0.00    +0.000 HD
BRANCH  17  21
ATOM     21  C   UNL     1       3.536   3.421  17.409  0.00  0.00    +0.000 C 
BRANCH  21  22
ATOM     22  O   UNL     1       4.430   3.931  16.427  0.00  0.00    +0.000 OA
BRANCH  22  27
ATOM     23  C   UNL     1       8.235   7.692  18.330  0.00  0.00    +0.000 C 
ATOM     24  C   UNL     1       7.275   6.667  17.801  0.00  0.00    +0.000 A 
ATOM     25  C   UNL     1       6.387   6.976  16.767  0.00  0.00    +0.000 A 
ATOM     26  C   UNL     1       5.467   6.023  16.321  0.00  0.00    +0.000 A 
ATOM     27  C   UNL     1       5.427   4.748  16.889  0.00  0.00    +0.000 A 
ATOM     28  C   UNL     1       6.321   4.428  17.909  0.00  0.00    +0.000 A 
ATOM     29  C   UNL     1       7.239   5.385  18.363  0.00  0.00    +0.000 A 
ENDBRANCH  22  27
ENDBRANCH  21  22
ENDBRANCH  17  21
ENDBRANCH   1  19
TORSDOF 5
ENDMDL
MODEL 7
REMARK VINA RESULT:      -8.2      2.089      2.961
REMARK  Name = 
REMARK  7 active torsions:
REMARK  status: ('A' for Active; 'I' for Inactive)
REMARK    1  A    between atoms: C_1  and  C_2
REMARK    2  A    between atoms: C_5  and  O_6
REMARK    3  A    between atoms: O_6  and  C_7
REMARK    4  A    between atoms: C_7  and  C_8
REMARK    5  A    between atoms: N_10  and  C_11
REMARK    6  A    between atoms: C_14  and  C_15
REMARK    7  A    between atoms: C_20  and  C_21
REMARK                            x       y       z     vdW  Elec       q    Type
REMARK                         _______ _______ _______ _____ _____    ______ ____
ROOT
ATOM      1  C   UNL     1       2.434   6.768  18.945  0.00  0.00    +0.000 A 
ATOM      2  C   UNL     1       1.973   6.797  20.253  0.00  0.00    +0.000 A 
ATOM      3  C   UNL     1       1.352   7.942  20.763  0.00  0.00    +0.000 A 
ATOM      4  C   UNL     1       1.170   9.098  19.989  0.00  0.00    +0.000 A 
ATOM      5  C   UNL     1       1.590   9.060  18.657  0.00  0.00    +0.000 A 
ATOM      6  C   UNL     1       2.227   7.907  18.144  0.00  0.00    +0.000 A 
ENDROOT
BRANCH   4   7
ATOM      7  C   UNL     1       0.605  10.273  20.661  0.00  0.00    +0.000 A 
ATOM      8  N   UNL     1      -0.358  10.246  21.564  0.00  0.00    +0.000 NA
ATOM      9  C   UNL     1      -0.468  11.547  21.971  0.00  0.00    +0.000 A 
ATOM     10  C   UNL     1      -1.301  12.112  22.939  0.00  0.00    +0.000 A 
ATOM     11  C   UNL     1      -1.209  13.488  23.166  0.00  0.00    +0.000 A 
ATOM     12  C   UNL     1      -0.315  14.293  22.439  0.00  0.00    +0.000 A 
ATOM     13  C   UNL     1      -0.251  15.761  22.761  0.00  0.00    +0.000 C 
ATOM     14  C   UNL     1       0.543  13.721  21.472  0.00  0.00    +0.000 A 
ATOM     15  C   UNL     1       0.425  12.344  21.276  0.00  0.00    +0.000 A 
ATOM     16  O   UNL     1       1.132  11.525  20.423  0.00  0.00    +0.000 OA
ENDBRANCH   4   7
BRANCH   1  19
ATOM     17  C   UNL     1       2.575   4.558  17.759  0.00  0.00    +0.000 C 
ATOM     18  O   UNL     1       1.387   4.404  17.487  0.00  0.00    +0.000 OA
ATOM     19  N   UNL     1       3.134   5.666  18.392  0.00  0.00    +0.000 N 
ATOM     20  H   UNL     1       4.146   5.713  18.414  0.00  0.00    +0.000 HD
BRANCH  17  21
ATOM     21  C   UNL     1       3.597   3.469  17.412  0.00  0.00    +0.000 C 
BRANCH  21  22
ATOM     22  O   UNL     1       4.903   3.967  17.674  0.00  0.00    +0.000 OA
BRANCH  22  27
ATOM     23  C   UNL     1       7.704   5.156  12.879  0.00  0.00    +0.000 C 
ATOM     24  C   UNL     1       7.007   4.800  14.159  0.00  0.00    +0.000 A 
ATOM     25  C   UNL     1       5.792   4.110  14.151  0.00  0.00    +0.000 A 
ATOM     26  C   UNL     1       5.132   3.831  15.351  0.00  0.00    +0.000 A 
ATOM     27  C   UNL     1       5.679   4.223  16.575  0.00  0.00    +0.000 A 
ATOM     28  C   UNL     1       6.899   4.896  16.591  0.00  0.00    +0.000 A 
ATOM     29  C   UNL     1       7.558   5.184  15.388  0.00  0.00    +0.000 A 
ENDBRANCH  22  27
ENDBRANCH  21  22
ENDBRANCH  17  21
ENDBRANCH   1  19
TORSDOF 5
ENDMDL
MODEL 8
REMARK VINA RESULT:      -8.2      0.998      1.698
REMARK  Name = 
REMARK  7 active torsions:
REMARK  status: ('A' for Active; 'I' for Inactive)
REMARK    1  A    between atoms: C_1  and  C_2
REMARK    2  A    between atoms: C_5  and  O_6
REMARK    3  A    between atoms: O_6  and  C_7
REMARK    4  A    between atoms: C_7  and  C_8
REMARK    5  A    between atoms: N_10  and  C_11
REMARK    6  A    between atoms: C_14  and  C_15
REMARK    7  A    between atoms: C_20  and  C_21
REMARK                            x       y       z     vdW  Elec       q    Type
REMARK                         _______ _______ _______ _____ _____    ______ ____
ROOT
ATOM      1  C   UNL     1       3.854   6.653  18.179  0.00  0.00    +0.000 A 
ATOM      2  C   UNL     1       3.183   6.485  19.381  0.00  0.00    +0.000 A 
ATOM      3  C   UNL     1       2.209   7.403  19.787  0.00  0.00    +0.000 A 
ATOM      4  C   UNL     1       1.871   8.522  19.012  0.00  0.00    +0.000 A 
ATOM      5  C   UNL     1       2.509   8.672  17.777  0.00  0.00    +0.000 A 
ATOM      6  C   UNL     1       3.500   7.751  17.372  0.00  0.00    +0.000 A 
ENDROOT
BRANCH   4   7
ATOM      7  C   UNL     1       0.914   9.473  19.587  0.00  0.00    +0.000 A 
ATOM      8  N   UNL     1       0.061  10.209  18.898  0.00  0.00    +0.000 NA
ATOM      9  C   UNL     1      -0.677  10.845  19.857  0.00  0.00    +0.000 A 
ATOM     10  C   UNL     1      -1.754  11.724  19.717  0.00  0.00    +0.000 A 
ATOM     11  C   UNL     1      -2.341  12.236  20.877  0.00  0.00    +0.000 A 
ATOM     12  C   UNL     1      -1.864  11.893  22.154  0.00  0.00    +0.000 A 
ATOM     13  C   UNL     1      -2.568  12.460  23.357  0.00  0.00    +0.000 C 
ATOM     14  C   UNL     1      -0.788  10.988  22.300  0.00  0.00    +0.000 A 
ATOM     15  C   UNL     1      -0.230  10.495  21.119  0.00  0.00    +0.000 A 
ATOM     16  O   UNL     1       0.804   9.599  20.956  0.00  0.00    +0.000 OA
ENDBRANCH   4   7
BRANCH   1  19
ATOM     17  C   UNL     1       6.192   6.179  17.392  0.00  0.00    +0.000 C 
ATOM     18  O   UNL     1       6.668   7.306  17.497  0.00  0.00    +0.000 OA
ATOM     19  N   UNL     1       4.899   5.799  17.746  0.00  0.00    +0.000 N 
ATOM     20  H   UNL     1       4.700   4.805  17.740  0.00  0.00    +0.000 HD
BRANCH  17  21
ATOM     21  C   UNL     1       7.034   5.032  16.819  0.00  0.00    +0.000 C 
BRANCH  21  22
ATOM     22  O   UNL     1       7.457   5.387  15.508  0.00  0.00    +0.000 OA
BRANCH  22  27
ATOM     23  C   UNL     1       5.129   2.651  11.110  0.00  0.00    +0.000 C 
ATOM     24  C   UNL     1       5.703   3.419  12.264  0.00  0.00    +0.000 A 
ATOM     25  C   UNL     1       6.958   4.027  12.173  0.00  0.00    +0.000 A 
ATOM     26  C   UNL     1       7.498   4.697  13.275  0.00  0.00    +0.000 A 
ATOM     27  C   UNL     1       6.792   4.780  14.477  0.00  0.00    +0.000 A 
ATOM     28  C   UNL     1       5.532   4.190  14.569  0.00  0.00    +0.000 A 
ATOM     29  C   UNL     1       4.993   3.512  13.467  0.00  0.00    +0.000 A 
ENDBRANCH  22  27
ENDBRANCH  21  22
ENDBRANCH  17  21
ENDBRANCH   1  19
TORSDOF 5
ENDMDL
MODEL 9
REMARK VINA RESULT:      -8.1      2.501      4.428
REMARK  Name = 
REMARK  7 active torsions:
REMARK  status: ('A' for Active; 'I' for Inactive)
REMARK    1  A    between atoms: C_1  and  C_2
REMARK    2  A    between atoms: C_5  and  O_6
REMARK    3  A    between atoms: O_6  and  C_7
REMARK    4  A    between atoms: C_7  and  C_8
REMARK    5  A    between atoms: N_10  and  C_11
REMARK    6  A    between atoms: C_14  and  C_15
REMARK    7  A    between atoms: C_20  and  C_21
REMARK                            x       y       z     vdW  Elec       q    Type
REMARK                         _______ _______ _______ _____ _____    ______ ____
ROOT
ATOM      1  C   UNL     1       2.539   6.969  18.356  0.00  0.00    +0.000 A 
ATOM      2  C   UNL     1       2.231   8.214  17.830  0.00  0.00    +0.000 A 
ATOM      3  C   UNL     1       1.646   9.200  18.631  0.00  0.00    +0.000 A 
ATOM      4  C   UNL     1       1.346   8.981  19.983  0.00  0.00    +0.000 A 
ATOM      5  C   UNL     1       1.696   7.744  20.532  0.00  0.00    +0.000 A 
ATOM      6  C   UNL     1       2.278   6.744  19.721  0.00  0.00    +0.000 A 
ENDROOT
BRANCH   4   7
ATOM      7  C   UNL     1       0.635  10.048  20.695  0.00  0.00    +0.000 A 
ATOM      8  N   UNL     1      -0.326   9.865  21.581  0.00  0.00    +0.000 NA
ATOM      9  C   UNL     1      -0.598  11.124  22.041  0.00  0.00    +0.000 A 
ATOM     10  C   UNL     1      -1.502  11.541  23.020  0.00  0.00    +0.000 A 
ATOM     11  C   UNL     1      -1.581  12.906  23.305  0.00  0.00    +0.000 A 
ATOM     12  C   UNL     1      -0.786  13.845  22.626  0.00  0.00    +0.000 A 
ATOM     13  C   UNL     1      -0.904  15.295  23.010  0.00  0.00    +0.000 C 
ATOM     14  C   UNL     1       0.145  13.425  21.648  0.00  0.00    +0.000 A 
ATOM     15  C   UNL     1       0.197  12.053  21.393  0.00  0.00    +0.000 A 
ATOM     16  O   UNL     1       1.008  11.363  20.518  0.00  0.00    +0.000 OA
ENDBRANCH   4   7
BRANCH   1  19
ATOM     17  C   UNL     1       4.411   5.664  17.306  0.00  0.00    +0.000 C 
ATOM     18  O   UNL     1       5.366   6.275  17.776  0.00  0.00    +0.000 OA
ATOM     19  N   UNL     1       3.067   5.906  17.581  0.00  0.00    +0.000 N 
ATOM     20  H   UNL     1       2.402   5.225  17.232  0.00  0.00    +0.000 HD
BRANCH  17  21
ATOM     21  C   UNL     1       4.637   4.522  16.307  0.00  0.00    +0.000 C 
BRANCH  21  22
ATOM     22  O   UNL     1       4.843   3.315  17.032  0.00  0.00    +0.000 OA
BRANCH  22  27
ATOM     23  C   UNL     1       1.273   2.594  21.390  0.00  0.00    +0.000 C 
ATOM     24  C   UNL     1       2.214   2.724  20.228  0.00  0.00    +0.000 A 
ATOM     25  C   UNL     1       3.565   3.021  20.423  0.00  0.00    +0.000 A 
ATOM     26  C   UNL     1       4.416   3.187  19.327  0.00  0.00    +0.000 A 
ATOM     27  C   UNL     1       3.936   3.048  18.023  0.00  0.00    +0.000 A 
ATOM     28  C   UNL     1       2.593   2.735  17.821  0.00  0.00    +0.000 A 
ATOM     29  C   UNL     1       1.737   2.576  18.919  0.00  0.00    +0.000 A 
ENDBRANCH  22  27
ENDBRANCH  21  22
ENDBRANCH  17  21
ENDBRANCH   1  19
TORSDOF 5
ENDMDL
