MODEL 1
REMARK VINA RESULT:      -8.6      0.000      0.000
REMARK  Name = 
REMARK  6 active torsions:
REMARK  status: ('A' for Active; 'I' for Inactive)
REMARK    1  A    between atoms: C_1  and  C_2
REMARK    2  A    between atoms: N_4  and  C_5
REMARK    3  A    between atoms: C_7  and  O_8
REMARK    4  A    between atoms: C_9  and  C_10
REMARK    5  A    between atoms: C_10  and  N_11
REMARK    6  A    between atoms: N_14  and  C_15
REMARK                            x       y       z     vdW  Elec       q    Type
REMARK                         _______ _______ _______ _____ _____    ______ ____
ROOT
ATOM      1  C   UNL     1       4.879   6.063  16.931  0.00  0.00    +0.000 C 
ATOM      2  C   UNL     1       5.979   5.376  16.127  0.00  0.00    +0.000 C 
ATOM      3  C   UNL     1       7.132   5.299  17.100  0.00  0.00    +0.000 C 
ATOM      4  C   UNL     1       6.912   6.498  18.025  0.00  0.00    +0.000 C 
ATOM      5  O   UNL     1       5.516   6.856  17.952  0.00  0.00    +0.000 OA
ENDROOT
BRANCH   1   9
ATOM      6  C   UNL     1       3.491   1.437  18.118  0.00  0.00    +0.000 C 
ATOM      7  C   UNL     1       3.272   2.913  18.093  0.00  0.00    +0.000 A 
ATOM      8  C   UNL     1       4.140   3.784  17.567  0.00  0.00    +0.000 A 
ATOM      9  N   UNL     1       3.914   5.145  17.537  0.00  0.00    +0.000 N 
ATOM     10  C   UNL     1       2.729   5.688  18.014  0.00  0.00    +0.000 A 
ATOM     11  O   UNL     1       2.449   6.886  17.963  0.00  0.00    +0.000 OA
ATOM     12  N   UNL     1       1.850   4.799  18.575  0.00  0.00    +0.000 N 
ATOM     13  C   UNL     1       2.020   3.449  18.675  0.00  0.00    +0.000 A 
ATOM     14  O   UNL     1       1.191   2.722  19.205  0.00  0.00    +0.000 OA
ATOM     15  H   UNL     1       0.998   5.179  18.952  0.00  0.00    +0.000 HD
ENDBRANCH   1   9
BRANCH   3  16
ATOM     16  O   UNL     1       7.029   4.070  17.820  0.00  0.00    +0.000 OA
ATOM     17  H   UNL     1       6.142   3.697  17.670  0.00  0.00    +0.000 HD
ENDBRANCH   3  16
BRANCH   4  18
ATOM     18  C   UNL     1       7.741   7.710  17.611  0.00  0.00    +0.000 C 
BRANCH  18  19
ATOM     19  N   UNL     1       8.569   8.208  18.702  0.00  0.00    +0.000 N 
ATOM     20  C   UNL     1       8.796   9.568  18.739  0.00  0.00    +0.000 C 
ATOM     21  O   UNL     1       8.380  10.304  17.852  0.00  0.00    +0.000 OA
ATOM     22  N   UNL     1       9.559   9.942  19.825  0.00  0.00    +0.000 N 
ATOM     23  H   UNL     1       8.420   7.772  19.604  0.00  0.00    +0.000 HD
ATOM     24  H   UNL     1      10.095   9.200  20.252  0.00  0.00    +0.000 HD
BRANCH  22  25
ATOM     25  C   UNL     1       9.958  11.270  20.101  0.00  0.00    +0.000 A 
ATOM     26  C   UNL     1       9.210  12.128  20.915  0.00  0.00    +0.000 A 
ATOM     27  C   UNL     1       9.571  13.469  21.066  0.00  0.00    +0.000 A 
ATOM     28  C   UNL     1      10.701  13.954  20.418  0.00  0.00    +0.000 A 
ATOM     29 BR   UNL     1      11.139  15.787  20.550  0.00  0.00    +0.000 Br
ATOM     30  C   UNL     1      11.497  13.097  19.660  0.00  0.00    +0.000 A 
ATOM     31  C   UNL     1      11.133  11.752  19.512  0.00  0.00    +0.000 A 
ENDBRANCH  22  25
ENDBRANCH  18  19
ENDBRANCH   4  18
TORSDOF 5
ENDMDL
MODEL 2
REMARK VINA RESULT:      -8.2      5.389      7.626
REMARK  Name = 
REMARK  6 active torsions:
REMARK  status: ('A' for Active; 'I' for Inactive)
REMARK    1  A    between atoms: C_1  and  C_2
REMARK    2  A    between atoms: N_4  and  C_5
REMARK    3  A    between atoms: C_7  and  O_8
REMARK    4  A    between atoms: C_9  and  C_10
REMARK    5  A    between atoms: C_10  and  N_11
REMARK    6  A    between atoms: N_14  and  C_15
REMARK                            x       y       z     vdW  Elec       q    Type
REMARK                         _______ _______ _______ _____ _____    ______ ____
ROOT
ATOM      1  C   UNL     1       5.173   4.662  18.447  0.00  0.00    +0.000 C 
ATOM      2  C   UNL     1       4.500   3.304  18.623  0.00  0.00    +0.000 C 
ATOM      3  C   UNL     1       3.050   3.584  18.306  0.00  0.00    +0.000 C 
ATOM      4  C   UNL     1       2.869   5.055  18.685  0.00  0.00    +0.000 C 
ATOM      5  O   UNL     1       4.172   5.675  18.663  0.00  0.00    +0.000 OA
ENDROOT
BRANCH   1   9
ATOM      6  C   UNL     1       5.383   3.694  13.573  0.00  0.00    +0.000 C 
ATOM      7  C   UNL     1       5.886   4.370  14.805  0.00  0.00    +0.000 A 
ATOM      8  C   UNL     1       5.320   4.235  16.009  0.00  0.00    +0.000 A 
ATOM      9  N   UNL     1       5.807   4.854  17.143  0.00  0.00    +0.000 N 
ATOM     10  C   UNL     1       6.961   5.624  17.101  0.00  0.00    +0.000 A 
ATOM     11  O   UNL     1       7.474   6.153  18.087  0.00  0.00    +0.000 OA
ATOM     12  N   UNL     1       7.528   5.782  15.863  0.00  0.00    +0.000 N 
ATOM     13  C   UNL     1       7.083   5.234  14.695  0.00  0.00    +0.000 A 
ATOM     14  O   UNL     1       7.638   5.436  13.624  0.00  0.00    +0.000 OA
ATOM     15  H   UNL     1       8.349   6.361  15.810  0.00  0.00    +0.000 HD
ENDBRANCH   1   9
BRANCH   3  16
ATOM     16  O   UNL     1       2.853   3.388  16.904  0.00  0.00    +0.000 OA
ATOM     17  H   UNL     1       3.724   3.302  16.478  0.00  0.00    +0.000 HD
ENDBRANCH   3  16
BRANCH   4  18
ATOM     18  C   UNL     1       2.279   5.225  20.081  0.00  0.00    +0.000 C 
BRANCH  18  19
ATOM     19  N   UNL     1       2.525   6.556  20.624  0.00  0.00    +0.000 N 
ATOM     20  C   UNL     1       1.416   7.322  20.918  0.00  0.00    +0.000 C 
ATOM     21  O   UNL     1       0.285   6.923  20.665  0.00  0.00    +0.000 OA
ATOM     22  N   UNL     1       1.753   8.546  21.456  0.00  0.00    +0.000 N 
ATOM     23  H   UNL     1       3.287   6.628  21.286  0.00  0.00    +0.000 HD
ATOM     24  H   UNL     1       2.700   8.847  21.282  0.00  0.00    +0.000 HD
BRANCH  22  25
ATOM     25  C   UNL     1       0.818   9.536  21.835  0.00  0.00    +0.000 A 
ATOM     26  C   UNL     1       0.076   9.460  23.019  0.00  0.00    +0.000 A 
ATOM     27  C   UNL     1      -0.926  10.392  23.300  0.00  0.00    +0.000 A 
ATOM     28  C   UNL     1      -1.175  11.424  22.403  0.00  0.00    +0.000 A 
ATOM     29 BR   UNL     1      -2.587  12.633  22.738  0.00  0.00    +0.000 Br
ATOM     30  C   UNL     1      -0.399  11.556  21.253  0.00  0.00    +0.000 A 
ATOM     31  C   UNL     1       0.606  10.620  20.975  0.00  0.00    +0.000 A 
ENDBRANCH  22  25
ENDBRANCH  18  19
ENDBRANCH   4  18
TORSDOF 5
ENDMDL
MODEL 3
REMARK VINA RESULT:      -8.2      5.488      7.318
REMARK  Name = 
REMARK  6 active torsions:
REMARK  status: ('A' for Active; 'I' for Inactive)
REMARK    1  A    between atoms: C_1  and  C_2
REMARK    2  A    between atoms: N_4  and  C_5
REMARK    3  A    between atoms: C_7  and  O_8
REMARK    4  A    between atoms: C_9  and  C_10
REMARK    5  A    between atoms: C_10  and  N_11
REMARK    6  A    between atoms: N_14  and  C_15
REMARK                            x       y       z     vdW  Elec       q    Type
REMARK                         _______ _______ _______ _____ _____    ______ ____
ROOT
ATOM      1  C   UNL     1       4.853   5.446  16.771  0.00  0.00    +0.000 C 
ATOM      2  C   UNL     1       5.674   5.916  17.967  0.00  0.00    +0.000 C 
ATOM      3  C   UNL     1       5.903   4.649  18.758  0.00  0.00    +0.000 C 
ATOM      4  C   UNL     1       4.688   3.781  18.419  0.00  0.00    +0.000 C 
ATOM      5  O   UNL     1       4.152   4.250  17.164  0.00  0.00    +0.000 OA
ENDROOT
BRANCH   1   9
ATOM      6  C   UNL     1       5.387   3.188  12.371  0.00  0.00    +0.000 C 
ATOM      7  C   UNL     1       5.870   4.093  13.456  0.00  0.00    +0.000 A 
ATOM      8  C   UNL     1       5.171   4.366  14.562  0.00  0.00    +0.000 A 
ATOM      9  N   UNL     1       5.639   5.193  15.563  0.00  0.00    +0.000 N 
ATOM     10  C   UNL     1       6.906   5.756  15.496  0.00  0.00    +0.000 A 
ATOM     11  O   UNL     1       7.399   6.454  16.382  0.00  0.00    +0.000 OA
ATOM     12  N   UNL     1       7.613   5.497  14.351  0.00  0.00    +0.000 N 
ATOM     13  C   UNL     1       7.202   4.723  13.305  0.00  0.00    +0.000 A 
ATOM     14  O   UNL     1       7.889   4.552  12.307  0.00  0.00    +0.000 OA
ATOM     15  H   UNL     1       8.522   5.921  14.273  0.00  0.00    +0.000 HD
ENDBRANCH   1   9
BRANCH   3  16
ATOM     16  O   UNL     1       7.111   4.044  18.293  0.00  0.00    +0.000 OA
ATOM     17  H   UNL     1       7.745   4.012  19.031  0.00  0.00    +0.000 HD
ENDBRANCH   3  16
BRANCH   4  18
ATOM     18  C   UNL     1       3.593   3.880  19.476  0.00  0.00    +0.000 C 
BRANCH  18  19
ATOM     19  N   UNL     1       3.529   5.205  20.080  0.00  0.00    +0.000 N 
ATOM     20  C   UNL     1       2.516   6.036  19.648  0.00  0.00    +0.000 C 
ATOM     21  O   UNL     1       1.758   5.695  18.748  0.00  0.00    +0.000 OA
ATOM     22  N   UNL     1       2.520   7.250  20.301  0.00  0.00    +0.000 N 
ATOM     23  H   UNL     1       3.728   5.248  21.071  0.00  0.00    +0.000 HD
ATOM     24  H   UNL     1       3.391   7.496  20.750  0.00  0.00    +0.000 HD
BRANCH  22  25
ATOM     25  C   UNL     1       1.606   8.297  20.046  0.00  0.00    +0.000 A 
ATOM     26  C   UNL     1       0.657   8.716  20.985  0.00  0.00    +0.000 A 
ATOM     27  C   UNL     1      -0.309   9.669  20.655  0.00  0.00    +0.000 A 
ATOM     28  C   UNL     1      -0.316  10.227  19.382  0.00  0.00    +0.000 A 
ATOM     29 BR   UNL     1      -1.674  11.450  18.904  0.00  0.00    +0.000 Br
ATOM     30  C   UNL     1       0.664   9.874  18.456  0.00  0.00    +0.000 A 
ATOM     31  C   UNL     1       1.633   8.919  18.792  0.00  0.00    +0.000 A 
ENDBRANCH  22  25
ENDBRANCH  18  19
ENDBRANCH   4  18
TORSDOF 5
ENDMDL
MODEL 4
REMARK VINA RESULT:      -8.2      1.433      1.754
REMARK  Name = 
REMARK  6 active torsions:
REMARK  status: ('A' for Active; 'I' for Inactive)
REMARK    1  A    between atoms: C_1  and  C_2
REMARK    2  A    between atoms: N_4  and  C_5
REMARK    3  A    between atoms: C_7  and  O_8
REMARK    4  A    between atoms: C_9  and  C_10
REMARK    5  A    between atoms: C_10  and  N_11
REMARK    6  A    between atoms: N_14  and  C_15
REMARK                            x       y       z     vdW  Elec       q    Type
REMARK                         _______ _______ _______ _____ _____    ______ ____
ROOT
ATOM      1  C   UNL     1       4.287   5.237  17.105  0.00  0.00    +0.000 C 
ATOM      2  C   UNL     1       5.435   4.331  16.672  0.00  0.00    +0.000 C 
ATOM      3  C   UNL     1       6.517   4.624  17.685  0.00  0.00    +0.000 C 
ATOM      4  C   UNL     1       6.241   6.068  18.109  0.00  0.00    +0.000 C 
ATOM      5  O   UNL     1       4.856   6.351  17.820  0.00  0.00    +0.000 OA
ENDROOT
BRANCH   1   9
ATOM      6  C   UNL     1       2.171   4.475  21.541  0.00  0.00    +0.000 C 
ATOM      7  C   UNL     1       2.280   4.227  20.073  0.00  0.00    +0.000 A 
ATOM      8  C   UNL     1       3.177   4.829  19.283  0.00  0.00    +0.000 A 
ATOM      9  N   UNL     1       3.276   4.576  17.930  0.00  0.00    +0.000 N 
ATOM     10  C   UNL     1       2.468   3.629  17.315  0.00  0.00    +0.000 A 
ATOM     11  O   UNL     1       2.549   3.322  16.125  0.00  0.00    +0.000 OA
ATOM     12  N   UNL     1       1.533   3.031  18.118  0.00  0.00    +0.000 N 
ATOM     13  C   UNL     1       1.351   3.256  19.451  0.00  0.00    +0.000 A 
ATOM     14  O   UNL     1       0.480   2.690  20.098  0.00  0.00    +0.000 OA
ATOM     15  H   UNL     1       0.920   2.363  17.682  0.00  0.00    +0.000 HD
ENDBRANCH   1   9
BRANCH   3  16
ATOM     16  O   UNL     1       6.355   3.727  18.785  0.00  0.00    +0.000 OA
ATOM     17  H   UNL     1       6.025   2.876  18.445  0.00  0.00    +0.000 HD
ENDBRANCH   3  16
BRANCH   4  18
ATOM     18  C   UNL     1       7.105   7.070  17.350  0.00  0.00    +0.000 C 
BRANCH  18  19
ATOM     19  N   UNL     1       8.177   7.610  18.178  0.00  0.00    +0.000 N 
ATOM     20  C   UNL     1       8.279   8.983  18.245  0.00  0.00    +0.000 C 
ATOM     21  O   UNL     1       7.546   9.706  17.579  0.00  0.00    +0.000 OA
ATOM     22  N   UNL     1       9.299   9.393  19.077  0.00  0.00    +0.000 N 
ATOM     23  H   UNL     1       8.350   7.121  19.047  0.00  0.00    +0.000 HD
ATOM     24  H   UNL     1      10.005   8.697  19.269  0.00  0.00    +0.000 HD
BRANCH  22  25
ATOM     25  C   UNL     1       9.639  10.743  19.319  0.00  0.00    +0.000 A 
ATOM     26  C   UNL     1       9.378  11.381  20.536  0.00  0.00    +0.000 A 
ATOM     27  C   UNL     1       9.616  12.748  20.697  0.00  0.00    +0.000 A 
ATOM     28  C   UNL     1      10.141  13.482  19.640  0.00  0.00    +0.000 A 
ATOM     29 BR   UNL     1      10.381  15.346  19.826  0.00  0.00    +0.000 Br
ATOM     30  C   UNL     1      10.473  12.850  18.443  0.00  0.00    +0.000 A 
ATOM     31  C   UNL     1      10.234  11.478  18.287  0.00  0.00    +0.000 A 
ENDBRANCH  22  25
ENDBRANCH  18  19
ENDBRANCH   4  18
TORSDOF 5
ENDMDL
MODEL 5
REMARK VINA RESULT:      -8.1      1.232      1.547
REMARK  Name = 
REMARK  6 active torsions:
REMARK  status: ('A' for Active; 'I' for Inactive)
REMARK    1  A    between atoms: C_1  and  C_2
REMARK    2  A    between atoms: N_4  and  C_5
REMARK    3  A    between atoms: C_7  and  O_8
REMARK    4  A    between atoms: C_9  and  C_10
REMARK    5  A    between atoms: C_10  and  N_11
REMARK    6  A    between atoms: N_14  and  C_15
REMARK                            x       y       z     vdW  Elec       q    Type
REMARK                         _______ _______ _______ _____ _____    ______ ____
ROOT
ATOM      1  C   UNL     1       4.125   6.130  17.831  0.00  0.00    +0.000 C 
ATOM      2  C   UNL     1       4.544   5.445  16.534  0.00  0.00    +0.000 C 
ATOM      3  C   UNL     1       5.907   4.881  16.857  0.00  0.00    +0.000 C 
ATOM      4  C   UNL     1       6.453   5.829  17.926  0.00  0.00    +0.000 C 
ATOM      5  O   UNL     1       5.326   6.486  18.543  0.00  0.00    +0.000 OA
ENDROOT
BRANCH   1   9
ATOM      6  C   UNL     1       2.155   1.724  19.033  0.00  0.00    +0.000 C 
ATOM      7  C   UNL     1       2.324   3.193  19.240  0.00  0.00    +0.000 A 
ATOM      8  C   UNL     1       3.124   3.960  18.493  0.00  0.00    +0.000 A 
ATOM      9  N   UNL     1       3.257   5.321  18.687  0.00  0.00    +0.000 N 
ATOM     10  C   UNL     1       2.515   5.984  19.654  0.00  0.00    +0.000 A 
ATOM     11  O   UNL     1       2.549   7.201  19.835  0.00  0.00    +0.000 OA
ATOM     12  N   UNL     1       1.713   5.194  20.436  0.00  0.00    +0.000 N 
ATOM     13  C   UNL     1       1.559   3.843  20.328  0.00  0.00    +0.000 A 
ATOM     14  O   UNL     1       0.832   3.205  21.078  0.00  0.00    +0.000 OA
ATOM     15  H   UNL     1       1.189   5.655  21.161  0.00  0.00    +0.000 HD
ENDBRANCH   1   9
BRANCH   3  16
ATOM     16  O   UNL     1       5.734   3.563  17.380  0.00  0.00    +0.000 OA
ATOM     17  H   UNL     1       5.572   3.629  18.338  0.00  0.00    +0.000 HD
ENDBRANCH   3  16
BRANCH   4  18
ATOM     18  C   UNL     1       7.370   6.897  17.340  0.00  0.00    +0.000 C 
BRANCH  18  19
ATOM     19  N   UNL     1       8.247   7.483  18.348  0.00  0.00    +0.000 N 
ATOM     20  C   UNL     1       8.376   8.856  18.337  0.00  0.00    +0.000 C 
ATOM     21  O   UNL     1       7.836   9.536  17.472  0.00  0.00    +0.000 OA
ATOM     22  N   UNL     1       9.196   9.312  19.346  0.00  0.00    +0.000 N 
ATOM     23  H   UNL     1       8.204   7.061  19.267  0.00  0.00    +0.000 HD
ATOM     24  H   UNL     1       9.818   8.622  19.743  0.00  0.00    +0.000 HD
BRANCH  22  25
ATOM     25  C   UNL     1       9.518  10.672  19.560  0.00  0.00    +0.000 A 
ATOM     26  C   UNL     1      10.064  11.485  18.561  0.00  0.00    +0.000 A 
ATOM     27  C   UNL     1      10.483  12.787  18.843  0.00  0.00    +0.000 A 
ATOM     28  C   UNL     1      10.335  13.293  20.129  0.00  0.00    +0.000 A 
ATOM     29 BR   UNL     1      10.981  15.021  20.534  0.00  0.00    +0.000 Br
ATOM     30  C   UNL     1       9.729  12.523  21.120  0.00  0.00    +0.000 A 
ATOM     31  C   UNL     1       9.308  11.217  20.832  0.00  0.00    +0.000 A 
ENDBRANCH  22  25
ENDBRANCH  18  19
ENDBRANCH   4  18
TORSDOF 5
ENDMDL
MODEL 6
REMARK VINA RESULT:      -8.1      5.370      7.637
REMARK  Name = 
REMARK  6 active torsions:
REMARK  status: ('A' for Active; 'I' for Inactive)
REMARK    1  A    between atoms: C_1  and  C_2
REMARK    2  A    between atoms: N_4  and  C_5
REMARK    3  A    between atoms: C_7  and  O_8
REMARK    4  A    between atoms: C_9  and  C_10
REMARK    5  A    between atoms: C_10  and  N_11
REMARK    6  A    between atoms: N_14  and  C_15
REMARK                            x       y       z     vdW  Elec       q    Type
REMARK                         _______ _______ _______ _____ _____    ______ ____
ROOT
ATOM      1  C   UNL     1       5.309   5.897  18.112  0.00  0.00    +0.000 C 
ATOM      2  C   UNL     1       5.765   4.947  19.214  0.00  0.00    +0.000 C 
ATOM      3  C   UNL     1       4.642   3.940  19.300  0.00  0.00    +0.000 C 
ATOM      4  C   UNL     1       3.410   4.727  18.847  0.00  0.00    +0.000 C 
ATOM      5  O   UNL     1       3.870   5.843  18.057  0.00  0.00    +0.000 OA
ENDROOT
BRANCH   1   9
ATOM      6  C   UNL     1       4.920   3.759  13.638  0.00  0.00    +0.000 C 
ATOM      7  C   UNL     1       5.659   4.566  14.653  0.00  0.00    +0.000 A 
ATOM      8  C   UNL     1       5.169   4.871  15.859  0.00  0.00    +0.000 A 
ATOM      9  N   UNL     1       5.872   5.605  16.793  0.00  0.00    +0.000 N 
ATOM     10  C   UNL     1       7.169   6.031  16.544  0.00  0.00    +0.000 A 
ATOM     11  O   UNL     1       7.864   6.639  17.358  0.00  0.00    +0.000 OA
ATOM     12  N   UNL     1       7.663   5.740  15.299  0.00  0.00    +0.000 N 
ATOM     13  C   UNL     1       7.016   5.054  14.313  0.00  0.00    +0.000 A 
ATOM     14  O   UNL     1       7.521   4.847  13.219  0.00  0.00    +0.000 OA
ATOM     15  H   UNL     1       8.592   6.066  15.091  0.00  0.00    +0.000 HD
ENDBRANCH   1   9
BRANCH   3  16
ATOM     16  O   UNL     1       4.928   2.871  18.397  0.00  0.00    +0.000 OA
ATOM     17  H   UNL     1       4.871   2.031  18.884  0.00  0.00    +0.000 HD
ENDBRANCH   3  16
BRANCH   4  18
ATOM     18  C   UNL     1       2.604   5.269  20.023  0.00  0.00    +0.000 C 
BRANCH  18  19
ATOM     19  N   UNL     1       2.563   6.727  20.035  0.00  0.00    +0.000 N 
ATOM     20  C   UNL     1       1.471   7.313  20.642  0.00  0.00    +0.000 C 
ATOM     21  O   UNL     1       0.551   6.633  21.081  0.00  0.00    +0.000 OA
ATOM     22  N   UNL     1       1.543   8.689  20.631  0.00  0.00    +0.000 N 
ATOM     23  H   UNL     1       3.448   7.191  20.199  0.00  0.00    +0.000 HD
ATOM     24  H   UNL     1       2.173   9.084  19.947  0.00  0.00    +0.000 HD
BRANCH  22  25
ATOM     25  C   UNL     1       0.554   9.544  21.169  0.00  0.00    +0.000 A 
ATOM     26  C   UNL     1      -0.051  10.561  20.422  0.00  0.00    +0.000 A 
ATOM     27  C   UNL     1      -0.933  11.464  21.020  0.00  0.00    +0.000 A 
ATOM     28  C   UNL     1      -1.233  11.338  22.372  0.00  0.00    +0.000 A 
ATOM     29 BR   UNL     1      -2.357  12.609  23.202  0.00  0.00    +0.000 Br
ATOM     30  C   UNL     1      -0.695  10.289  23.115  0.00  0.00    +0.000 A 
ATOM     31  C   UNL     1       0.188   9.385  22.510  0.00  0.00    +0.000 A 
ENDBRANCH  22  25
ENDBRANCH  18  19
ENDBRANCH   4  18
TORSDOF 5
ENDMDL
MODEL 7
REMARK VINA RESULT:      -8.0      5.639      8.064
REMARK  Name = 
REMARK  6 active torsions:
REMARK  status: ('A' for Active; 'I' for Inactive)
REMARK    1  A    between atoms: C_1  and  C_2
REMARK    2  A    between atoms: N_4  and  C_5
REMARK    3  A    between atoms: C_7  and  O_8
REMARK    4  A    between atoms: C_9  and  C_10
REMARK    5  A    between atoms: C_10  and  N_11
REMARK    6  A    between atoms: N_14  and  C_15
REMARK                            x       y       z     vdW  Elec       q    Type
REMARK                         _______ _______ _______ _____ _____    ______ ____
ROOT
ATOM      1  C   UNL     1       4.406   4.778  19.515  0.00  0.00    +0.000 C 
ATOM      2  C   UNL     1       3.248   3.790  19.418  0.00  0.00    +0.000 C 
ATOM      3  C   UNL     1       2.097   4.641  18.935  0.00  0.00    +0.000 C 
ATOM      4  C   UNL     1       2.423   6.037  19.471  0.00  0.00    +0.000 C 
ATOM      5  O   UNL     1       3.844   6.090  19.716  0.00  0.00    +0.000 OA
ENDROOT
BRANCH   1   9
ATOM      6  C   UNL     1       5.136   4.026  14.653  0.00  0.00    +0.000 C 
ATOM      7  C   UNL     1       5.614   4.413  16.014  0.00  0.00    +0.000 A 
ATOM      8  C   UNL     1       4.830   4.440  17.096  0.00  0.00    +0.000 A 
ATOM      9  N   UNL     1       5.291   4.784  18.351  0.00  0.00    +0.000 N 
ATOM     10  C   UNL     1       6.630   5.078  18.568  0.00  0.00    +0.000 A 
ATOM     11  O   UNL     1       7.109   5.337  19.672  0.00  0.00    +0.000 OA
ATOM     12  N   UNL     1       7.429   5.075  17.455  0.00  0.00    +0.000 N 
ATOM     13  C   UNL     1       7.038   4.782  16.181  0.00  0.00    +0.000 A 
ATOM     14  O   UNL     1       7.813   4.816  15.234  0.00  0.00    +0.000 OA
ATOM     15  H   UNL     1       8.397   5.314  17.589  0.00  0.00    +0.000 HD
ENDBRANCH   1   9
BRANCH   3  16
ATOM     16  O   UNL     1       2.098   4.627  17.506  0.00  0.00    +0.000 OA
ATOM     17  H   UNL     1       1.515   5.340  17.190  0.00  0.00    +0.000 HD
ENDBRANCH   3  16
BRANCH   4  18
ATOM     18  C   UNL     1       1.699   6.339  20.779  0.00  0.00    +0.000 C 
BRANCH  18  19
ATOM     19  N   UNL     1       1.805   7.744  21.154  0.00  0.00    +0.000 N 
ATOM     20  C   UNL     1       0.622   8.432  21.327  0.00  0.00    +0.000 C 
ATOM     21  O   UNL     1      -0.459   7.900  21.102  0.00  0.00    +0.000 OA
ATOM     22  N   UNL     1       0.828   9.739  21.713  0.00  0.00    +0.000 N 
ATOM     23  H   UNL     1       2.535   7.968  21.818  0.00  0.00    +0.000 HD
ATOM     24  H   UNL     1       1.750  10.105  21.522  0.00  0.00    +0.000 HD
BRANCH  22  25
ATOM     25  C   UNL     1      -0.204  10.676  21.945  0.00  0.00    +0.000 A 
ATOM     26  C   UNL     1      -0.947  10.703  23.130  0.00  0.00    +0.000 A 
ATOM     27  C   UNL     1      -2.040  11.562  23.274  0.00  0.00    +0.000 A 
ATOM     28  C   UNL     1      -2.381  12.419  22.234  0.00  0.00    +0.000 A 
ATOM     29 BR   UNL     1      -3.909  13.517  22.393  0.00  0.00    +0.000 Br
ATOM     30  C   UNL     1      -1.610  12.456  21.074  0.00  0.00    +0.000 A 
ATOM     31  C   UNL     1      -0.514  11.594  20.934  0.00  0.00    +0.000 A 
ENDBRANCH  22  25
ENDBRANCH  18  19
ENDBRANCH   4  18
TORSDOF 5
ENDMDL
MODEL 8
REMARK VINA RESULT:      -7.9      1.034      1.476
REMARK  Name = 
REMARK  6 active torsions:
REMARK  status: ('A' for Active; 'I' for Inactive)
REMARK    1  A    between atoms: C_1  and  C_2
REMARK    2  A    between atoms: N_4  and  C_5
REMARK    3  A    between atoms: C_7  and  O_8
REMARK    4  A    between atoms: C_9  and  C_10
REMARK    5  A    between atoms: C_10  and  N_11
REMARK    6  A    between atoms: N_14  and  C_15
REMARK                            x       y       z     vdW  Elec       q    Type
REMARK                         _______ _______ _______ _____ _____    ______ ____
ROOT
ATOM      1  C   UNL     1       4.870   6.122  17.131  0.00  0.00    +0.000 C 
ATOM      2  C   UNL     1       5.844   5.619  16.071  0.00  0.00    +0.000 C 
ATOM      3  C   UNL     1       7.139   5.453  16.830  0.00  0.00    +0.000 C 
ATOM      4  C   UNL     1       7.040   6.487  17.954  0.00  0.00    +0.000 C 
ATOM      5  O   UNL     1       5.641   6.783  18.153  0.00  0.00    +0.000 OA
ENDROOT
BRANCH   1   9
ATOM      6  C   UNL     1       2.191   4.406  20.955  0.00  0.00    +0.000 C 
ATOM      7  C   UNL     1       2.759   4.277  19.580  0.00  0.00    +0.000 A 
ATOM      8  C   UNL     1       3.506   5.219  18.994  0.00  0.00    +0.000 A 
ATOM      9  N   UNL     1       4.038   5.077  17.728  0.00  0.00    +0.000 N 
ATOM     10  C   UNL     1       3.863   3.906  17.003  0.00  0.00    +0.000 A 
ATOM     11  O   UNL     1       4.360   3.701  15.895  0.00  0.00    +0.000 OA
ATOM     12  N   UNL     1       3.078   2.951  17.593  0.00  0.00    +0.000 N 
ATOM     13  C   UNL     1       2.490   3.035  18.821  0.00  0.00    +0.000 A 
ATOM     14  O   UNL     1       1.787   2.140  19.273  0.00  0.00    +0.000 OA
ATOM     15  H   UNL     1       2.918   2.107  17.069  0.00  0.00    +0.000 HD
ENDBRANCH   1   9
BRANCH   3  16
ATOM     16  O   UNL     1       7.183   4.126  17.357  0.00  0.00    +0.000 OA
ATOM     17  H   UNL     1       6.787   3.521  16.706  0.00  0.00    +0.000 HD
ENDBRANCH   3  16
BRANCH   4  18
ATOM     18  C   UNL     1       7.761   7.787  17.612  0.00  0.00    +0.000 C 
BRANCH  18  19
ATOM     19  N   UNL     1       8.585   8.266  18.715  0.00  0.00    +0.000 N 
ATOM     20  C   UNL     1       8.834   9.621  18.763  0.00  0.00    +0.000 C 
ATOM     21  O   UNL     1       8.439  10.369  17.876  0.00  0.00    +0.000 OA
ATOM     22  N   UNL     1       9.590   9.977  19.859  0.00  0.00    +0.000 N 
ATOM     23  H   UNL     1       8.419   7.826  19.612  0.00  0.00    +0.000 HD
ATOM     24  H   UNL     1      10.110   9.224  20.287  0.00  0.00    +0.000 HD
BRANCH  22  25
ATOM     25  C   UNL     1      10.007  11.296  20.147  0.00  0.00    +0.000 A 
ATOM     26  C   UNL     1       9.398  12.082  21.132  0.00  0.00    +0.000 A 
ATOM     27  C   UNL     1       9.755  13.421  21.305  0.00  0.00    +0.000 A 
ATOM     28  C   UNL     1      10.746  13.977  20.504  0.00  0.00    +0.000 A 
ATOM     29 BR   UNL     1      11.168  15.810  20.677  0.00  0.00    +0.000 Br
ATOM     30  C   UNL     1      11.413  13.191  19.567  0.00  0.00    +0.000 A 
ATOM     31  C   UNL     1      11.053  11.847  19.397  0.00  0.00    +0.000 A 
ENDBRANCH  22  25
ENDBRANCH  18  19
ENDBRANCH   4  18
TORSDOF 5
ENDMDL
MODEL 9
REMARK VINA RESULT:      -7.9      1.388      2.133
REMARK  Name = 
REMARK  6 active torsions:
REMARK  status: ('A' for Active; 'I' for Inactive)
REMARK    1  A    between atoms: C_1  and  C_2
REMARK    2  A    between atoms: N_4  and  C_5
REMARK    3  A    between atoms: C_7  and  O_8
REMARK    4  A    between atoms: C_9  and  C_10
REMARK    5  A    between atoms: C_10  and  N_11
REMARK    6  A    between atoms: N_14  and  C_15
REMARK                            x       y       z     vdW  Elec       q    Type
REMARK                         _______ _______ _______ _____ _____    ______ ____
ROOT
ATOM      1  C   UNL     1       6.127   5.816  16.901  0.00  0.00    +0.000 C 
ATOM      2  C   UNL     1       7.393   5.166  17.451  0.00  0.00    +0.000 C 
ATOM      3  C   UNL     1       7.699   5.979  18.687  0.00  0.00    +0.000 C 
ATOM      4  C   UNL     1       7.114   7.358  18.373  0.00  0.00    +0.000 C 
ATOM      5  O   UNL     1       6.107   7.183  17.355  0.00  0.00    +0.000 OA
ENDROOT
BRANCH   1   9
ATOM      6  C   UNL     1       2.053   5.581  19.745  0.00  0.00    +0.000 C 
ATOM      7  C   UNL     1       2.941   5.053  18.667  0.00  0.00    +0.000 A 
ATOM      8  C   UNL     1       4.069   5.652  18.273  0.00  0.00    +0.000 A 
ATOM      9  N   UNL     1       4.887   5.141  17.286  0.00  0.00    +0.000 N 
ATOM     10  C   UNL     1       4.602   3.929  16.673  0.00  0.00    +0.000 A 
ATOM     11  O   UNL     1       5.323   3.397  15.828  0.00  0.00    +0.000 OA
ATOM     12  N   UNL     1       3.434   3.327  17.058  0.00  0.00    +0.000 N 
ATOM     13  C   UNL     1       2.558   3.789  17.997  0.00  0.00    +0.000 A 
ATOM     14  O   UNL     1       1.524   3.197  18.275  0.00  0.00    +0.000 OA
ATOM     15  H   UNL     1       3.197   2.461  16.603  0.00  0.00    +0.000 HD
ENDBRANCH   1   9
BRANCH   3  16
ATOM     16  O   UNL     1       7.028   5.378  19.796  0.00  0.00    +0.000 OA
ATOM     17  H   UNL     1       7.291   4.442  19.846  0.00  0.00    +0.000 HD
ENDBRANCH   3  16
BRANCH   4  18
ATOM     18  C   UNL     1       8.167   8.327  17.846  0.00  0.00    +0.000 C 
BRANCH  18  19
ATOM     19  N   UNL     1       8.950   8.926  18.921  0.00  0.00    +0.000 N 
ATOM     20  C   UNL     1       9.077  10.299  18.907  0.00  0.00    +0.000 C 
ATOM     21  O   UNL     1       8.612  10.969  17.992  0.00  0.00    +0.000 OA
ATOM     22  N   UNL     1       9.804  10.769  19.980  0.00  0.00    +0.000 N 
ATOM     23  H   UNL     1       8.828   8.513  19.837  0.00  0.00    +0.000 HD
ATOM     24  H   UNL     1      10.390  10.085  20.437  0.00  0.00    +0.000 HD
BRANCH  22  25
ATOM     25  C   UNL     1      10.102  12.131  20.208  0.00  0.00    +0.000 A 
ATOM     26  C   UNL     1      11.141  12.797  19.548  0.00  0.00    +0.000 A 
ATOM     27  C   UNL     1      11.484  14.108  19.888  0.00  0.00    +0.000 A 
ATOM     28  C   UNL     1      10.770  14.770  20.880  0.00  0.00    +0.000 A 
ATOM     29 BR   UNL     1      11.289  16.509  21.401  0.00  0.00    +0.000 Br
ATOM     30  C   UNL     1       9.687  14.148  21.498  0.00  0.00    +0.000 A 
ATOM     31  C   UNL     1       9.345  12.833  21.153  0.00  0.00    +0.000 A 
ENDBRANCH  22  25
ENDBRANCH  18  19
ENDBRANCH   4  18
TORSDOF 5
ENDMDL
