MODEL 1
REMARK VINA RESULT:      -6.5      0.000      0.000
REMARK  Name = 
REMARK  6 active torsions:
REMARK  status: ('A' for Active; 'I' for Inactive)
REMARK    1  A    between atoms: C_2  and  C_13
REMARK    2  A    between atoms: N_3  and  C_4
REMARK    3  A    between atoms: C_4  and  C_5
REMARK    4  A    between atoms: C_5  and  C_6
REMARK    5  A    between atoms: C_6  and  O_7
REMARK    6  A    between atoms: C_6  and  C_8
REMARK                            x       y       z     vdW  Elec       q    Type
REMARK                         _______ _______ _______ _____ _____    ______ ____
ROOT
ATOM      1  O   UNL     1       7.669   5.064  16.421  0.00  0.00    +0.000 OA
ATOM      2  C   UNL     1       6.715   5.083  15.648  0.00  0.00    +0.000 C 
ATOM      3  N   UNL     1       5.472   5.532  16.043  0.00  0.00    +0.000 N 
ATOM      4  H   UNL     1       4.727   5.530  15.356  0.00  0.00    +0.000 HD
ENDROOT
BRANCH   2   5
ATOM      5  C   UNL     1       6.821   4.641  14.275  0.00  0.00    +0.000 A 
ATOM      6  C   UNL     1       7.567   5.152  13.233  0.00  0.00    +0.000 A 
ATOM      7  C   UNL     1       7.255   4.386  12.088  0.00  0.00    +0.000 A 
ATOM      8  C   UNL     1       6.332   3.451  12.497  0.00  0.00    +0.000 A 
ATOM      9 BR   UNL     1       5.515   2.201  11.377  0.00  0.00    +0.000 Br
ATOM     10  O   UNL     1       6.073   3.579  13.827  0.00  0.00    +0.000 OA
ENDBRANCH   2   5
BRANCH   3  11
ATOM     11  C   UNL     1       5.223   5.982  17.400  0.00  0.00    +0.000 C 
BRANCH  11  12
ATOM     12  C   UNL     1       3.802   5.650  17.864  0.00  0.00    +0.000 C 
BRANCH  12  13
ATOM     13  C   UNL     1       3.563   4.137  17.893  0.00  0.00    +0.000 C 
BRANCH  13  14
ATOM     14  C   UNL     1       2.734   3.706  19.074  0.00  0.00    +0.000 A 
ATOM     15  C   UNL     1       1.410   3.992  19.363  0.00  0.00    +0.000 A 
ATOM     16  C   UNL     1       0.980   3.411  20.590  0.00  0.00    +0.000 A 
ATOM     17  C   UNL     1       1.985   2.699  21.204  0.00  0.00    +0.000 A 
ATOM     18  S   UNL     1       3.435   2.729  20.300  0.00  0.00    +0.000 S 
ENDBRANCH  13  14
BRANCH  13  19
ATOM     19  O   UNL     1       4.801   3.436  17.977  0.00  0.00    +0.000 OA
ATOM     20  H   UNL     1       5.241   3.704  18.802  0.00  0.00    +0.000 HD
ENDBRANCH  13  19
ENDBRANCH  12  13
ENDBRANCH  11  12
ENDBRANCH   3  11
TORSDOF 6
ENDMDL
MODEL 2
REMARK VINA RESULT:      -6.5      1.400      1.467
REMARK  Name = 
REMARK  6 active torsions:
REMARK  status: ('A' for Active; 'I' for Inactive)
REMARK    1  A    between atoms: C_2  and  C_13
REMARK    2  A    between atoms: N_3  and  C_4
REMARK    3  A    between atoms: C_4  and  C_5
REMARK    4  A    between atoms: C_5  and  C_6
REMARK    5  A    between atoms: C_6  and  O_7
REMARK    6  A    between atoms: C_6  and  C_8
REMARK                            x       y       z     vdW  Elec       q    Type
REMARK                         _______ _______ _______ _____ _____    ______ ____
ROOT
ATOM      1  O   UNL     1       6.000   6.577  16.177  0.00  0.00    +0.000 OA
ATOM      2  C   UNL     1       6.296   5.400  15.991  0.00  0.00    +0.000 C 
ATOM      3  N   UNL     1       6.558   4.545  17.041  0.00  0.00    +0.000 N 
ATOM      4  H   UNL     1       6.790   3.583  16.823  0.00  0.00    +0.000 HD
ENDROOT
BRANCH   2   5
ATOM      5  C   UNL     1       6.390   4.824  14.668  0.00  0.00    +0.000 A 
ATOM      6  C   UNL     1       7.452   4.788  13.787  0.00  0.00    +0.000 A 
ATOM      7  C   UNL     1       6.990   4.162  12.609  0.00  0.00    +0.000 A 
ATOM      8  C   UNL     1       5.667   3.853  12.837  0.00  0.00    +0.000 A 
ATOM      9 BR   UNL     1       4.529   3.061  11.588  0.00  0.00    +0.000 Br
ATOM     10  O   UNL     1       5.294   4.230  14.090  0.00  0.00    +0.000 OA
ENDBRANCH   2   5
BRANCH   3  11
ATOM     11  C   UNL     1       6.522   5.000  18.419  0.00  0.00    +0.000 C 
BRANCH  11  12
ATOM     12  C   UNL     1       5.112   4.930  19.011  0.00  0.00    +0.000 C 
BRANCH  12  13
ATOM     13  C   UNL     1       4.472   3.559  18.768  0.00  0.00    +0.000 C 
BRANCH  13  14
ATOM     14  C   UNL     1       3.075   3.467  19.324  0.00  0.00    +0.000 A 
ATOM     15  C   UNL     1       2.571   3.977  20.508  0.00  0.00    +0.000 A 
ATOM     16  C   UNL     1       1.193   3.670  20.694  0.00  0.00    +0.000 A 
ATOM     17  C   UNL     1       0.683   2.935  19.648  0.00  0.00    +0.000 A 
ATOM     18  S   UNL     1       1.861   2.624  18.449  0.00  0.00    +0.000 S 
ENDBRANCH  13  14
BRANCH  13  19
ATOM     19  O   UNL     1       5.236   2.532  19.395  0.00  0.00    +0.000 OA
ATOM     20  H   UNL     1       4.813   1.680  19.196  0.00  0.00    +0.000 HD
ENDBRANCH  13  19
ENDBRANCH  12  13
ENDBRANCH  11  12
ENDBRANCH   3  11
TORSDOF 6
ENDMDL
MODEL 3
REMARK VINA RESULT:      -6.4      2.202      3.396
REMARK  Name = 
REMARK  6 active torsions:
REMARK  status: ('A' for Active; 'I' for Inactive)
REMARK    1  A    between atoms: C_2  and  C_13
REMARK    2  A    between atoms: N_3  and  C_4
REMARK    3  A    between atoms: C_4  and  C_5
REMARK    4  A    between atoms: C_5  and  C_6
REMARK    5  A    between atoms: C_6  and  O_7
REMARK    6  A    between atoms: C_6  and  C_8
REMARK                            x       y       z     vdW  Elec       q    Type
REMARK                         _______ _______ _______ _____ _____    ______ ____
ROOT
ATOM      1  O   UNL     1       5.502   4.268  19.315  0.00  0.00    +0.000 OA
ATOM      2  C   UNL     1       5.251   3.737  18.237  0.00  0.00    +0.000 C 
ATOM      3  N   UNL     1       4.284   2.761  18.118  0.00  0.00    +0.000 N 
ATOM      4  H   UNL     1       4.119   2.367  17.200  0.00  0.00    +0.000 HD
ENDROOT
BRANCH   2   5
ATOM      5  C   UNL     1       5.942   4.093  17.018  0.00  0.00    +0.000 A 
ATOM      6  C   UNL     1       6.961   5.000  16.806  0.00  0.00    +0.000 A 
ATOM      7  C   UNL     1       7.226   5.008  15.419  0.00  0.00    +0.000 A 
ATOM      8  C   UNL     1       6.349   4.105  14.861  0.00  0.00    +0.000 A 
ATOM      9 BR   UNL     1       6.208   3.749  13.034  0.00  0.00    +0.000 Br
ATOM     10  O   UNL     1       5.577   3.526  15.821  0.00  0.00    +0.000 OA
ENDBRANCH   2   5
BRANCH   3  11
ATOM     11  C   UNL     1       3.532   2.293  19.268  0.00  0.00    +0.000 C 
BRANCH  11  12
ATOM     12  C   UNL     1       2.081   1.960  18.909  0.00  0.00    +0.000 C 
BRANCH  12  13
ATOM     13  C   UNL     1       1.118   3.033  19.426  0.00  0.00    +0.000 C 
BRANCH  13  14
ATOM     14  C   UNL     1       1.638   4.429  19.208  0.00  0.00    +0.000 A 
ATOM     15  C   UNL     1       1.881   5.095  18.018  0.00  0.00    +0.000 A 
ATOM     16  C   UNL     1       2.389   6.411  18.220  0.00  0.00    +0.000 A 
ATOM     17  C   UNL     1       2.519   6.713  19.557  0.00  0.00    +0.000 A 
ATOM     18  S   UNL     1       2.027   5.418  20.557  0.00  0.00    +0.000 S 
ENDBRANCH  13  14
BRANCH  13  19
ATOM     19  O   UNL     1       0.907   2.883  20.828  0.00  0.00    +0.000 OA
ATOM     20  H   UNL     1       0.004   3.184  21.029  0.00  0.00    +0.000 HD
ENDBRANCH  13  19
ENDBRANCH  12  13
ENDBRANCH  11  12
ENDBRANCH   3  11
TORSDOF 6
ENDMDL
MODEL 4
REMARK VINA RESULT:      -6.4      1.120      1.198
REMARK  Name = 
REMARK  6 active torsions:
REMARK  status: ('A' for Active; 'I' for Inactive)
REMARK    1  A    between atoms: C_2  and  C_13
REMARK    2  A    between atoms: N_3  and  C_4
REMARK    3  A    between atoms: C_4  and  C_5
REMARK    4  A    between atoms: C_5  and  C_6
REMARK    5  A    between atoms: C_6  and  O_7
REMARK    6  A    between atoms: C_6  and  C_8
REMARK                            x       y       z     vdW  Elec       q    Type
REMARK                         _______ _______ _______ _____ _____    ______ ____
ROOT
ATOM      1  O   UNL     1       7.562   4.883  16.501  0.00  0.00    +0.000 OA
ATOM      2  C   UNL     1       6.817   5.271  15.605  0.00  0.00    +0.000 C 
ATOM      3  N   UNL     1       5.853   6.231  15.831  0.00  0.00    +0.000 N 
ATOM      4  H   UNL     1       5.274   6.514  15.049  0.00  0.00    +0.000 HD
ENDROOT
BRANCH   2   5
ATOM      5  C   UNL     1       6.894   4.757  14.256  0.00  0.00    +0.000 A 
ATOM      6  C   UNL     1       7.669   5.169  13.191  0.00  0.00    +0.000 A 
ATOM      7  C   UNL     1       7.310   4.368  12.084  0.00  0.00    +0.000 A 
ATOM      8  C   UNL     1       6.331   3.513  12.537  0.00  0.00    +0.000 A 
ATOM      9 BR   UNL     1       5.437   2.263  11.478  0.00  0.00    +0.000 Br
ATOM     10  O   UNL     1       6.082   3.722  13.859  0.00  0.00    +0.000 OA
ENDBRANCH   2   5
BRANCH   3  11
ATOM     11  C   UNL     1       5.653   6.813  17.146  0.00  0.00    +0.000 C 
BRANCH  11  12
ATOM     12  C   UNL     1       4.323   6.382  17.769  0.00  0.00    +0.000 C 
BRANCH  12  13
ATOM     13  C   UNL     1       4.478   5.088  18.575  0.00  0.00    +0.000 C 
BRANCH  13  14
ATOM     14  C   UNL     1       3.162   4.569  19.092  0.00  0.00    +0.000 A 
ATOM     15  C   UNL     1       2.428   4.988  20.189  0.00  0.00    +0.000 A 
ATOM     16  C   UNL     1       1.230   4.237  20.366  0.00  0.00    +0.000 A 
ATOM     17  C   UNL     1       1.083   3.267  19.401  0.00  0.00    +0.000 A 
ATOM     18  S   UNL     1       2.380   3.269  18.288  0.00  0.00    +0.000 S 
ENDBRANCH  13  14
BRANCH  13  19
ATOM     19  O   UNL     1       5.314   5.301  19.709  0.00  0.00    +0.000 OA
ATOM     20  H   UNL     1       4.812   5.049  20.502  0.00  0.00    +0.000 HD
ENDBRANCH  13  19
ENDBRANCH  12  13
ENDBRANCH  11  12
ENDBRANCH   3  11
TORSDOF 6
ENDMDL
MODEL 5
REMARK VINA RESULT:      -6.4      3.511      4.383
REMARK  Name = 
REMARK  6 active torsions:
REMARK  status: ('A' for Active; 'I' for Inactive)
REMARK    1  A    between atoms: C_2  and  C_13
REMARK    2  A    between atoms: N_3  and  C_4
REMARK    3  A    between atoms: C_4  and  C_5
REMARK    4  A    between atoms: C_5  and  C_6
REMARK    5  A    between atoms: C_6  and  O_7
REMARK    6  A    between atoms: C_6  and  C_8
REMARK                            x       y       z     vdW  Elec       q    Type
REMARK                         _______ _______ _______ _____ _____    ______ ____
ROOT
ATOM      1  O   UNL     1       5.445   6.640  15.520  0.00  0.00    +0.000 OA
ATOM      2  C   UNL     1       5.981   6.124  16.497  0.00  0.00    +0.000 C 
ATOM      3  N   UNL     1       5.687   4.834  16.885  0.00  0.00    +0.000 N 
ATOM      4  H   UNL     1       6.168   4.462  17.696  0.00  0.00    +0.000 HD
ENDROOT
BRANCH   2   5
ATOM      5  C   UNL     1       6.954   6.822  17.306  0.00  0.00    +0.000 A 
ATOM      6  C   UNL     1       7.669   6.391  18.405  0.00  0.00    +0.000 A 
ATOM      7  C   UNL     1       8.434   7.490  18.857  0.00  0.00    +0.000 A 
ATOM      8  C   UNL     1       8.139   8.532  18.007  0.00  0.00    +0.000 A 
ATOM      9 BR   UNL     1       8.823  10.261  18.167  0.00  0.00    +0.000 Br
ATOM     10  O   UNL     1       7.258   8.137  17.047  0.00  0.00    +0.000 OA
ENDBRANCH   2   5
BRANCH   3  11
ATOM     11  C   UNL     1       4.710   4.030  16.174  0.00  0.00    +0.000 C 
BRANCH  11  12
ATOM     12  C   UNL     1       3.500   3.689  17.048  0.00  0.00    +0.000 C 
BRANCH  12  13
ATOM     13  C   UNL     1       3.454   4.565  18.304  0.00  0.00    +0.000 C 
BRANCH  13  14
ATOM     14  C   UNL     1       2.717   3.907  19.440  0.00  0.00    +0.000 A 
ATOM     15  C   UNL     1       1.411   4.097  19.860  0.00  0.00    +0.000 A 
ATOM     16  C   UNL     1       1.076   3.296  20.989  0.00  0.00    +0.000 A 
ATOM     17  C   UNL     1       2.135   2.518  21.400  0.00  0.00    +0.000 A 
ATOM     18  S   UNL     1       3.519   2.752  20.425  0.00  0.00    +0.000 S 
ENDBRANCH  13  14
BRANCH  13  19
ATOM     19  O   UNL     1       2.787   5.795  18.033  0.00  0.00    +0.000 OA
ATOM     20  H   UNL     1       1.860   5.592  17.822  0.00  0.00    +0.000 HD
ENDBRANCH  13  19
ENDBRANCH  12  13
ENDBRANCH  11  12
ENDBRANCH   3  11
TORSDOF 6
ENDMDL
MODEL 6
REMARK VINA RESULT:      -6.3      1.215      1.350
REMARK  Name = 
REMARK  6 active torsions:
REMARK  status: ('A' for Active; 'I' for Inactive)
REMARK    1  A    between atoms: C_2  and  C_13
REMARK    2  A    between atoms: N_3  and  C_4
REMARK    3  A    between atoms: C_4  and  C_5
REMARK    4  A    between atoms: C_5  and  C_6
REMARK    5  A    between atoms: C_6  and  O_7
REMARK    6  A    between atoms: C_6  and  C_8
REMARK                            x       y       z     vdW  Elec       q    Type
REMARK                         _______ _______ _______ _____ _____    ______ ____
ROOT
ATOM      1  O   UNL     1       6.788   6.386  16.394  0.00  0.00    +0.000 OA
ATOM      2  C   UNL     1       6.039   5.543  15.906  0.00  0.00    +0.000 C 
ATOM      3  N   UNL     1       4.891   5.135  16.551  0.00  0.00    +0.000 N 
ATOM      4  H   UNL     1       4.311   4.442  16.093  0.00  0.00    +0.000 HD
ENDROOT
BRANCH   2   5
ATOM      5  C   UNL     1       6.301   4.922  14.627  0.00  0.00    +0.000 A 
ATOM      6  C   UNL     1       7.424   4.975  13.826  0.00  0.00    +0.000 A 
ATOM      7  C   UNL     1       7.130   4.242  12.654  0.00  0.00    +0.000 A 
ATOM      8  C   UNL     1       5.841   3.785  12.806  0.00  0.00    +0.000 A 
ATOM      9 BR   UNL     1       4.903   2.802  11.527  0.00  0.00    +0.000 Br
ATOM     10  O   UNL     1       5.330   4.172  14.008  0.00  0.00    +0.000 OA
ENDBRANCH   2   5
BRANCH   3  11
ATOM     11  C   UNL     1       4.522   5.662  17.853  0.00  0.00    +0.000 C 
BRANCH  11  12
ATOM     12  C   UNL     1       5.081   4.811  18.996  0.00  0.00    +0.000 C 
BRANCH  12  13
ATOM     13  C   UNL     1       4.605   3.358  18.895  0.00  0.00    +0.000 C 
BRANCH  13  14
ATOM     14  C   UNL     1       3.117   3.223  19.083  0.00  0.00    +0.000 A 
ATOM     15  C   UNL     1       2.182   2.630  18.251  0.00  0.00    +0.000 A 
ATOM     16  C   UNL     1       0.857   2.715  18.768  0.00  0.00    +0.000 A 
ATOM     17  C   UNL     1       0.818   3.369  19.979  0.00  0.00    +0.000 A 
ATOM     18  S   UNL     1       2.370   3.872  20.487  0.00  0.00    +0.000 S 
ENDBRANCH  13  14
BRANCH  13  19
ATOM     19  O   UNL     1       5.224   2.557  19.898  0.00  0.00    +0.000 OA
ATOM     20  H   UNL     1       4.669   2.594  20.695  0.00  0.00    +0.000 HD
ENDBRANCH  13  19
ENDBRANCH  12  13
ENDBRANCH  11  12
ENDBRANCH   3  11
TORSDOF 6
ENDMDL
MODEL 7
REMARK VINA RESULT:      -6.3      1.241      1.327
REMARK  Name = 
REMARK  6 active torsions:
REMARK  status: ('A' for Active; 'I' for Inactive)
REMARK    1  A    between atoms: C_2  and  C_13
REMARK    2  A    between atoms: N_3  and  C_4
REMARK    3  A    between atoms: C_4  and  C_5
REMARK    4  A    between atoms: C_5  and  C_6
REMARK    5  A    between atoms: C_6  and  O_7
REMARK    6  A    between atoms: C_6  and  C_8
REMARK                            x       y       z     vdW  Elec       q    Type
REMARK                         _______ _______ _______ _____ _____    ______ ____
ROOT
ATOM      1  O   UNL     1       7.973   4.229  16.819  0.00  0.00    +0.000 OA
ATOM      2  C   UNL     1       7.117   4.781  16.133  0.00  0.00    +0.000 C 
ATOM      3  N   UNL     1       6.204   5.657  16.682  0.00  0.00    +0.000 N 
ATOM      4  H   UNL     1       5.528   6.086  16.062  0.00  0.00    +0.000 HD
ENDROOT
BRANCH   2   5
ATOM      5  C   UNL     1       7.005   4.561  14.708  0.00  0.00    +0.000 A 
ATOM      6  C   UNL     1       7.691   5.142  13.662  0.00  0.00    +0.000 A 
ATOM      7  C   UNL     1       7.148   4.616  12.469  0.00  0.00    +0.000 A 
ATOM      8  C   UNL     1       6.156   3.744  12.856  0.00  0.00    +0.000 A 
ATOM      9 BR   UNL     1       5.051   2.801  11.684  0.00  0.00    +0.000 Br
ATOM     10  O   UNL     1       6.070   3.684  14.213  0.00  0.00    +0.000 OA
ENDBRANCH   2   5
BRANCH   3  11
ATOM     11  C   UNL     1       6.191   5.949  18.104  0.00  0.00    +0.000 C 
BRANCH  11  12
ATOM     12  C   UNL     1       5.334   4.953  18.888  0.00  0.00    +0.000 C 
BRANCH  12  13
ATOM     13  C   UNL     1       3.868   5.397  18.939  0.00  0.00    +0.000 C 
BRANCH  13  14
ATOM     14  C   UNL     1       2.912   4.233  18.929  0.00  0.00    +0.000 A 
ATOM     15  C   UNL     1       1.654   4.141  18.358  0.00  0.00    +0.000 A 
ATOM     16  C   UNL     1       1.045   2.872  18.574  0.00  0.00    +0.000 A 
ATOM     17  C   UNL     1       1.855   2.030  19.302  0.00  0.00    +0.000 A 
ATOM     18  S   UNL     1       3.339   2.769  19.717  0.00  0.00    +0.000 S 
ENDBRANCH  13  14
BRANCH  13  19
ATOM     19  O   UNL     1       3.550   6.205  17.809  0.00  0.00    +0.000 OA
ATOM     20  H   UNL     1       3.390   5.614  17.054  0.00  0.00    +0.000 HD
ENDBRANCH  13  19
ENDBRANCH  12  13
ENDBRANCH  11  12
ENDBRANCH   3  11
TORSDOF 6
ENDMDL
MODEL 8
REMARK VINA RESULT:      -6.2      1.357      1.562
REMARK  Name = 
REMARK  6 active torsions:
REMARK  status: ('A' for Active; 'I' for Inactive)
REMARK    1  A    between atoms: C_2  and  C_13
REMARK    2  A    between atoms: N_3  and  C_4
REMARK    3  A    between atoms: C_4  and  C_5
REMARK    4  A    between atoms: C_5  and  C_6
REMARK    5  A    between atoms: C_6  and  O_7
REMARK    6  A    between atoms: C_6  and  C_8
REMARK                            x       y       z     vdW  Elec       q    Type
REMARK                         _______ _______ _______ _____ _____    ______ ____
ROOT
ATOM      1  O   UNL     1       7.611   5.214  14.838  0.00  0.00    +0.000 OA
ATOM      2  C   UNL     1       6.521   4.668  14.694  0.00  0.00    +0.000 C 
ATOM      3  N   UNL     1       5.565   4.688  15.689  0.00  0.00    +0.000 N 
ATOM      4  H   UNL     1       4.682   4.225  15.507  0.00  0.00    +0.000 HD
ENDROOT
BRANCH   2   5
ATOM      5  C   UNL     1       6.157   3.970  13.482  0.00  0.00    +0.000 A 
ATOM      6  C   UNL     1       6.936   3.234  12.612  0.00  0.00    +0.000 A 
ATOM      7  C   UNL     1       6.096   2.823  11.553  0.00  0.00    +0.000 A 
ATOM      8  C   UNL     1       4.850   3.335  11.836  0.00  0.00    +0.000 A 
ATOM      9 BR   UNL     1       3.351   3.154  10.739  0.00  0.00    +0.000 Br
ATOM     10  O   UNL     1       4.865   4.016  13.015  0.00  0.00    +0.000 OA
ENDBRANCH   2   5
BRANCH   3  11
ATOM     11  C   UNL     1       5.810   5.334  16.965  0.00  0.00    +0.000 C 
BRANCH  11  12
ATOM     12  C   UNL     1       4.594   5.254  17.893  0.00  0.00    +0.000 C 
BRANCH  12  13
ATOM     13  C   UNL     1       4.285   3.806  18.283  0.00  0.00    +0.000 C 
BRANCH  13  14
ATOM     14  C   UNL     1       3.071   3.693  19.168  0.00  0.00    +0.000 A 
ATOM     15  C   UNL     1       2.423   2.556  19.621  0.00  0.00    +0.000 A 
ATOM     16  C   UNL     1       1.293   2.857  20.434  0.00  0.00    +0.000 A 
ATOM     17  C   UNL     1       1.109   4.214  20.578  0.00  0.00    +0.000 A 
ATOM     18  S   UNL     1       2.297   5.114  19.742  0.00  0.00    +0.000 S 
ENDBRANCH  13  14
BRANCH  13  19
ATOM     19  O   UNL     1       5.376   3.237  19.002  0.00  0.00    +0.000 OA
ATOM     20  H   UNL     1       5.807   2.584  18.425  0.00  0.00    +0.000 HD
ENDBRANCH  13  19
ENDBRANCH  12  13
ENDBRANCH  11  12
ENDBRANCH   3  11
TORSDOF 6
ENDMDL
MODEL 9
REMARK VINA RESULT:      -6.2      1.610      1.771
REMARK  Name = 
REMARK  6 active torsions:
REMARK  status: ('A' for Active; 'I' for Inactive)
REMARK    1  A    between atoms: C_2  and  C_13
REMARK    2  A    between atoms: N_3  and  C_4
REMARK    3  A    between atoms: C_4  and  C_5
REMARK    4  A    between atoms: C_5  and  C_6
REMARK    5  A    between atoms: C_6  and  O_7
REMARK    6  A    between atoms: C_6  and  C_8
REMARK                            x       y       z     vdW  Elec       q    Type
REMARK                         _______ _______ _______ _____ _____    ______ ____
ROOT
ATOM      1  O   UNL     1       7.833   4.536  16.346  0.00  0.00    +0.000 OA
ATOM      2  C   UNL     1       6.744   4.426  15.791  0.00  0.00    +0.000 C 
ATOM      3  N   UNL     1       5.562   4.477  16.500  0.00  0.00    +0.000 N 
ATOM      4  H   UNL     1       4.695   4.388  15.984  0.00  0.00    +0.000 HD
ENDROOT
BRANCH   2   5
ATOM      5  C   UNL     1       6.616   4.238  14.363  0.00  0.00    +0.000 A 
ATOM      6  C   UNL     1       7.476   4.585  13.341  0.00  0.00    +0.000 A 
ATOM      7  C   UNL     1       6.841   4.232  12.130  0.00  0.00    +0.000 A 
ATOM      8  C   UNL     1       5.625   3.691  12.483  0.00  0.00    +0.000 A 
ATOM      9 BR   UNL     1       4.331   3.103  11.273  0.00  0.00    +0.000 Br
ATOM     10  O   UNL     1       5.483   3.668  13.836  0.00  0.00    +0.000 OA
ENDBRANCH   2   5
BRANCH   3  11
ATOM     11  C   UNL     1       5.547   4.639  17.943  0.00  0.00    +0.000 C 
BRANCH  11  12
ATOM     12  C   UNL     1       4.588   5.746  18.388  0.00  0.00    +0.000 C 
BRANCH  12  13
ATOM     13  C   UNL     1       3.796   5.332  19.632  0.00  0.00    +0.000 C 
BRANCH  13  14
ATOM     14  C   UNL     1       2.915   4.135  19.383  0.00  0.00    +0.000 A 
ATOM     15  C   UNL     1       2.977   2.873  19.947  0.00  0.00    +0.000 A 
ATOM     16  C   UNL     1       1.972   1.997  19.444  0.00  0.00    +0.000 A 
ATOM     17  C   UNL     1       1.171   2.615  18.510  0.00  0.00    +0.000 A 
ATOM     18  S   UNL     1       1.629   4.241  18.249  0.00  0.00    +0.000 S 
ENDBRANCH  13  14
BRANCH  13  19
ATOM     19  O   UNL     1       2.944   6.391  20.060  0.00  0.00    +0.000 OA
ATOM     20  H   UNL     1       2.515   6.767  19.273  0.00  0.00    +0.000 HD
ENDBRANCH  13  19
ENDBRANCH  12  13
ENDBRANCH  11  12
ENDBRANCH   3  11
TORSDOF 6
ENDMDL
