MODEL 1
REMARK VINA RESULT:      -8.4      0.000      0.000
REMARK  Name = 
REMARK  5 active torsions:
REMARK  status: ('A' for Active; 'I' for Inactive)
REMARK    1  A    between atoms: C_1  and  N_2
REMARK    2  A    between atoms: C_3  and  C_4
REMARK    3  A    between atoms: C_4  and  C_5
REMARK    4  A    between atoms: C_9  and  O_10
REMARK    5  A    between atoms: O_10  and  C_11
REMARK                            x       y       z     vdW  Elec       q    Type
REMARK                         _______ _______ _______ _____ _____    ______ ____
ROOT
ATOM      1  C   UNL     1       3.328   4.535  17.368  0.00  0.00    +0.000 A 
ATOM      2  C   UNL     1       3.044   5.842  17.785  0.00  0.00    +0.000 A 
ATOM      3  C   UNL     1       3.958   6.876  17.565  0.00  0.00    +0.000 A 
ATOM      4  C   UNL     1       5.161   6.619  16.910  0.00  0.00    +0.000 A 
ATOM      5  C   UNL     1       5.444   5.332  16.456  0.00  0.00    +0.000 A 
ATOM      6  C   UNL     1       4.542   4.289  16.705  0.00  0.00    +0.000 A 
ENDROOT
BRANCH   1   7
ATOM      7  C   UNL     1       2.383   3.396  17.679  0.00  0.00    +0.000 C 
BRANCH   7  10
ATOM      8  C   UNL     1       4.222   2.357  19.990  0.00  0.00    +0.000 C 
ATOM      9  N   UNL     1       2.853   2.804  20.079  0.00  0.00    +0.000 N 
ATOM     10  C   UNL     1       2.005   3.254  19.131  0.00  0.00    +0.000 A 
ATOM     11  N   UNL     1       0.798   3.495  19.567  0.00  0.00    +0.000 NA
ATOM     12  N   UNL     1       0.850   3.168  20.892  0.00  0.00    +0.000 N 
ATOM     13  C   UNL     1       2.111   2.699  21.228  0.00  0.00    +0.000 A 
ATOM     14  O   UNL     1       2.456   2.254  22.310  0.00  0.00    +0.000 OA
ATOM     15  H   UNL     1       0.037   3.165  21.494  0.00  0.00    +0.000 HD
ENDBRANCH   7  10
ENDBRANCH   1   7
BRANCH   5  16
ATOM     16  O   UNL     1       6.669   5.158  15.849  0.00  0.00    +0.000 OA
BRANCH  16  17
ATOM     17  C   UNL     1       6.719   4.751  14.536  0.00  0.00    +0.000 A 
ATOM     18  C   UNL     1       5.874   3.783  13.987  0.00  0.00    +0.000 A 
ATOM     19  C   UNL     1       6.003   3.421  12.646  0.00  0.00    +0.000 A 
ATOM     20  C   UNL     1       6.944   4.060  11.839  0.00  0.00    +0.000 A 
ATOM     21  C   UNL     1       7.752   5.065  12.369  0.00  0.00    +0.000 A 
ATOM     22  C   UNL     1       7.639   5.410  13.717  0.00  0.00    +0.000 A 
ENDBRANCH  16  17
ENDBRANCH   5  16
TORSDOF 4
ENDMDL
MODEL 2
REMARK VINA RESULT:      -8.2      1.372      1.601
REMARK  Name = 
REMARK  5 active torsions:
REMARK  status: ('A' for Active; 'I' for Inactive)
REMARK    1  A    between atoms: C_1  and  N_2
REMARK    2  A    between atoms: C_3  and  C_4
REMARK    3  A    between atoms: C_4  and  C_5
REMARK    4  A    between atoms: C_9  and  O_10
REMARK    5  A    between atoms: O_10  and  C_11
REMARK                            x       y       z     vdW  Elec       q    Type
REMARK                         _______ _______ _______ _____ _____    ______ ____
ROOT
ATOM      1  C   UNL     1       4.725   4.938  18.408  0.00  0.00    +0.000 A 
ATOM      2  C   UNL     1       3.934   6.075  18.192  0.00  0.00    +0.000 A 
ATOM      3  C   UNL     1       4.245   6.979  17.172  0.00  0.00    +0.000 A 
ATOM      4  C   UNL     1       5.341   6.747  16.343  0.00  0.00    +0.000 A 
ATOM      5  C   UNL     1       6.117   5.603  16.520  0.00  0.00    +0.000 A 
ATOM      6  C   UNL     1       5.825   4.714  17.563  0.00  0.00    +0.000 A 
ENDROOT
BRANCH   1   7
ATOM      7  C   UNL     1       4.446   4.003  19.562  0.00  0.00    +0.000 C 
BRANCH   7  10
ATOM      8  C   UNL     1       2.821   2.028  17.755  0.00  0.00    +0.000 C 
ATOM      9  N   UNL     1       2.362   2.745  18.919  0.00  0.00    +0.000 N 
ATOM     10  C   UNL     1       3.000   3.611  19.734  0.00  0.00    +0.000 A 
ATOM     11  N   UNL     1       2.237   4.138  20.654  0.00  0.00    +0.000 NA
ATOM     12  N   UNL     1       1.006   3.592  20.419  0.00  0.00    +0.000 N 
ATOM     13  C   UNL     1       1.050   2.749  19.320  0.00  0.00    +0.000 A 
ATOM     14  O   UNL     1       0.105   2.174  18.808  0.00  0.00    +0.000 OA
ATOM     15  H   UNL     1       0.173   3.872  20.919  0.00  0.00    +0.000 HD
ENDBRANCH   7  10
ENDBRANCH   1   7
BRANCH   5  16
ATOM     16  O   UNL     1       7.202   5.470  15.679  0.00  0.00    +0.000 OA
BRANCH  16  17
ATOM     17  C   UNL     1       7.025   4.906  14.436  0.00  0.00    +0.000 A 
ATOM     18  C   UNL     1       6.099   3.897  14.161  0.00  0.00    +0.000 A 
ATOM     19  C   UNL     1       5.996   3.375  12.872  0.00  0.00    +0.000 A 
ATOM     20  C   UNL     1       6.784   3.893  11.844  0.00  0.00    +0.000 A 
ATOM     21  C   UNL     1       7.670   4.937  12.103  0.00  0.00    +0.000 A 
ATOM     22  C   UNL     1       7.791   5.444  13.399  0.00  0.00    +0.000 A 
ENDBRANCH  16  17
ENDBRANCH   5  16
TORSDOF 4
ENDMDL
MODEL 3
REMARK VINA RESULT:      -8.1      1.622      2.218
REMARK  Name = 
REMARK  5 active torsions:
REMARK  status: ('A' for Active; 'I' for Inactive)
REMARK    1  A    between atoms: C_1  and  N_2
REMARK    2  A    between atoms: C_3  and  C_4
REMARK    3  A    between atoms: C_4  and  C_5
REMARK    4  A    between atoms: C_9  and  O_10
REMARK    5  A    between atoms: O_10  and  C_11
REMARK                            x       y       z     vdW  Elec       q    Type
REMARK                         _______ _______ _______ _____ _____    ______ ____
ROOT
ATOM      1  C   UNL     1       4.809   5.998  18.028  0.00  0.00    +0.000 A 
ATOM      2  C   UNL     1       5.518   5.353  19.051  0.00  0.00    +0.000 A 
ATOM      3  C   UNL     1       6.810   4.869  18.829  0.00  0.00    +0.000 A 
ATOM      4  C   UNL     1       7.417   5.039  17.587  0.00  0.00    +0.000 A 
ATOM      5  C   UNL     1       6.741   5.710  16.569  0.00  0.00    +0.000 A 
ATOM      6  C   UNL     1       5.433   6.167  16.781  0.00  0.00    +0.000 A 
ENDROOT
BRANCH   1   7
ATOM      7  C   UNL     1       3.380   6.447  18.234  0.00  0.00    +0.000 C 
BRANCH   7  10
ATOM      8  C   UNL     1       2.339   3.604  17.438  0.00  0.00    +0.000 C 
ATOM      9  N   UNL     1       2.126   4.311  18.677  0.00  0.00    +0.000 N 
ATOM     10  C   UNL     1       2.536   5.531  19.082  0.00  0.00    +0.000 A 
ATOM     11  N   UNL     1       2.080   5.884  20.255  0.00  0.00    +0.000 NA
ATOM     12  N   UNL     1       1.305   4.828  20.643  0.00  0.00    +0.000 N 
ATOM     13  C   UNL     1       1.287   3.850  19.660  0.00  0.00    +0.000 A 
ATOM     14  O   UNL     1       0.628   2.825  19.669  0.00  0.00    +0.000 OA
ATOM     15  H   UNL     1       0.739   4.837  21.481  0.00  0.00    +0.000 HD
ENDBRANCH   7  10
ENDBRANCH   1   7
BRANCH   5  16
ATOM     16  O   UNL     1       7.401   5.804  15.362  0.00  0.00    +0.000 OA
BRANCH  16  17
ATOM     17  C   UNL     1       6.991   5.021  14.307  0.00  0.00    +0.000 A 
ATOM     18  C   UNL     1       5.869   4.189  14.343  0.00  0.00    +0.000 A 
ATOM     19  C   UNL     1       5.535   3.418  13.229  0.00  0.00    +0.000 A 
ATOM     20  C   UNL     1       6.291   3.515  12.061  0.00  0.00    +0.000 A 
ATOM     21  C   UNL     1       7.379   4.385  12.004  0.00  0.00    +0.000 A 
ATOM     22  C   UNL     1       7.729   5.138  13.127  0.00  0.00    +0.000 A 
ENDBRANCH  16  17
ENDBRANCH   5  16
TORSDOF 4
ENDMDL
MODEL 4
REMARK VINA RESULT:      -8.1      0.439      1.128
REMARK  Name = 
REMARK  5 active torsions:
REMARK  status: ('A' for Active; 'I' for Inactive)
REMARK    1  A    between atoms: C_1  and  N_2
REMARK    2  A    between atoms: C_3  and  C_4
REMARK    3  A    between atoms: C_4  and  C_5
REMARK    4  A    between atoms: C_9  and  O_10
REMARK    5  A    between atoms: O_10  and  C_11
REMARK                            x       y       z     vdW  Elec       q    Type
REMARK                         _______ _______ _______ _____ _____    ______ ____
ROOT
ATOM      1  C   UNL     1       3.585   4.290  17.371  0.00  0.00    +0.000 A 
ATOM      2  C   UNL     1       3.109   5.519  17.846  0.00  0.00    +0.000 A 
ATOM      3  C   UNL     1       3.809   6.702  17.593  0.00  0.00    +0.000 A 
ATOM      4  C   UNL     1       4.986   6.672  16.846  0.00  0.00    +0.000 A 
ATOM      5  C   UNL     1       5.455   5.463  16.336  0.00  0.00    +0.000 A 
ATOM      6  C   UNL     1       4.770   4.273  16.617  0.00  0.00    +0.000 A 
ENDROOT
BRANCH   1   7
ATOM      7  C   UNL     1       2.880   2.997  17.714  0.00  0.00    +0.000 C 
BRANCH   7  10
ATOM      8  C   UNL     1       3.996   2.414  20.580  0.00  0.00    +0.000 C 
ATOM      9  N   UNL     1       2.646   2.760  20.208  0.00  0.00    +0.000 N 
ATOM     10  C   UNL     1       2.097   3.015  19.002  0.00  0.00    +0.000 A 
ATOM     11  N   UNL     1       0.807   3.215  19.035  0.00  0.00    +0.000 NA
ATOM     12  N   UNL     1       0.480   3.067  20.354  0.00  0.00    +0.000 N 
ATOM     13  C   UNL     1       1.604   2.746  21.100  0.00  0.00    +0.000 A 
ATOM     14  O   UNL     1       1.632   2.474  22.288  0.00  0.00    +0.000 OA
ATOM     15  H   UNL     1      -0.473   3.078  20.691  0.00  0.00    +0.000 HD
ENDBRANCH   7  10
ENDBRANCH   1   7
BRANCH   5  16
ATOM     16  O   UNL     1       6.642   5.519  15.639  0.00  0.00    +0.000 OA
BRANCH  16  17
ATOM     17  C   UNL     1       6.706   4.986  14.372  0.00  0.00    +0.000 A 
ATOM     18  C   UNL     1       7.721   5.270  13.455  0.00  0.00    +0.000 A 
ATOM     19  C   UNL     1       7.698   4.693  12.185  0.00  0.00    +0.000 A 
ATOM     20  C   UNL     1       6.689   3.793  11.846  0.00  0.00    +0.000 A 
ATOM     21  C   UNL     1       5.705   3.464  12.777  0.00  0.00    +0.000 A 
ATOM     22  C   UNL     1       5.713   4.060  14.039  0.00  0.00    +0.000 A 
ENDBRANCH  16  17
ENDBRANCH   5  16
TORSDOF 4
ENDMDL
MODEL 5
REMARK VINA RESULT:      -8.1      1.578      2.317
REMARK  Name = 
REMARK  5 active torsions:
REMARK  status: ('A' for Active; 'I' for Inactive)
REMARK    1  A    between atoms: C_1  and  N_2
REMARK    2  A    between atoms: C_3  and  C_4
REMARK    3  A    between atoms: C_4  and  C_5
REMARK    4  A    between atoms: C_9  and  O_10
REMARK    5  A    between atoms: O_10  and  C_11
REMARK                            x       y       z     vdW  Elec       q    Type
REMARK                         _______ _______ _______ _____ _____    ______ ____
ROOT
ATOM      1  C   UNL     1       4.549   5.799  17.751  0.00  0.00    +0.000 A 
ATOM      2  C   UNL     1       5.233   5.395  18.906  0.00  0.00    +0.000 A 
ATOM      3  C   UNL     1       6.606   5.141  18.870  0.00  0.00    +0.000 A 
ATOM      4  C   UNL     1       7.317   5.306  17.683  0.00  0.00    +0.000 A 
ATOM      5  C   UNL     1       6.660   5.741  16.533  0.00  0.00    +0.000 A 
ATOM      6  C   UNL     1       5.277   5.965  16.562  0.00  0.00    +0.000 A 
ENDROOT
BRANCH   1   7
ATOM      7  C   UNL     1       3.049   5.992  17.762  0.00  0.00    +0.000 C 
BRANCH   7  10
ATOM      8  C   UNL     1       1.929   5.503  20.644  0.00  0.00    +0.000 C 
ATOM      9  N   UNL     1       1.793   4.656  19.485  0.00  0.00    +0.000 N 
ATOM     10  C   UNL     1       2.252   4.799  18.224  0.00  0.00    +0.000 A 
ATOM     11  N   UNL     1       2.005   3.778  17.448  0.00  0.00    +0.000 NA
ATOM     12  N   UNL     1       1.349   2.895  18.257  0.00  0.00    +0.000 N 
ATOM     13  C   UNL     1       1.237   3.403  19.542  0.00  0.00    +0.000 A 
ATOM     14  O   UNL     1       0.776   2.826  20.513  0.00  0.00    +0.000 OA
ATOM     15  H   UNL     1       1.097   1.960  17.964  0.00  0.00    +0.000 HD
ENDBRANCH   7  10
ENDBRANCH   1   7
BRANCH   5  16
ATOM     16  O   UNL     1       7.431   5.844  15.396  0.00  0.00    +0.000 OA
BRANCH  16  17
ATOM     17  C   UNL     1       7.100   5.099  14.287  0.00  0.00    +0.000 A 
ATOM     18  C   UNL     1       7.764   5.186  13.061  0.00  0.00    +0.000 A 
ATOM     19  C   UNL     1       7.352   4.399  11.985  0.00  0.00    +0.000 A 
ATOM     20  C   UNL     1       6.307   3.489  12.146  0.00  0.00    +0.000 A 
ATOM     21  C   UNL     1       5.678   3.361  13.383  0.00  0.00    +0.000 A 
ATOM     22  C   UNL     1       6.074   4.165  14.454  0.00  0.00    +0.000 A 
ENDBRANCH  16  17
ENDBRANCH   5  16
TORSDOF 4
ENDMDL
MODEL 6
REMARK VINA RESULT:      -8.0      1.498      1.857
REMARK  Name = 
REMARK  5 active torsions:
REMARK  status: ('A' for Active; 'I' for Inactive)
REMARK    1  A    between atoms: C_1  and  N_2
REMARK    2  A    between atoms: C_3  and  C_4
REMARK    3  A    between atoms: C_4  and  C_5
REMARK    4  A    between atoms: C_9  and  O_10
REMARK    5  A    between atoms: O_10  and  C_11
REMARK                            x       y       z     vdW  Elec       q    Type
REMARK                         _______ _______ _______ _____ _____    ______ ____
ROOT
ATOM      1  C   UNL     1       4.563   5.401  17.792  0.00  0.00    +0.000 A 
ATOM      2  C   UNL     1       5.278   5.347  18.996  0.00  0.00    +0.000 A 
ATOM      3  C   UNL     1       6.674   5.397  19.001  0.00  0.00    +0.000 A 
ATOM      4  C   UNL     1       7.374   5.520  17.801  0.00  0.00    +0.000 A 
ATOM      5  C   UNL     1       6.678   5.611  16.597  0.00  0.00    +0.000 A 
ATOM      6  C   UNL     1       5.279   5.528  16.590  0.00  0.00    +0.000 A 
ENDROOT
BRANCH   1   7
ATOM      7  C   UNL     1       3.058   5.261  17.772  0.00  0.00    +0.000 C 
BRANCH   7  10
ATOM      8  C   UNL     1       1.943   5.106  20.694  0.00  0.00    +0.000 C 
ATOM      9  N   UNL     1       2.046   4.040  19.727  0.00  0.00    +0.000 N 
ATOM     10  C   UNL     1       2.519   4.034  18.463  0.00  0.00    +0.000 A 
ATOM     11  N   UNL     1       2.534   2.853  17.906  0.00  0.00    +0.000 NA
ATOM     12  N   UNL     1       2.051   2.020  18.875  0.00  0.00    +0.000 N 
ATOM     13  C   UNL     1       1.774   2.731  20.033  0.00  0.00    +0.000 A 
ATOM     14  O   UNL     1       1.406   2.267  21.099  0.00  0.00    +0.000 OA
ATOM     15  H   UNL     1       2.021   1.014  18.775  0.00  0.00    +0.000 HD
ENDBRANCH   7  10
ENDBRANCH   1   7
BRANCH   5  16
ATOM     16  O   UNL     1       7.448   5.695  15.457  0.00  0.00    +0.000 OA
BRANCH  16  17
ATOM     17  C   UNL     1       7.089   4.967  14.346  0.00  0.00    +0.000 A 
ATOM     18  C   UNL     1       6.082   3.998  14.340  0.00  0.00    +0.000 A 
ATOM     19  C   UNL     1       5.793   3.298  13.168  0.00  0.00    +0.000 A 
ATOM     20  C   UNL     1       6.474   3.598  11.989  0.00  0.00    +0.000 A 
ATOM     21  C   UNL     1       7.441   4.602  11.979  0.00  0.00    +0.000 A 
ATOM     22  C   UNL     1       7.748   5.286  13.156  0.00  0.00    +0.000 A 
ENDBRANCH  16  17
ENDBRANCH   5  16
TORSDOF 4
ENDMDL
MODEL 7
REMARK VINA RESULT:      -8.0      1.467      1.902
REMARK  Name = 
REMARK  5 active torsions:
REMARK  status: ('A' for Active; 'I' for Inactive)
REMARK    1  A    between atoms: C_1  and  N_2
REMARK    2  A    between atoms: C_3  and  C_4
REMARK    3  A    between atoms: C_4  and  C_5
REMARK    4  A    between atoms: C_9  and  O_10
REMARK    5  A    between atoms: O_10  and  C_11
REMARK                            x       y       z     vdW  Elec       q    Type
REMARK                         _______ _______ _______ _____ _____    ______ ____
ROOT
ATOM      1  C   UNL     1       4.956   4.893  18.264  0.00  0.00    +0.000 A 
ATOM      2  C   UNL     1       4.320   6.140  18.208  0.00  0.00    +0.000 A 
ATOM      3  C   UNL     1       4.719   7.104  17.278  0.00  0.00    +0.000 A 
ATOM      4  C   UNL     1       5.748   6.826  16.380  0.00  0.00    +0.000 A 
ATOM      5  C   UNL     1       6.367   5.578  16.398  0.00  0.00    +0.000 A 
ATOM      6  C   UNL     1       5.989   4.623  17.352  0.00  0.00    +0.000 A 
ENDROOT
BRANCH   1   7
ATOM      7  C   UNL     1       4.588   3.878  19.323  0.00  0.00    +0.000 C 
BRANCH   7  10
ATOM      8  C   UNL     1       1.650   4.612  20.119  0.00  0.00    +0.000 C 
ATOM      9  N   UNL     1       2.109   3.449  19.400  0.00  0.00    +0.000 N 
ATOM     10  C   UNL     1       3.350   3.068  19.032  0.00  0.00    +0.000 A 
ATOM     11  N   UNL     1       3.399   1.896  18.456  0.00  0.00    +0.000 NA
ATOM     12  N   UNL     1       2.101   1.469  18.458  0.00  0.00    +0.000 N 
ATOM     13  C   UNL     1       1.283   2.404  19.074  0.00  0.00    +0.000 A 
ATOM     14  O   UNL     1       0.091   2.284  19.305  0.00  0.00    +0.000 OA
ATOM     15  H   UNL     1       1.823   0.546  18.154  0.00  0.00    +0.000 HD
ENDBRANCH   7  10
ENDBRANCH   1   7
BRANCH   5  16
ATOM     16  O   UNL     1       7.398   5.399  15.500  0.00  0.00    +0.000 OA
BRANCH  16  17
ATOM     17  C   UNL     1       7.131   4.838  14.272  0.00  0.00    +0.000 A 
ATOM     18  C   UNL     1       6.149   3.869  14.053  0.00  0.00    +0.000 A 
ATOM     19  C   UNL     1       5.955   3.345  12.774  0.00  0.00    +0.000 A 
ATOM     20  C   UNL     1       6.709   3.824  11.703  0.00  0.00    +0.000 A 
ATOM     21  C   UNL     1       7.652   4.830  11.908  0.00  0.00    +0.000 A 
ATOM     22  C   UNL     1       7.863   5.337  13.192  0.00  0.00    +0.000 A 
ENDBRANCH  16  17
ENDBRANCH   5  16
TORSDOF 4
ENDMDL
MODEL 8
REMARK VINA RESULT:      -8.0      3.508      7.050
REMARK  Name = 
REMARK  5 active torsions:
REMARK  status: ('A' for Active; 'I' for Inactive)
REMARK    1  A    between atoms: C_1  and  N_2
REMARK    2  A    between atoms: C_3  and  C_4
REMARK    3  A    between atoms: C_4  and  C_5
REMARK    4  A    between atoms: C_9  and  O_10
REMARK    5  A    between atoms: O_10  and  C_11
REMARK                            x       y       z     vdW  Elec       q    Type
REMARK                         _______ _______ _______ _____ _____    ______ ____
ROOT
ATOM      1  C   UNL     1       2.634   4.359  18.532  0.00  0.00    +0.000 A 
ATOM      2  C   UNL     1       1.745   3.575  19.279  0.00  0.00    +0.000 A 
ATOM      3  C   UNL     1       1.060   4.115  20.370  0.00  0.00    +0.000 A 
ATOM      4  C   UNL     1       1.241   5.452  20.718  0.00  0.00    +0.000 A 
ATOM      5  C   UNL     1       2.094   6.257  19.964  0.00  0.00    +0.000 A 
ATOM      6  C   UNL     1       2.806   5.707  18.890  0.00  0.00    +0.000 A 
ENDROOT
BRANCH   1   7
ATOM      7  C   UNL     1       3.443   3.760  17.404  0.00  0.00    +0.000 C 
BRANCH   7  10
ATOM      8  C   UNL     1       5.279   4.473  14.970  0.00  0.00    +0.000 C 
ATOM      9  N   UNL     1       5.653   4.361  16.359  0.00  0.00    +0.000 N 
ATOM     10  C   UNL     1       4.922   4.052  17.450  0.00  0.00    +0.000 A 
ATOM     11  N   UNL     1       5.620   3.961  18.551  0.00  0.00    +0.000 NA
ATOM     12  N   UNL     1       6.902   4.213  18.154  0.00  0.00    +0.000 N 
ATOM     13  C   UNL     1       6.955   4.429  16.785  0.00  0.00    +0.000 A 
ATOM     14  O   UNL     1       7.959   4.600  16.116  0.00  0.00    +0.000 OA
ATOM     15  H   UNL     1       7.698   4.130  18.773  0.00  0.00    +0.000 HD
ENDBRANCH   7  10
ENDBRANCH   1   7
BRANCH   5  16
ATOM     16  O   UNL     1       2.241   7.557  20.398  0.00  0.00    +0.000 OA
BRANCH  16  17
ATOM     17  C   UNL     1       1.379   8.524  19.933  0.00  0.00    +0.000 A 
ATOM     18  C   UNL     1       0.429   9.169  20.729  0.00  0.00    +0.000 A 
ATOM     19  C   UNL     1      -0.414  10.130  20.170  0.00  0.00    +0.000 A 
ATOM     20  C   UNL     1      -0.276  10.484  18.828  0.00  0.00    +0.000 A 
ATOM     21  C   UNL     1       0.708   9.882  18.045  0.00  0.00    +0.000 A 
ATOM     22  C   UNL     1       1.535   8.902  18.597  0.00  0.00    +0.000 A 
ENDBRANCH  16  17
ENDBRANCH   5  16
TORSDOF 4
ENDMDL
MODEL 9
REMARK VINA RESULT:      -7.9      3.507      7.071
REMARK  Name = 
REMARK  5 active torsions:
REMARK  status: ('A' for Active; 'I' for Inactive)
REMARK    1  A    between atoms: C_1  and  N_2
REMARK    2  A    between atoms: C_3  and  C_4
REMARK    3  A    between atoms: C_4  and  C_5
REMARK    4  A    between atoms: C_9  and  O_10
REMARK    5  A    between atoms: O_10  and  C_11
REMARK                            x       y       z     vdW  Elec       q    Type
REMARK                         _______ _______ _______ _____ _____    ______ ____
ROOT
ATOM      1  C   UNL     1       2.640   4.344  18.590  0.00  0.00    +0.000 A 
ATOM      2  C   UNL     1       1.746   3.571  19.344  0.00  0.00    +0.000 A 
ATOM      3  C   UNL     1       1.055   4.128  20.423  0.00  0.00    +0.000 A 
ATOM      4  C   UNL     1       1.235   5.470  20.751  0.00  0.00    +0.000 A 
ATOM      5  C   UNL     1       2.092   6.263  19.990  0.00  0.00    +0.000 A 
ATOM      6  C   UNL     1       2.810   5.697  18.928  0.00  0.00    +0.000 A 
ENDROOT
BRANCH   1   7
ATOM      7  C   UNL     1       3.455   3.727  17.476  0.00  0.00    +0.000 C 
BRANCH   7  10
ATOM      8  C   UNL     1       5.272   4.450  15.030  0.00  0.00    +0.000 C 
ATOM      9  N   UNL     1       5.653   4.349  16.418  0.00  0.00    +0.000 N 
ATOM     10  C   UNL     1       4.930   4.037  17.514  0.00  0.00    +0.000 A 
ATOM     11  N   UNL     1       5.634   3.960  18.612  0.00  0.00    +0.000 NA
ATOM     12  N   UNL     1       6.912   4.225  18.208  0.00  0.00    +0.000 N 
ATOM     13  C   UNL     1       6.956   4.434  16.838  0.00  0.00    +0.000 A 
ATOM     14  O   UNL     1       7.955   4.614  16.163  0.00  0.00    +0.000 OA
ATOM     15  H   UNL     1       7.711   4.154  18.823  0.00  0.00    +0.000 HD
ENDBRANCH   7  10
ENDBRANCH   1   7
BRANCH   5  16
ATOM     16  O   UNL     1       2.238   7.570  20.405  0.00  0.00    +0.000 OA
BRANCH  16  17
ATOM     17  C   UNL     1       1.442   8.545  19.849  0.00  0.00    +0.000 A 
ATOM     18  C   UNL     1       1.519   8.948  18.514  0.00  0.00    +0.000 A 
ATOM     19  C   UNL     1       0.679   9.956  18.038  0.00  0.00    +0.000 A 
ATOM     20  C   UNL     1      -0.271  10.529  18.883  0.00  0.00    +0.000 A 
ATOM     21  C   UNL     1      -0.388  10.091  20.201  0.00  0.00    +0.000 A 
ATOM     22  C   UNL     1       0.468   9.099  20.684  0.00  0.00    +0.000 A 
ENDBRANCH  16  17
ENDBRANCH   5  16
TORSDOF 4
ENDMDL
