MODEL 1
REMARK VINA RESULT:      -8.0      0.000      0.000
REMARK  Name = 
REMARK  7 active torsions:
REMARK  status: ('A' for Active; 'I' for Inactive)
REMARK    1  A    between atoms: C_1  and  O_2
REMARK    2  A    between atoms: O_2  and  C_3
REMARK    3  A    between atoms: C_7  and  N_8
REMARK    4  A    between atoms: N_11  and  C_12
REMARK    5  A    between atoms: C_18  and  N_19
REMARK    6  A    between atoms: N_22  and  C_23
REMARK    7  A    between atoms: C_31  and  O_32
REMARK                            x       y       z     vdW  Elec       q    Type
REMARK                         _______ _______ _______ _____ _____    ______ ____
ROOT
ATOM      1  C   UNL     1      -0.396  13.451  19.636  0.00  0.00    +0.000 C 
ATOM      2  C   UNL     1       0.652  13.931  18.595  0.00  0.00    +0.000 C 
ATOM      3  C   UNL     1       1.905  14.502  19.226  0.00  0.00    +0.000 C 
ATOM      4  O   UNL     1       2.622  13.348  19.687  0.00  0.00    +0.000 OA
ATOM      5  C   UNL     1       2.077  12.254  18.920  0.00  0.00    +0.000 C 
ATOM      6  O   UNL     1       1.205  12.797  17.923  0.00  0.00    +0.000 OA
ATOM      7  C   UNL     1       1.248  11.370  19.881  0.00  0.00    +0.000 C 
ATOM      8  C   UNL     1       0.115  12.259  20.507  0.00  0.00    +0.000 C 
ENDROOT
BRANCH   1  12
ATOM      9  N   UNL     1      -3.791  12.254  18.926  0.00  0.00    +0.000 N 
ATOM     10  C   UNL     1      -2.732  12.590  19.745  0.00  0.00    +0.000 C 
ATOM     11  O   UNL     1      -2.676  12.498  20.963  0.00  0.00    +0.000 OA
ATOM     12  N   UNL     1      -1.683  13.098  19.007  0.00  0.00    +0.000 N 
ATOM     13  H   UNL     1      -3.647  12.381  17.937  0.00  0.00    +0.000 HD
ATOM     14  H   UNL     1      -1.647  12.806  18.042  0.00  0.00    +0.000 HD
BRANCH   9  19
ATOM     15  C   UNL     1      -6.864  11.857  20.952  0.00  0.00    +0.000 A 
ATOM     16  C   UNL     1      -7.551  10.885  20.226  0.00  0.00    +0.000 A 
ATOM     17  C   UNL     1      -7.010  10.364  19.055  0.00  0.00    +0.000 A 
ATOM     18  C   UNL     1      -5.769  10.808  18.601  0.00  0.00    +0.000 A 
ATOM     19  C   UNL     1      -5.061  11.780  19.316  0.00  0.00    +0.000 A 
ATOM     20  C   UNL     1      -5.620  12.305  20.493  0.00  0.00    +0.000 A 
BRANCH  15  22
ATOM     21  C   UNL     1      -6.829  13.186  22.935  0.00  0.00    +0.000 C 
ATOM     22  O   UNL     1      -7.507  12.269  22.087  0.00  0.00    +0.000 OA
ENDBRANCH  15  22
ENDBRANCH   9  19
ENDBRANCH   1  12
BRANCH   7  23
ATOM     23  N   UNL     1       0.717  10.076  19.380  0.00  0.00    +0.000 NA
ATOM     24  C   UNL     1       1.427   9.434  18.256  0.00  0.00    +0.000 C 
ATOM     25  C   UNL     1       2.574   8.458  18.601  0.00  0.00    +0.000 C 
ATOM     26  N   UNL     1       2.166   7.495  19.626  0.00  0.00    +0.000 N 
ATOM     27  C   UNL     1       1.558   8.095  20.823  0.00  0.00    +0.000 C 
ATOM     28  C   UNL     1       0.428   9.083  20.440  0.00  0.00    +0.000 C 
BRANCH  26  29
ATOM     29  C   UNL     1       1.930   6.164  19.332  0.00  0.00    +0.000 A 
ATOM     30  C   UNL     1       1.484   5.290  20.336  0.00  0.00    +0.000 A 
ATOM     31  C   UNL     1       1.270   3.929  20.092  0.00  0.00    +0.000 A 
ATOM     32  C   UNL     1       1.493   3.410  18.823  0.00  0.00    +0.000 A 
ATOM     33  C   UNL     1       1.937   4.249  17.808  0.00  0.00    +0.000 A 
ATOM     34  C   UNL     1       2.156   5.609  18.064  0.00  0.00    +0.000 A 
ENDBRANCH  26  29
ENDBRANCH   7  23
BRANCH   8  35
ATOM     35  O   UNL     1       0.531  12.777  21.789  0.00  0.00    +0.000 OA
ATOM     36  H   UNL     1       1.092  13.557  21.627  0.00  0.00    +0.000 HD
ENDBRANCH   8  35
TORSDOF 6
ENDMDL
MODEL 2
REMARK VINA RESULT:      -8.0      0.840      1.642
REMARK  Name = 
REMARK  7 active torsions:
REMARK  status: ('A' for Active; 'I' for Inactive)
REMARK    1  A    between atoms: C_1  and  O_2
REMARK    2  A    between atoms: O_2  and  C_3
REMARK    3  A    between atoms: C_7  and  N_8
REMARK    4  A    between atoms: N_11  and  C_12
REMARK    5  A    between atoms: C_18  and  N_19
REMARK    6  A    between atoms: N_22  and  C_23
REMARK    7  A    between atoms: C_31  and  O_32
REMARK                            x       y       z     vdW  Elec       q    Type
REMARK                         _______ _______ _______ _____ _____    ______ ____
ROOT
ATOM      1  C   UNL     1      -0.281  13.372  19.684  0.00  0.00    +0.000 C 
ATOM      2  C   UNL     1       0.640  13.861  18.533  0.00  0.00    +0.000 C 
ATOM      3  C   UNL     1       1.956  14.430  19.021  0.00  0.00    +0.000 C 
ATOM      4  O   UNL     1       2.723  13.275  19.389  0.00  0.00    +0.000 OA
ATOM      5  C   UNL     1       2.095  12.185  18.681  0.00  0.00    +0.000 C 
ATOM      6  O   UNL     1       1.115  12.733  17.794  0.00  0.00    +0.000 OA
ATOM      7  C   UNL     1       1.383  11.292  19.725  0.00  0.00    +0.000 C 
ATOM      8  C   UNL     1       0.328  12.175  20.482  0.00  0.00    +0.000 C 
ENDROOT
BRANCH   1  12
ATOM      9  N   UNL     1      -3.865  12.645  19.382  0.00  0.00    +0.000 N 
ATOM     10  C   UNL     1      -2.736  13.112  20.025  0.00  0.00    +0.000 C 
ATOM     11  O   UNL     1      -2.662  13.577  21.153  0.00  0.00    +0.000 OA
ATOM     12  N   UNL     1      -1.631  13.019  19.204  0.00  0.00    +0.000 N 
ATOM     13  H   UNL     1      -3.729  12.277  18.454  0.00  0.00    +0.000 HD
ATOM     14  H   UNL     1      -1.683  12.319  18.480  0.00  0.00    +0.000 HD
BRANCH   9  19
ATOM     15  C   UNL     1      -7.164  11.346  20.448  0.00  0.00    +0.000 A 
ATOM     16  C   UNL     1      -7.840  12.526  20.756  0.00  0.00    +0.000 A 
ATOM     17  C   UNL     1      -7.205  13.758  20.627  0.00  0.00    +0.000 A 
ATOM     18  C   UNL     1      -5.887  13.821  20.180  0.00  0.00    +0.000 A 
ATOM     19  C   UNL     1      -5.191  12.650  19.863  0.00  0.00    +0.000 A 
ATOM     20  C   UNL     1      -5.838  11.410  20.004  0.00  0.00    +0.000 A 
BRANCH  15  22
ATOM     21  C   UNL     1      -7.320   8.973  20.249  0.00  0.00    +0.000 C 
ATOM     22  O   UNL     1      -7.912  10.213  20.609  0.00  0.00    +0.000 OA
ENDBRANCH  15  22
ENDBRANCH   9  19
ENDBRANCH   1  12
BRANCH   7  23
ATOM     23  N   UNL     1       0.800  10.001  19.279  0.00  0.00    +0.000 NA
ATOM     24  C   UNL     1       1.478   9.287  18.179  0.00  0.00    +0.000 C 
ATOM     25  C   UNL     1       2.589   8.283  18.557  0.00  0.00    +0.000 C 
ATOM     26  N   UNL     1       2.151   7.379  19.622  0.00  0.00    +0.000 N 
ATOM     27  C   UNL     1       1.574   8.048  20.796  0.00  0.00    +0.000 C 
ATOM     28  C   UNL     1       0.480   9.063  20.379  0.00  0.00    +0.000 C 
BRANCH  26  29
ATOM     29  C   UNL     1       1.863   6.046  19.383  0.00  0.00    +0.000 A 
ATOM     30  C   UNL     1       1.974   5.525  18.084  0.00  0.00    +0.000 A 
ATOM     31  C   UNL     1       1.657   4.195  17.791  0.00  0.00    +0.000 A 
ATOM     32  C   UNL     1       1.224   3.346  18.802  0.00  0.00    +0.000 A 
ATOM     33  C   UNL     1       1.102   3.833  20.098  0.00  0.00    +0.000 A 
ATOM     34  C   UNL     1       1.414   5.169  20.381  0.00  0.00    +0.000 A 
ENDBRANCH  26  29
ENDBRANCH   7  23
BRANCH   8  35
ATOM     35  O   UNL     1       0.887  12.685  21.712  0.00  0.00    +0.000 OA
ATOM     36  H   UNL     1       0.364  12.321  22.450  0.00  0.00    +0.000 HD
ENDBRANCH   8  35
TORSDOF 6
ENDMDL
MODEL 3
REMARK VINA RESULT:      -7.8      2.263      8.540
REMARK  Name = 
REMARK  7 active torsions:
REMARK  status: ('A' for Active; 'I' for Inactive)
REMARK    1  A    between atoms: C_1  and  O_2
REMARK    2  A    between atoms: O_2  and  C_3
REMARK    3  A    between atoms: C_7  and  N_8
REMARK    4  A    between atoms: N_11  and  C_12
REMARK    5  A    between atoms: C_18  and  N_19
REMARK    6  A    between atoms: N_22  and  C_23
REMARK    7  A    between atoms: C_31  and  O_32
REMARK                            x       y       z     vdW  Elec       q    Type
REMARK                         _______ _______ _______ _____ _____    ______ ____
ROOT
ATOM      1  C   UNL     1       1.000  12.215  18.688  0.00  0.00    +0.000 C 
ATOM      2  C   UNL     1       1.948  13.283  19.298  0.00  0.00    +0.000 C 
ATOM      3  C   UNL     1       2.061  14.536  18.454  0.00  0.00    +0.000 C 
ATOM      4  O   UNL     1       0.828  15.230  18.691  0.00  0.00    +0.000 OA
ATOM      5  C   UNL     1       0.336  14.680  19.931  0.00  0.00    +0.000 C 
ATOM      6  O   UNL     1       1.349  13.829  20.477  0.00  0.00    +0.000 OA
ATOM      7  C   UNL     1      -0.913  13.826  19.606  0.00  0.00    +0.000 C 
ATOM      8  C   UNL     1      -0.484  12.698  18.602  0.00  0.00    +0.000 C 
ENDROOT
BRANCH   1  12
ATOM      9  N   UNL     1       1.458   8.707  19.661  0.00  0.00    +0.000 N 
ATOM     10  C   UNL     1       1.583   9.796  18.822  0.00  0.00    +0.000 C 
ATOM     11  O   UNL     1       2.091   9.823  17.710  0.00  0.00    +0.000 OA
ATOM     12  N   UNL     1       1.068  10.932  19.412  0.00  0.00    +0.000 N 
ATOM     13  H   UNL     1       0.991   8.872  20.538  0.00  0.00    +0.000 HD
ATOM     14  H   UNL     1       0.366  10.776  20.118  0.00  0.00    +0.000 HD
BRANCH   9  19
ATOM     15  C   UNL     1       2.311   5.175  20.368  0.00  0.00    +0.000 A 
ATOM     16  C   UNL     1       2.892   4.783  19.162  0.00  0.00    +0.000 A 
ATOM     17  C   UNL     1       2.993   5.680  18.103  0.00  0.00    +0.000 A 
ATOM     18  C   UNL     1       2.519   6.983  18.243  0.00  0.00    +0.000 A 
ATOM     19  C   UNL     1       1.935   7.397  19.445  0.00  0.00    +0.000 A 
ATOM     20  C   UNL     1       1.831   6.482  20.506  0.00  0.00    +0.000 A 
BRANCH  15  22
ATOM     21  C   UNL     1       2.637   2.877  20.928  0.00  0.00    +0.000 C 
ATOM     22  O   UNL     1       2.290   4.197  21.324  0.00  0.00    +0.000 OA
ENDBRANCH  15  22
ENDBRANCH   9  19
ENDBRANCH   1  12
BRANCH   7  23
ATOM     23  N   UNL     1      -1.717  13.283  20.731  0.00  0.00    +0.000 NA
ATOM     24  C   UNL     1      -2.402  14.250  21.612  0.00  0.00    +0.000 C 
ATOM     25  C   UNL     1      -3.833  14.681  21.223  0.00  0.00    +0.000 C 
ATOM     26  N   UNL     1      -4.672  13.523  20.907  0.00  0.00    +0.000 N 
ATOM     27  C   UNL     1      -4.084  12.585  19.940  0.00  0.00    +0.000 C 
ATOM     28  C   UNL     1      -2.643  12.192  20.349  0.00  0.00    +0.000 C 
BRANCH  26  29
ATOM     29  C   UNL     1      -5.679  13.093  21.753  0.00  0.00    +0.000 A 
ATOM     30  C   UNL     1      -6.696  12.255  21.268  0.00  0.00    +0.000 A 
ATOM     31  C   UNL     1      -7.753  11.827  22.078  0.00  0.00    +0.000 A 
ATOM     32  C   UNL     1      -7.813  12.228  23.407  0.00  0.00    +0.000 A 
ATOM     33  C   UNL     1      -6.822  13.059  23.916  0.00  0.00    +0.000 A 
ATOM     34  C   UNL     1      -5.772  13.488  23.096  0.00  0.00    +0.000 A 
ENDBRANCH  26  29
ENDBRANCH   7  23
BRANCH   8  35
ATOM     35  O   UNL     1      -0.752  13.104  17.242  0.00  0.00    +0.000 OA
ATOM     36  H   UNL     1      -0.321  13.967  17.098  0.00  0.00    +0.000 HD
ENDBRANCH   8  35
TORSDOF 6
ENDMDL
MODEL 4
REMARK VINA RESULT:      -7.6      2.288      8.590
REMARK  Name = 
REMARK  7 active torsions:
REMARK  status: ('A' for Active; 'I' for Inactive)
REMARK    1  A    between atoms: C_1  and  O_2
REMARK    2  A    between atoms: O_2  and  C_3
REMARK    3  A    between atoms: C_7  and  N_8
REMARK    4  A    between atoms: N_11  and  C_12
REMARK    5  A    between atoms: C_18  and  N_19
REMARK    6  A    between atoms: N_22  and  C_23
REMARK    7  A    between atoms: C_31  and  O_32
REMARK                            x       y       z     vdW  Elec       q    Type
REMARK                         _______ _______ _______ _____ _____    ______ ____
ROOT
ATOM      1  C   UNL     1       0.973  12.284  18.656  0.00  0.00    +0.000 C 
ATOM      2  C   UNL     1       1.811  13.289  19.494  0.00  0.00    +0.000 C 
ATOM      3  C   UNL     1       1.905  14.662  18.862  0.00  0.00    +0.000 C 
ATOM      4  O   UNL     1       0.619  15.249  19.105  0.00  0.00    +0.000 OA
ATOM      5  C   UNL     1       0.077  14.488  20.205  0.00  0.00    +0.000 C 
ATOM      6  O   UNL     1       1.100  13.614  20.692  0.00  0.00    +0.000 OA
ATOM      7  C   UNL     1      -1.092  13.635  19.657  0.00  0.00    +0.000 C 
ATOM      8  C   UNL     1      -0.527  12.700  18.529  0.00  0.00    +0.000 C 
ENDROOT
BRANCH   1  12
ATOM      9  N   UNL     1       1.699   8.725  19.176  0.00  0.00    +0.000 N 
ATOM     10  C   UNL     1       1.841   9.950  18.555  0.00  0.00    +0.000 C 
ATOM     11  O   UNL     1       2.551  10.220  17.598  0.00  0.00    +0.000 OA
ATOM     12  N   UNL     1       1.069  10.908  19.180  0.00  0.00    +0.000 N 
ATOM     13  H   UNL     1       1.049   8.687  19.944  0.00  0.00    +0.000 HD
ATOM     14  H   UNL     1       0.268  10.562  19.684  0.00  0.00    +0.000 HD
BRANCH   9  19
ATOM     15  C   UNL     1       2.935   5.257  19.567  0.00  0.00    +0.000 A 
ATOM     16  C   UNL     1       3.730   5.117  18.430  0.00  0.00    +0.000 A 
ATOM     17  C   UNL     1       3.852   6.162  17.520  0.00  0.00    +0.000 A 
ATOM     18  C   UNL     1       3.183   7.364  17.743  0.00  0.00    +0.000 A 
ATOM     19  C   UNL     1       2.382   7.527  18.878  0.00  0.00    +0.000 A 
ATOM     20  C   UNL     1       2.260   6.463  19.787  0.00  0.00    +0.000 A 
BRANCH  15  22
ATOM     21  C   UNL     1       1.808   3.997  21.252  0.00  0.00    +0.000 C 
ATOM     22  O   UNL     1       2.917   4.157  20.379  0.00  0.00    +0.000 OA
ENDBRANCH  15  22
ENDBRANCH   9  19
ENDBRANCH   1  12
BRANCH   7  23
ATOM     23  N   UNL     1      -1.938  12.885  20.620  0.00  0.00    +0.000 NA
ATOM     24  C   UNL     1      -2.441  13.613  21.802  0.00  0.00    +0.000 C 
ATOM     25  C   UNL     1      -3.800  14.335  21.670  0.00  0.00    +0.000 C 
ATOM     26  N   UNL     1      -4.815  13.460  21.080  0.00  0.00    +0.000 N 
ATOM     27  C   UNL     1      -4.406  12.799  19.833  0.00  0.00    +0.000 C 
ATOM     28  C   UNL     1      -3.030  12.105  19.994  0.00  0.00    +0.000 C 
BRANCH  26  29
ATOM     29  C   UNL     1      -5.852  12.929  21.828  0.00  0.00    +0.000 A 
ATOM     30  C   UNL     1      -5.886  13.119  23.219  0.00  0.00    +0.000 A 
ATOM     31  C   UNL     1      -6.894  12.570  24.017  0.00  0.00    +0.000 A 
ATOM     32  C   UNL     1      -7.905  11.815  23.434  0.00  0.00    +0.000 A 
ATOM     33  C   UNL     1      -7.899  11.608  22.060  0.00  0.00    +0.000 A 
ATOM     34  C   UNL     1      -6.880  12.156  21.270  0.00  0.00    +0.000 A 
ENDBRANCH  26  29
ENDBRANCH   7  23
BRANCH   8  35
ATOM     35  O   UNL     1      -0.725  13.301  17.231  0.00  0.00    +0.000 OA
ATOM     36  H   UNL     1       0.145  13.594  16.903  0.00  0.00    +0.000 HD
ENDBRANCH   8  35
TORSDOF 6
ENDMDL
MODEL 5
REMARK VINA RESULT:      -7.5      1.355      1.915
REMARK  Name = 
REMARK  7 active torsions:
REMARK  status: ('A' for Active; 'I' for Inactive)
REMARK    1  A    between atoms: C_1  and  O_2
REMARK    2  A    between atoms: O_2  and  C_3
REMARK    3  A    between atoms: C_7  and  N_8
REMARK    4  A    between atoms: N_11  and  C_12
REMARK    5  A    between atoms: C_18  and  N_19
REMARK    6  A    between atoms: N_22  and  C_23
REMARK    7  A    between atoms: C_31  and  O_32
REMARK                            x       y       z     vdW  Elec       q    Type
REMARK                         _______ _______ _______ _____ _____    ______ ____
ROOT
ATOM      1  C   UNL     1      -0.421  13.037  20.514  0.00  0.00    +0.000 C 
ATOM      2  C   UNL     1      -0.449  13.784  19.153  0.00  0.00    +0.000 C 
ATOM      3  C   UNL     1       0.796  14.606  18.895  0.00  0.00    +0.000 C 
ATOM      4  O   UNL     1       1.793  13.633  18.549  0.00  0.00    +0.000 OA
ATOM      5  C   UNL     1       1.038  12.471  18.146  0.00  0.00    +0.000 C 
ATOM      6  O   UNL     1      -0.345  12.833  18.090  0.00  0.00    +0.000 OA
ATOM      7  C   UNL     1       1.228  11.385  19.232  0.00  0.00    +0.000 C 
ATOM      8  C   UNL     1       0.713  11.965  20.597  0.00  0.00    +0.000 C 
ENDROOT
BRANCH   1  12
ATOM      9  N   UNL     1      -3.930  12.385  21.364  0.00  0.00    +0.000 N 
ATOM     10  C   UNL     1      -2.866  13.174  20.975  0.00  0.00    +0.000 C 
ATOM     11  O   UNL     1      -2.876  14.374  20.747  0.00  0.00    +0.000 OA
ATOM     12  N   UNL     1      -1.721  12.418  20.836  0.00  0.00    +0.000 N 
ATOM     13  H   UNL     1      -3.728  11.411  21.526  0.00  0.00    +0.000 HD
ATOM     14  H   UNL     1      -1.692  11.566  21.376  0.00  0.00    +0.000 HD
BRANCH   9  19
ATOM     15  C   UNL     1      -6.872  14.147  22.759  0.00  0.00    +0.000 A 
ATOM     16  C   UNL     1      -7.907  13.603  22.000  0.00  0.00    +0.000 A 
ATOM     17  C   UNL     1      -7.638  12.661  21.012  0.00  0.00    +0.000 A 
ATOM     18  C   UNL     1      -6.328  12.247  20.779  0.00  0.00    +0.000 A 
ATOM     19  C   UNL     1      -5.275  12.778  21.531  0.00  0.00    +0.000 A 
ATOM     20  C   UNL     1      -5.556  13.735  22.522  0.00  0.00    +0.000 A 
BRANCH  15  22
ATOM     21  C   UNL     1      -7.774  16.303  23.246  0.00  0.00    +0.000 C 
ATOM     22  O   UNL     1      -7.282  15.050  23.701  0.00  0.00    +0.000 OA
ENDBRANCH  15  22
ENDBRANCH   9  19
ENDBRANCH   1  12
BRANCH   7  23
ATOM     23  N   UNL     1       0.695  10.022  18.977  0.00  0.00    +0.000 NA
ATOM     24  C   UNL     1       1.308   9.240  17.886  0.00  0.00    +0.000 C 
ATOM     25  C   UNL     1       2.518   8.347  18.241  0.00  0.00    +0.000 C 
ATOM     26  N   UNL     1       2.251   7.534  19.430  0.00  0.00    +0.000 N 
ATOM     27  C   UNL     1       1.748   8.287  20.587  0.00  0.00    +0.000 C 
ATOM     28  C   UNL     1       0.551   9.187  20.191  0.00  0.00    +0.000 C 
BRANCH  26  29
ATOM     29  C   UNL     1       2.033   6.169  19.353  0.00  0.00    +0.000 A 
ATOM     30  C   UNL     1       2.162   5.505  18.123  0.00  0.00    +0.000 A 
ATOM     31  C   UNL     1       1.915   4.134  17.992  0.00  0.00    +0.000 A 
ATOM     32  C   UNL     1       1.536   3.390  19.102  0.00  0.00    +0.000 A 
ATOM     33  C   UNL     1       1.398   4.019  20.334  0.00  0.00    +0.000 A 
ATOM     34  C   UNL     1       1.640   5.394  20.453  0.00  0.00    +0.000 A 
ENDBRANCH  26  29
ENDBRANCH   7  23
BRANCH   8  35
ATOM     35  O   UNL     1       1.809  12.519  21.355  0.00  0.00    +0.000 OA
ATOM     36  H   UNL     1       2.564  11.906  21.279  0.00  0.00    +0.000 HD
ENDBRANCH   8  35
TORSDOF 6
ENDMDL
MODEL 6
REMARK VINA RESULT:      -7.5      2.236      8.715
REMARK  Name = 
REMARK  7 active torsions:
REMARK  status: ('A' for Active; 'I' for Inactive)
REMARK    1  A    between atoms: C_1  and  O_2
REMARK    2  A    between atoms: O_2  and  C_3
REMARK    3  A    between atoms: C_7  and  N_8
REMARK    4  A    between atoms: N_11  and  C_12
REMARK    5  A    between atoms: C_18  and  N_19
REMARK    6  A    between atoms: N_22  and  C_23
REMARK    7  A    between atoms: C_31  and  O_32
REMARK                            x       y       z     vdW  Elec       q    Type
REMARK                         _______ _______ _______ _____ _____    ______ ____
ROOT
ATOM      1  C   UNL     1       0.957  12.186  18.800  0.00  0.00    +0.000 C 
ATOM      2  C   UNL     1       1.853  13.297  19.413  0.00  0.00    +0.000 C 
ATOM      3  C   UNL     1       1.955  14.532  18.541  0.00  0.00    +0.000 C 
ATOM      4  O   UNL     1       0.695  15.193  18.721  0.00  0.00    +0.000 OA
ATOM      5  C   UNL     1       0.180  14.658  19.959  0.00  0.00    +0.000 C 
ATOM      6  O   UNL     1       1.200  13.853  20.557  0.00  0.00    +0.000 OA
ATOM      7  C   UNL     1      -1.031  13.758  19.616  0.00  0.00    +0.000 C 
ATOM      8  C   UNL     1      -0.536  12.620  18.655  0.00  0.00    +0.000 C 
ENDROOT
BRANCH   1  12
ATOM      9  N   UNL     1       1.449   8.709  19.866  0.00  0.00    +0.000 N 
ATOM     10  C   UNL     1       1.559   9.775  18.996  0.00  0.00    +0.000 C 
ATOM     11  O   UNL     1       2.056   9.775  17.879  0.00  0.00    +0.000 OA
ATOM     12  N   UNL     1       1.041  10.923  19.559  0.00  0.00    +0.000 N 
ATOM     13  H   UNL     1       0.988   8.895  20.742  0.00  0.00    +0.000 HD
ATOM     14  H   UNL     1       0.346  10.782  20.275  0.00  0.00    +0.000 HD
BRANCH   9  19
ATOM     15  C   UNL     1       3.164   5.847  18.262  0.00  0.00    +0.000 A 
ATOM     16  C   UNL     1       2.904   4.823  19.172  0.00  0.00    +0.000 A 
ATOM     17  C   UNL     1       2.172   5.075  20.329  0.00  0.00    +0.000 A 
ATOM     18  C   UNL     1       1.686   6.356  20.583  0.00  0.00    +0.000 A 
ATOM     19  C   UNL     1       1.933   7.397  19.682  0.00  0.00    +0.000 A 
ATOM     20  C   UNL     1       2.679   7.134  18.521  0.00  0.00    +0.000 A 
BRANCH  15  22
ATOM     21  C   UNL     1       5.206   4.983  17.377  0.00  0.00    +0.000 C 
ATOM     22  O   UNL     1       3.882   5.455  17.166  0.00  0.00    +0.000 OA
ENDBRANCH  15  22
ENDBRANCH   9  19
ENDBRANCH   1  12
BRANCH   7  23
ATOM     23  N   UNL     1      -1.855  13.219  20.729  0.00  0.00    +0.000 NA
ATOM     24  C   UNL     1      -2.518  14.190  21.622  0.00  0.00    +0.000 C 
ATOM     25  C   UNL     1      -3.936  14.664  21.234  0.00  0.00    +0.000 C 
ATOM     26  N   UNL     1      -4.803  13.533  20.896  0.00  0.00    +0.000 N 
ATOM     27  C   UNL     1      -4.236  12.595  19.917  0.00  0.00    +0.000 C 
ATOM     28  C   UNL     1      -2.806  12.159  20.326  0.00  0.00    +0.000 C 
BRANCH  26  29
ATOM     29  C   UNL     1      -5.825  13.116  21.731  0.00  0.00    +0.000 A 
ATOM     30  C   UNL     1      -5.854  13.533  23.071  0.00  0.00    +0.000 A 
ATOM     31  C   UNL     1      -6.847  13.106  23.959  0.00  0.00    +0.000 A 
ATOM     32  C   UNL     1      -7.846  12.247  23.519  0.00  0.00    +0.000 A 
ATOM     33  C   UNL     1      -7.845  11.815  22.198  0.00  0.00    +0.000 A 
ATOM     34  C   UNL     1      -6.842  12.242  21.319  0.00  0.00    +0.000 A 
ENDBRANCH  26  29
ENDBRANCH   7  23
BRANCH   8  35
ATOM     35  O   UNL     1      -0.774  12.984  17.278  0.00  0.00    +0.000 OA
ATOM     36  H   UNL     1      -1.398  13.733  17.271  0.00  0.00    +0.000 HD
ENDBRANCH   8  35
TORSDOF 6
ENDMDL
MODEL 7
REMARK VINA RESULT:      -7.4      1.278      1.349
REMARK  Name = 
REMARK  7 active torsions:
REMARK  status: ('A' for Active; 'I' for Inactive)
REMARK    1  A    between atoms: C_1  and  O_2
REMARK    2  A    between atoms: O_2  and  C_3
REMARK    3  A    between atoms: C_7  and  N_8
REMARK    4  A    between atoms: N_11  and  C_12
REMARK    5  A    between atoms: C_18  and  N_19
REMARK    6  A    between atoms: N_22  and  C_23
REMARK    7  A    between atoms: C_31  and  O_32
REMARK                            x       y       z     vdW  Elec       q    Type
REMARK                         _______ _______ _______ _____ _____    ______ ____
ROOT
ATOM      1  C   UNL     1      -0.340  12.981  20.157  0.00  0.00    +0.000 C 
ATOM      2  C   UNL     1       0.063  13.729  18.857  0.00  0.00    +0.000 C 
ATOM      3  C   UNL     1       1.390  14.452  18.969  0.00  0.00    +0.000 C 
ATOM      4  O   UNL     1       2.368  13.405  18.889  0.00  0.00    +0.000 OA
ATOM      5  C   UNL     1       1.669  12.305  18.268  0.00  0.00    +0.000 C 
ATOM      6  O   UNL     1       0.386  12.774  17.842  0.00  0.00    +0.000 OA
ATOM      7  C   UNL     1       1.471  11.207  19.340  0.00  0.00    +0.000 C 
ATOM      8  C   UNL     1       0.644  11.824  20.523  0.00  0.00    +0.000 C 
ENDROOT
BRANCH   1  12
ATOM      9  N   UNL     1      -3.980  12.546  20.325  0.00  0.00    +0.000 N 
ATOM     10  C   UNL     1      -2.807  13.274  20.356  0.00  0.00    +0.000 C 
ATOM     11  O   UNL     1      -2.682  14.473  20.557  0.00  0.00    +0.000 OA
ATOM     12  N   UNL     1      -1.721  12.464  20.095  0.00  0.00    +0.000 N 
ATOM     13  H   UNL     1      -3.886  11.556  20.163  0.00  0.00    +0.000 HD
ATOM     14  H   UNL     1      -1.845  11.486  20.307  0.00  0.00    +0.000 HD
BRANCH   9  19
ATOM     15  C   UNL     1      -7.146  13.539  21.966  0.00  0.00    +0.000 A 
ATOM     16  C   UNL     1      -7.916  13.928  20.870  0.00  0.00    +0.000 A 
ATOM     17  C   UNL     1      -7.389  13.878  19.583  0.00  0.00    +0.000 A 
ATOM     18  C   UNL     1      -6.085  13.430  19.379  0.00  0.00    +0.000 A 
ATOM     19  C   UNL     1      -5.297  13.033  20.464  0.00  0.00    +0.000 A 
ATOM     20  C   UNL     1      -5.835  13.094  21.760  0.00  0.00    +0.000 A 
BRANCH  15  22
ATOM     21  C   UNL     1      -7.027  13.440  24.348  0.00  0.00    +0.000 C 
ATOM     22  O   UNL     1      -7.794  13.628  23.167  0.00  0.00    +0.000 OA
ENDBRANCH  15  22
ENDBRANCH   9  19
ENDBRANCH   1  12
BRANCH   7  23
ATOM     23  N   UNL     1       0.928   9.890  18.918  0.00  0.00    +0.000 NA
ATOM     24  C   UNL     1       1.657   9.154  17.866  0.00  0.00    +0.000 C 
ATOM     25  C   UNL     1       2.773   8.185  18.316  0.00  0.00    +0.000 C 
ATOM     26  N   UNL     1       2.315   7.308  19.396  0.00  0.00    +0.000 N 
ATOM     27  C   UNL     1       1.685   8.005  20.526  0.00  0.00    +0.000 C 
ATOM     28  C   UNL     1       0.588   8.983  20.038  0.00  0.00    +0.000 C 
BRANCH  26  29
ATOM     29  C   UNL     1       2.061   5.963  19.192  0.00  0.00    +0.000 A 
ATOM     30  C   UNL     1       1.605   5.165  20.253  0.00  0.00    +0.000 A 
ATOM     31  C   UNL     1       1.371   3.794  20.101  0.00  0.00    +0.000 A 
ATOM     32  C   UNL     1       1.585   3.187  18.870  0.00  0.00    +0.000 A 
ATOM     33  C   UNL     1       2.038   3.951  17.800  0.00  0.00    +0.000 A 
ATOM     34  C   UNL     1       2.277   5.321  17.964  0.00  0.00    +0.000 A 
ENDBRANCH  26  29
ENDBRANCH   7  23
BRANCH   8  35
ATOM     35  O   UNL     1       1.527  12.291  21.566  0.00  0.00    +0.000 OA
ATOM     36  H   UNL     1       0.984  12.748  22.234  0.00  0.00    +0.000 HD
ENDBRANCH   8  35
TORSDOF 6
ENDMDL
MODEL 8
REMARK VINA RESULT:      -7.3      1.520      2.027
REMARK  Name = 
REMARK  7 active torsions:
REMARK  status: ('A' for Active; 'I' for Inactive)
REMARK    1  A    between atoms: C_1  and  O_2
REMARK    2  A    between atoms: O_2  and  C_3
REMARK    3  A    between atoms: C_7  and  N_8
REMARK    4  A    between atoms: N_11  and  C_12
REMARK    5  A    between atoms: C_18  and  N_19
REMARK    6  A    between atoms: N_22  and  C_23
REMARK    7  A    between atoms: C_31  and  O_32
REMARK                            x       y       z     vdW  Elec       q    Type
REMARK                         _______ _______ _______ _____ _____    ______ ____
ROOT
ATOM      1  C   UNL     1      -0.474  13.216  20.036  0.00  0.00    +0.000 C 
ATOM      2  C   UNL     1       0.037  13.829  18.704  0.00  0.00    +0.000 C 
ATOM      3  C   UNL     1       1.384  14.510  18.836  0.00  0.00    +0.000 C 
ATOM      4  O   UNL     1       2.320  13.425  18.909  0.00  0.00    +0.000 OA
ATOM      5  C   UNL     1       1.613  12.300  18.344  0.00  0.00    +0.000 C 
ATOM      6  O   UNL     1       0.379  12.775  17.799  0.00  0.00    +0.000 OA
ATOM      7  C   UNL     1       1.305  11.310  19.492  0.00  0.00    +0.000 C 
ATOM      8  C   UNL     1       0.436  12.061  20.563  0.00  0.00    +0.000 C 
ENDROOT
BRANCH   1  12
ATOM      9  N   UNL     1      -4.101  12.762  20.358  0.00  0.00    +0.000 N 
ATOM     10  C   UNL     1      -2.910  13.442  20.514  0.00  0.00    +0.000 C 
ATOM     11  O   UNL     1      -2.736  14.522  21.059  0.00  0.00    +0.000 OA
ATOM     12  N   UNL     1      -1.869  12.747  19.933  0.00  0.00    +0.000 N 
ATOM     13  H   UNL     1      -4.047  11.869  19.896  0.00  0.00    +0.000 HD
ATOM     14  H   UNL     1      -2.004  11.752  19.846  0.00  0.00    +0.000 HD
BRANCH   9  19
ATOM     15  C   UNL     1      -7.048  14.971  20.736  0.00  0.00    +0.000 A 
ATOM     16  C   UNL     1      -7.899  14.170  21.496  0.00  0.00    +0.000 A 
ATOM     17  C   UNL     1      -7.510  12.890  21.878  0.00  0.00    +0.000 A 
ATOM     18  C   UNL     1      -6.260  12.400  21.507  0.00  0.00    +0.000 A 
ATOM     19  C   UNL     1      -5.389  13.188  20.746  0.00  0.00    +0.000 A 
ATOM     20  C   UNL     1      -5.794  14.476  20.359  0.00  0.00    +0.000 A 
BRANCH  15  22
ATOM     21  C   UNL     1      -6.629  17.255  20.183  0.00  0.00    +0.000 C 
ATOM     22  O   UNL     1      -7.553  16.208  20.444  0.00  0.00    +0.000 OA
ENDBRANCH  15  22
ENDBRANCH   9  19
ENDBRANCH   1  12
BRANCH   7  23
ATOM     23  N   UNL     1       0.733   9.982  19.154  0.00  0.00    +0.000 NA
ATOM     24  C   UNL     1       1.332   9.247  18.022  0.00  0.00    +0.000 C 
ATOM     25  C   UNL     1       2.511   8.299  18.329  0.00  0.00    +0.000 C 
ATOM     26  N   UNL     1       2.211   7.425  19.466  0.00  0.00    +0.000 N 
ATOM     27  C   UNL     1       1.722   8.122  20.663  0.00  0.00    +0.000 C 
ATOM     28  C   UNL     1       0.555   9.080  20.314  0.00  0.00    +0.000 C 
BRANCH  26  29
ATOM     29  C   UNL     1       1.953   6.075  19.306  0.00  0.00    +0.000 A 
ATOM     30  C   UNL     1       2.055   5.485  18.036  0.00  0.00    +0.000 A 
ATOM     31  C   UNL     1       1.768   4.133  17.822  0.00  0.00    +0.000 A 
ATOM     32  C   UNL     1       1.374   3.332  18.887  0.00  0.00    +0.000 A 
ATOM     33  C   UNL     1       1.263   3.887  20.156  0.00  0.00    +0.000 A 
ATOM     34  C   UNL     1       1.545   5.243  20.359  0.00  0.00    +0.000 A 
ENDBRANCH  26  29
ENDBRANCH   7  23
BRANCH   8  35
ATOM     35  O   UNL     1       1.274  12.586  21.615  0.00  0.00    +0.000 OA
ATOM     36  H   UNL     1       1.357  11.899  22.302  0.00  0.00    +0.000 HD
ENDBRANCH   8  35
TORSDOF 6
ENDMDL
MODEL 9
REMARK VINA RESULT:      -7.2      3.607      9.258
REMARK  Name = 
REMARK  7 active torsions:
REMARK  status: ('A' for Active; 'I' for Inactive)
REMARK    1  A    between atoms: C_1  and  O_2
REMARK    2  A    between atoms: O_2  and  C_3
REMARK    3  A    between atoms: C_7  and  N_8
REMARK    4  A    between atoms: N_11  and  C_12
REMARK    5  A    between atoms: C_18  and  N_19
REMARK    6  A    between atoms: N_22  and  C_23
REMARK    7  A    between atoms: C_31  and  O_32
REMARK                            x       y       z     vdW  Elec       q    Type
REMARK                         _______ _______ _______ _____ _____    ______ ____
ROOT
ATOM      1  C   UNL     1       0.088  11.360  19.372  0.00  0.00    +0.000 C 
ATOM      2  C   UNL     1      -1.136  11.993  18.655  0.00  0.00    +0.000 C 
ATOM      3  C   UNL     1      -2.128  12.626  19.610  0.00  0.00    +0.000 C 
ATOM      4  O   UNL     1      -1.497  13.850  20.011  0.00  0.00    +0.000 OA
ATOM      5  C   UNL     1      -0.518  14.106  18.981  0.00  0.00    +0.000 C 
ATOM      6  O   UNL     1      -0.713  13.152  17.932  0.00  0.00    +0.000 OA
ATOM      7  C   UNL     1       0.884  13.892  19.598  0.00  0.00    +0.000 C 
ATOM      8  C   UNL     1       0.966  12.413  20.121  0.00  0.00    +0.000 C 
ENDROOT
BRANCH   1  12
ATOM      9  N   UNL     1       2.270   8.852  17.820  0.00  0.00    +0.000 N 
ATOM     10  C   UNL     1       1.450   9.350  18.813  0.00  0.00    +0.000 C 
ATOM     11  O   UNL     1       1.168   8.821  19.878  0.00  0.00    +0.000 OA
ATOM     12  N   UNL     1       0.927  10.573  18.448  0.00  0.00    +0.000 N 
ATOM     13  H   UNL     1       2.403   9.442  17.014  0.00  0.00    +0.000 HD
ATOM     14  H   UNL     1       1.466  11.095  17.775  0.00  0.00    +0.000 HD
BRANCH   9  19
ATOM     15  C   UNL     1       4.892   6.329  17.134  0.00  0.00    +0.000 A 
ATOM     16  C   UNL     1       4.294   5.169  17.623  0.00  0.00    +0.000 A 
ATOM     17  C   UNL     1       3.027   5.214  18.195  0.00  0.00    +0.000 A 
ATOM     18  C   UNL     1       2.341   6.424  18.277  0.00  0.00    +0.000 A 
ATOM     19  C   UNL     1       2.921   7.600  17.791  0.00  0.00    +0.000 A 
ATOM     20  C   UNL     1       4.204   7.545  17.221  0.00  0.00    +0.000 A 
BRANCH  15  22
ATOM     21  C   UNL     1       7.262   6.495  17.370  0.00  0.00    +0.000 C 
ATOM     22  O   UNL     1       6.131   6.136  16.588  0.00  0.00    +0.000 OA
ENDBRANCH  15  22
ENDBRANCH   9  19
ENDBRANCH   1  12
BRANCH   7  23
ATOM     23  N   UNL     1       2.079  14.258  18.796  0.00  0.00    +0.000 NA
ATOM     24  C   UNL     1       2.293  15.689  18.501  0.00  0.00    +0.000 C 
ATOM     25  C   UNL     1       3.122  16.510  19.512  0.00  0.00    +0.000 C 
ATOM     26  N   UNL     1       4.365  15.822  19.867  0.00  0.00    +0.000 N 
ATOM     27  C   UNL     1       4.194  14.423  20.284  0.00  0.00    +0.000 C 
ATOM     28  C   UNL     1       3.340  13.635  19.259  0.00  0.00    +0.000 C 
BRANCH  26  29
ATOM     29  C   UNL     1       5.600  16.256  19.419  0.00  0.00    +0.000 A 
ATOM     30  C   UNL     1       6.301  15.512  18.457  0.00  0.00    +0.000 A 
ATOM     31  C   UNL     1       7.567  15.895  18.003  0.00  0.00    +0.000 A 
ATOM     32  C   UNL     1       8.164  17.045  18.503  0.00  0.00    +0.000 A 
ATOM     33  C   UNL     1       7.496  17.803  19.457  0.00  0.00    +0.000 A 
ATOM     34  C   UNL     1       6.231  17.408  19.911  0.00  0.00    +0.000 A 
ENDBRANCH  26  29
ENDBRANCH   7  23
BRANCH   8  35
ATOM     35  O   UNL     1       0.645  12.357  21.527  0.00  0.00    +0.000 OA
ATOM     36  H   UNL     1       1.461  12.542  22.027  0.00  0.00    +0.000 HD
ENDBRANCH   8  35
TORSDOF 6
ENDMDL
