MODEL 1
REMARK VINA RESULT:      -7.2      0.000      0.000
REMARK  Name = 
REMARK  6 active torsions:
REMARK  status: ('A' for Active; 'I' for Inactive)
REMARK    1  A    between atoms: C_1  and  C_2
REMARK    2  A    between atoms: C_2  and  C_3
REMARK    3  A    between atoms: C_3  and  C_4
REMARK    4  A    between atoms: C_3  and  N_7
REMARK    5  A    between atoms: C_4  and  O_6
REMARK    6  A    between atoms: C_11  and  C_12
REMARK                            x       y       z     vdW  Elec       q    Type
REMARK                         _______ _______ _______ _____ _____    ______ ____
ROOT
ATOM      1  N   UNL     1       5.189   4.777  16.913  0.00  0.00    +0.000 NA
ATOM      2  C   UNL     1       4.575   6.091  16.436  0.00  0.00    +0.000 C 
ATOM      3  C   UNL     1       3.746   6.558  17.580  0.00  0.00    +0.000 A 
ATOM      4  S   UNL     1       2.988   8.031  17.814  0.00  0.00    +0.000 S 
ATOM      5  C   UNL     1       2.346   7.505  19.346  0.00  0.00    +0.000 A 
ATOM      6  C   UNL     1       2.778   6.220  19.667  0.00  0.00    +0.000 A 
ATOM      7  C   UNL     1       3.555   5.705  18.622  0.00  0.00    +0.000 A 
ATOM      8  S   UNL     1       4.339   4.229  18.306  0.00  0.00    +0.000 S 
ATOM      9  O   UNL     1       3.285   3.337  17.910  0.00  0.00    +0.000 OA
ATOM     10  O   UNL     1       5.268   4.005  19.392  0.00  0.00    +0.000 OA
ENDROOT
BRANCH   5  11
ATOM     11  C   UNL     1       1.490   8.411  20.125  0.00  0.00    +0.000 A 
ATOM     12  C   UNL     1       0.850   9.508  19.529  0.00  0.00    +0.000 A 
ATOM     13  C   UNL     1       0.055  10.371  20.285  0.00  0.00    +0.000 A 
ATOM     14  C   UNL     1      -0.123  10.139  21.645  0.00  0.00    +0.000 A 
ATOM     15  C   UNL     1       0.489   9.041  22.249  0.00  0.00    +0.000 A 
ATOM     16  C   UNL     1       1.288   8.181  21.494  0.00  0.00    +0.000 A 
ENDBRANCH   5  11
BRANCH   1  17
ATOM     17  C   UNL     1       6.682   4.787  16.983  0.00  0.00    +0.000 C 
BRANCH  17  19
ATOM     18  C   UNL     1       6.243   3.905  14.595  0.00  0.00    +0.000 C 
ATOM     19  C   UNL     1       7.255   4.483  15.578  0.00  0.00    +0.000 C 
ENDBRANCH  17  19
BRANCH  17  20
ATOM     20  C   UNL     1       7.266   6.102  17.516  0.00  0.00    +0.000 C 
ATOM     21  O   UNL     1       7.694   6.996  16.805  0.00  0.00    +0.000 OA
BRANCH  20  22
ATOM     22  O   UNL     1       7.235   6.230  18.863  0.00  0.00    +0.000 OA
ATOM     23  H   UNL     1       7.507   7.114  19.209  0.00  0.00    +0.000 HD
ENDBRANCH  20  22
ENDBRANCH  17  20
ENDBRANCH   1  17
TORSDOF 5
ENDMDL
MODEL 2
REMARK VINA RESULT:      -7.2      0.112      1.033
REMARK  Name = 
REMARK  6 active torsions:
REMARK  status: ('A' for Active; 'I' for Inactive)
REMARK    1  A    between atoms: C_1  and  C_2
REMARK    2  A    between atoms: C_2  and  C_3
REMARK    3  A    between atoms: C_3  and  C_4
REMARK    4  A    between atoms: C_3  and  N_7
REMARK    5  A    between atoms: C_4  and  O_6
REMARK    6  A    between atoms: C_11  and  C_12
REMARK                            x       y       z     vdW  Elec       q    Type
REMARK                         _______ _______ _______ _____ _____    ______ ____
ROOT
ATOM      1  N   UNL     1       5.177   4.882  16.881  0.00  0.00    +0.000 NA
ATOM      2  C   UNL     1       4.539   6.192  16.423  0.00  0.00    +0.000 C 
ATOM      3  C   UNL     1       3.713   6.634  17.579  0.00  0.00    +0.000 A 
ATOM      4  S   UNL     1       2.934   8.093  17.835  0.00  0.00    +0.000 S 
ATOM      5  C   UNL     1       2.313   7.540  19.367  0.00  0.00    +0.000 A 
ATOM      6  C   UNL     1       2.769   6.259  19.671  0.00  0.00    +0.000 A 
ATOM      7  C   UNL     1       3.544   5.767  18.613  0.00  0.00    +0.000 A 
ATOM      8  S   UNL     1       4.348   4.307  18.275  0.00  0.00    +0.000 S 
ATOM      9  O   UNL     1       3.303   3.402  17.878  0.00  0.00    +0.000 OA
ATOM     10  O   UNL     1       5.289   4.085  19.350  0.00  0.00    +0.000 OA
ENDROOT
BRANCH   5  11
ATOM     11  C   UNL     1       1.451   8.425  20.163  0.00  0.00    +0.000 A 
ATOM     12  C   UNL     1       1.199   8.174  21.521  0.00  0.00    +0.000 A 
ATOM     13  C   UNL     1       0.363   9.012  22.261  0.00  0.00    +0.000 A 
ATOM     14  C   UNL     1      -0.218  10.122  21.656  0.00  0.00    +0.000 A 
ATOM     15  C   UNL     1       0.040  10.398  20.314  0.00  0.00    +0.000 A 
ATOM     16  C   UNL     1       0.871   9.556  19.573  0.00  0.00    +0.000 A 
ENDBRANCH   5  11
BRANCH   1  17
ATOM     17  C   UNL     1       6.670   4.915  16.938  0.00  0.00    +0.000 C 
BRANCH  17  19
ATOM     18  C   UNL     1       6.337   3.891  14.590  0.00  0.00    +0.000 C 
ATOM     19  C   UNL     1       7.234   4.709  15.511  0.00  0.00    +0.000 C 
ENDBRANCH  17  19
BRANCH  17  20
ATOM     20  C   UNL     1       7.237   6.204  17.547  0.00  0.00    +0.000 C 
ATOM     21  O   UNL     1       7.564   7.181  16.894  0.00  0.00    +0.000 OA
BRANCH  20  22
ATOM     22  O   UNL     1       7.311   6.206  18.898  0.00  0.00    +0.000 OA
ATOM     23  H   UNL     1       8.179   5.917  19.273  0.00  0.00    +0.000 HD
ENDBRANCH  20  22
ENDBRANCH  17  20
ENDBRANCH   1  17
TORSDOF 5
ENDMDL
MODEL 3
REMARK VINA RESULT:      -7.0      3.349      7.463
REMARK  Name = 
REMARK  6 active torsions:
REMARK  status: ('A' for Active; 'I' for Inactive)
REMARK    1  A    between atoms: C_1  and  C_2
REMARK    2  A    between atoms: C_2  and  C_3
REMARK    3  A    between atoms: C_3  and  C_4
REMARK    4  A    between atoms: C_3  and  N_7
REMARK    5  A    between atoms: C_4  and  O_6
REMARK    6  A    between atoms: C_11  and  C_12
REMARK                            x       y       z     vdW  Elec       q    Type
REMARK                         _______ _______ _______ _____ _____    ______ ____
ROOT
ATOM      1  N   UNL     1       3.741   3.437  19.828  0.00  0.00    +0.000 NA
ATOM      2  C   UNL     1       5.062   4.150  19.541  0.00  0.00    +0.000 C 
ATOM      3  C   UNL     1       5.235   4.045  18.067  0.00  0.00    +0.000 A 
ATOM      4  S   UNL     1       6.345   4.801  17.070  0.00  0.00    +0.000 S 
ATOM      5  C   UNL     1       5.696   3.996  15.667  0.00  0.00    +0.000 A 
ATOM      6  C   UNL     1       4.599   3.203  15.995  0.00  0.00    +0.000 A 
ATOM      7  C   UNL     1       4.384   3.238  17.379  0.00  0.00    +0.000 A 
ATOM      8  S   UNL     1       3.299   2.494  18.457  0.00  0.00    +0.000 S 
ATOM      9  O   UNL     1       3.800   1.156  18.609  0.00  0.00    +0.000 OA
ATOM     10  O   UNL     1       1.966   2.850  18.026  0.00  0.00    +0.000 OA
ENDROOT
BRANCH   5  11
ATOM     11  C   UNL     1       6.299   4.234  14.348  0.00  0.00    +0.000 A 
ATOM     12  C   UNL     1       5.873   3.532  13.210  0.00  0.00    +0.000 A 
ATOM     13  C   UNL     1       6.468   3.755  11.966  0.00  0.00    +0.000 A 
ATOM     14  C   UNL     1       7.486   4.695  11.843  0.00  0.00    +0.000 A 
ATOM     15  C   UNL     1       7.907   5.416  12.959  0.00  0.00    +0.000 A 
ATOM     16  C   UNL     1       7.315   5.189  14.203  0.00  0.00    +0.000 A 
ENDBRANCH   5  11
BRANCH   1  17
ATOM     17  C   UNL     1       2.688   4.314  20.423  0.00  0.00    +0.000 C 
BRANCH  17  19
ATOM     18  C   UNL     1       2.391   6.779  19.708  0.00  0.00    +0.000 C 
ATOM     19  C   UNL     1       2.193   5.311  19.347  0.00  0.00    +0.000 C 
ENDBRANCH  17  19
BRANCH  17  20
ATOM     20  C   UNL     1       1.500   3.541  21.010  0.00  0.00    +0.000 C 
ATOM     21  O   UNL     1       1.554   2.881  22.035  0.00  0.00    +0.000 OA
BRANCH  20  22
ATOM     22  O   UNL     1       0.342   3.676  20.323  0.00  0.00    +0.000 OA
ATOM     23  H   UNL     1      -0.476   3.705  20.877  0.00  0.00    +0.000 HD
ENDBRANCH  20  22
ENDBRANCH  17  20
ENDBRANCH   1  17
TORSDOF 5
ENDMDL
MODEL 4
REMARK VINA RESULT:      -6.9      3.154      7.341
REMARK  Name = 
REMARK  6 active torsions:
REMARK  status: ('A' for Active; 'I' for Inactive)
REMARK    1  A    between atoms: C_1  and  C_2
REMARK    2  A    between atoms: C_2  and  C_3
REMARK    3  A    between atoms: C_3  and  C_4
REMARK    4  A    between atoms: C_3  and  N_7
REMARK    5  A    between atoms: C_4  and  O_6
REMARK    6  A    between atoms: C_11  and  C_12
REMARK                            x       y       z     vdW  Elec       q    Type
REMARK                         _______ _______ _______ _____ _____    ______ ____
ROOT
ATOM      1  N   UNL     1       3.154   3.935  19.422  0.00  0.00    +0.000 NA
ATOM      2  C   UNL     1       4.351   4.849  19.166  0.00  0.00    +0.000 C 
ATOM      3  C   UNL     1       4.760   4.552  17.766  0.00  0.00    +0.000 A 
ATOM      4  S   UNL     1       5.851   5.354  16.784  0.00  0.00    +0.000 S 
ATOM      5  C   UNL     1       5.577   4.224  15.486  0.00  0.00    +0.000 A 
ATOM      6  C   UNL     1       4.606   3.284  15.823  0.00  0.00    +0.000 A 
ATOM      7  C   UNL     1       4.183   3.490  17.142  0.00  0.00    +0.000 A 
ATOM      8  S   UNL     1       3.102   2.719  18.205  0.00  0.00    +0.000 S 
ATOM      9  O   UNL     1       3.809   1.551  18.656  0.00  0.00    +0.000 OA
ATOM     10  O   UNL     1       1.806   2.722  17.562  0.00  0.00    +0.000 OA
ENDROOT
BRANCH   5  11
ATOM     11  C   UNL     1       6.319   4.371  14.226  0.00  0.00    +0.000 A 
ATOM     12  C   UNL     1       7.357   5.306  14.091  0.00  0.00    +0.000 A 
ATOM     13  C   UNL     1       8.041   5.448  12.882  0.00  0.00    +0.000 A 
ATOM     14  C   UNL     1       7.706   4.644  11.797  0.00  0.00    +0.000 A 
ATOM     15  C   UNL     1       6.693   3.695  11.920  0.00  0.00    +0.000 A 
ATOM     16  C   UNL     1       6.005   3.558  13.128  0.00  0.00    +0.000 A 
ENDBRANCH   5  11
BRANCH   1  17
ATOM     17  C   UNL     1       1.882   4.660  19.720  0.00  0.00    +0.000 C 
BRANCH  17  19
ATOM     18  C   UNL     1       2.092   3.021  21.705  0.00  0.00    +0.000 C 
ATOM     19  C   UNL     1       1.211   4.014  20.956  0.00  0.00    +0.000 C 
ENDBRANCH  17  19
BRANCH  17  20
ATOM     20  C   UNL     1       2.067   6.166  19.948  0.00  0.00    +0.000 C 
ATOM     21  O   UNL     1       2.249   6.974  19.052  0.00  0.00    +0.000 OA
BRANCH  20  22
ATOM     22  O   UNL     1       1.969   6.558  21.239  0.00  0.00    +0.000 OA
ATOM     23  H   UNL     1       2.458   5.997  21.889  0.00  0.00    +0.000 HD
ENDBRANCH  20  22
ENDBRANCH  17  20
ENDBRANCH   1  17
TORSDOF 5
ENDMDL
MODEL 5
REMARK VINA RESULT:      -6.8      3.176      7.325
REMARK  Name = 
REMARK  6 active torsions:
REMARK  status: ('A' for Active; 'I' for Inactive)
REMARK    1  A    between atoms: C_1  and  C_2
REMARK    2  A    between atoms: C_2  and  C_3
REMARK    3  A    between atoms: C_3  and  C_4
REMARK    4  A    between atoms: C_3  and  N_7
REMARK    5  A    between atoms: C_4  and  O_6
REMARK    6  A    between atoms: C_11  and  C_12
REMARK                            x       y       z     vdW  Elec       q    Type
REMARK                         _______ _______ _______ _____ _____    ______ ____
ROOT
ATOM      1  N   UNL     1       3.201   3.864  19.457  0.00  0.00    +0.000 NA
ATOM      2  C   UNL     1       4.416   4.755  19.207  0.00  0.00    +0.000 C 
ATOM      3  C   UNL     1       4.800   4.482  17.795  0.00  0.00    +0.000 A 
ATOM      4  S   UNL     1       5.897   5.281  16.818  0.00  0.00    +0.000 S 
ATOM      5  C   UNL     1       5.580   4.188  15.498  0.00  0.00    +0.000 A 
ATOM      6  C   UNL     1       4.590   3.264  15.825  0.00  0.00    +0.000 A 
ATOM      7  C   UNL     1       4.189   3.449  17.155  0.00  0.00    +0.000 A 
ATOM      8  S   UNL     1       3.103   2.678  18.213  0.00  0.00    +0.000 S 
ATOM      9  O   UNL     1       3.787   1.484  18.627  0.00  0.00    +0.000 OA
ATOM     10  O   UNL     1       1.800   2.728  17.588  0.00  0.00    +0.000 OA
ENDROOT
BRANCH   5  11
ATOM     11  C   UNL     1       6.309   4.348  14.231  0.00  0.00    +0.000 A 
ATOM     12  C   UNL     1       6.004   3.565  13.107  0.00  0.00    +0.000 A 
ATOM     13  C   UNL     1       6.717   3.714  11.916  0.00  0.00    +0.000 A 
ATOM     14  C   UNL     1       7.733   4.660  11.829  0.00  0.00    +0.000 A 
ATOM     15  C   UNL     1       8.034   5.461  12.929  0.00  0.00    +0.000 A 
ATOM     16  C   UNL     1       7.325   5.307  14.122  0.00  0.00    +0.000 A 
ENDBRANCH   5  11
BRANCH   1  17
ATOM     17  C   UNL     1       1.950   4.611  19.789  0.00  0.00    +0.000 C 
BRANCH  17  19
ATOM     18  C   UNL     1       2.190   2.943  21.747  0.00  0.00    +0.000 C 
ATOM     19  C   UNL     1       1.387   4.083  21.131  0.00  0.00    +0.000 C 
ENDBRANCH  17  19
BRANCH  17  20
ATOM     20  C   UNL     1       2.140   6.132  19.861  0.00  0.00    +0.000 C 
ATOM     21  O   UNL     1       2.332   6.842  18.888  0.00  0.00    +0.000 OA
BRANCH  20  22
ATOM     22  O   UNL     1       2.035   6.657  21.104  0.00  0.00    +0.000 OA
ATOM     23  H   UNL     1       2.708   6.340  21.755  0.00  0.00    +0.000 HD
ENDBRANCH  20  22
ENDBRANCH  17  20
ENDBRANCH   1  17
TORSDOF 5
ENDMDL
MODEL 6
REMARK VINA RESULT:      -6.8      2.941      7.318
REMARK  Name = 
REMARK  6 active torsions:
REMARK  status: ('A' for Active; 'I' for Inactive)
REMARK    1  A    between atoms: C_1  and  C_2
REMARK    2  A    between atoms: C_2  and  C_3
REMARK    3  A    between atoms: C_3  and  C_4
REMARK    4  A    between atoms: C_3  and  N_7
REMARK    5  A    between atoms: C_4  and  O_6
REMARK    6  A    between atoms: C_11  and  C_12
REMARK                            x       y       z     vdW  Elec       q    Type
REMARK                         _______ _______ _______ _____ _____    ______ ____
ROOT
ATOM      1  N   UNL     1       4.069   4.525  20.043  0.00  0.00    +0.000 NA
ATOM      2  C   UNL     1       5.020   5.547  19.422  0.00  0.00    +0.000 C 
ATOM      3  C   UNL     1       5.277   5.038  18.047  0.00  0.00    +0.000 A 
ATOM      4  S   UNL     1       6.044   5.784  16.762  0.00  0.00    +0.000 S 
ATOM      5  C   UNL     1       5.811   4.382  15.754  0.00  0.00    +0.000 A 
ATOM      6  C   UNL     1       5.096   3.388  16.418  0.00  0.00    +0.000 A 
ATOM      7  C   UNL     1       4.831   3.791  17.734  0.00  0.00    +0.000 A 
ATOM      8  S   UNL     1       4.079   3.092  19.089  0.00  0.00    +0.000 S 
ATOM      9  O   UNL     1       5.053   2.172  19.609  0.00  0.00    +0.000 OA
ATOM     10  O   UNL     1       2.730   2.755  18.695  0.00  0.00    +0.000 OA
ENDROOT
BRANCH   5  11
ATOM     11  C   UNL     1       6.326   4.383  14.378  0.00  0.00    +0.000 A 
ATOM     12  C   UNL     1       7.398   5.204  13.997  0.00  0.00    +0.000 A 
ATOM     13  C   UNL     1       7.865   5.208  12.680  0.00  0.00    +0.000 A 
ATOM     14  C   UNL     1       7.274   4.379  11.733  0.00  0.00    +0.000 A 
ATOM     15  C   UNL     1       6.222   3.541  12.099  0.00  0.00    +0.000 A 
ATOM     16  C   UNL     1       5.752   3.541  13.414  0.00  0.00    +0.000 A 
ENDBRANCH   5  11
BRANCH   1  17
ATOM     17  C   UNL     1       2.736   5.082  20.426  0.00  0.00    +0.000 C 
BRANCH  17  19
ATOM     18  C   UNL     1       2.327   7.212  19.023  0.00  0.00    +0.000 C 
ATOM     19  C   UNL     1       2.076   5.717  19.178  0.00  0.00    +0.000 C 
ENDBRANCH  17  19
BRANCH  17  20
ATOM     20  C   UNL     1       1.792   4.048  21.052  0.00  0.00    +0.000 C 
ATOM     21  O   UNL     1       2.060   3.394  22.047  0.00  0.00    +0.000 OA
BRANCH  20  22
ATOM     22  O   UNL     1       0.591   3.935  20.440  0.00  0.00    +0.000 OA
ATOM     23  H   UNL     1       0.478   4.487  19.628  0.00  0.00    +0.000 HD
ENDBRANCH  20  22
ENDBRANCH  17  20
ENDBRANCH   1  17
TORSDOF 5
ENDMDL
MODEL 7
REMARK VINA RESULT:      -6.6      4.550      8.088
REMARK  Name = 
REMARK  6 active torsions:
REMARK  status: ('A' for Active; 'I' for Inactive)
REMARK    1  A    between atoms: C_1  and  C_2
REMARK    2  A    between atoms: C_2  and  C_3
REMARK    3  A    between atoms: C_3  and  C_4
REMARK    4  A    between atoms: C_3  and  N_7
REMARK    5  A    between atoms: C_4  and  O_6
REMARK    6  A    between atoms: C_11  and  C_12
REMARK                            x       y       z     vdW  Elec       q    Type
REMARK                         _______ _______ _______ _____ _____    ______ ____
ROOT
ATOM      1  N   UNL     1       0.204  10.851  20.734  0.00  0.00    +0.000 NA
ATOM      2  C   UNL     1       0.953  10.858  19.403  0.00  0.00    +0.000 C 
ATOM      3  C   UNL     1       1.453   9.466  19.244  0.00  0.00    +0.000 A 
ATOM      4  S   UNL     1       2.153   8.733  17.913  0.00  0.00    +0.000 S 
ATOM      5  C   UNL     1       2.347   7.237  18.786  0.00  0.00    +0.000 A 
ATOM      6  C   UNL     1       1.815   7.323  20.071  0.00  0.00    +0.000 A 
ATOM      7  C   UNL     1       1.337   8.619  20.302  0.00  0.00    +0.000 A 
ATOM      8  S   UNL     1       0.634   9.437  21.617  0.00  0.00    +0.000 S 
ATOM      9  O   UNL     1       1.737   9.730  22.492  0.00  0.00    +0.000 OA
ATOM     10  O   UNL     1      -0.557   8.703  21.981  0.00  0.00    +0.000 OA
ENDROOT
BRANCH   5  11
ATOM     11  C   UNL     1       2.981   6.087  18.126  0.00  0.00    +0.000 A 
ATOM     12  C   UNL     1       4.289   6.159  17.625  0.00  0.00    +0.000 A 
ATOM     13  C   UNL     1       4.872   5.064  16.984  0.00  0.00    +0.000 A 
ATOM     14  C   UNL     1       4.159   3.878  16.851  0.00  0.00    +0.000 A 
ATOM     15  C   UNL     1       2.866   3.782  17.362  0.00  0.00    +0.000 A 
ATOM     16  C   UNL     1       2.281   4.879  17.998  0.00  0.00    +0.000 A 
ENDBRANCH   5  11
BRANCH   1  17
ATOM     17  C   UNL     1      -1.252  11.169  20.620  0.00  0.00    +0.000 C 
BRANCH  17  19
ATOM     18  C   UNL     1      -1.809  11.964  23.014  0.00  0.00    +0.000 C 
ATOM     19  C   UNL     1      -1.585  12.355  21.557  0.00  0.00    +0.000 C 
ENDBRANCH  17  19
BRANCH  17  20
ATOM     20  C   UNL     1      -1.705  11.486  19.189  0.00  0.00    +0.000 C 
ATOM     21  O   UNL     1      -2.027  10.639  18.372  0.00  0.00    +0.000 OA
BRANCH  20  22
ATOM     22  O   UNL     1      -1.769  12.805  18.896  0.00  0.00    +0.000 OA
ATOM     23  H   UNL     1      -1.757  13.412  19.676  0.00  0.00    +0.000 HD
ENDBRANCH  20  22
ENDBRANCH  17  20
ENDBRANCH   1  17
TORSDOF 5
ENDMDL
MODEL 8
REMARK VINA RESULT:      -6.6      1.256      1.849
REMARK  Name = 
REMARK  6 active torsions:
REMARK  status: ('A' for Active; 'I' for Inactive)
REMARK    1  A    between atoms: C_1  and  C_2
REMARK    2  A    between atoms: C_2  and  C_3
REMARK    3  A    between atoms: C_3  and  C_4
REMARK    4  A    between atoms: C_3  and  N_7
REMARK    5  A    between atoms: C_4  and  O_6
REMARK    6  A    between atoms: C_11  and  C_12
REMARK                            x       y       z     vdW  Elec       q    Type
REMARK                         _______ _______ _______ _____ _____    ______ ____
ROOT
ATOM      1  N   UNL     1       4.894   5.691  16.746  0.00  0.00    +0.000 NA
ATOM      2  C   UNL     1       4.166   6.987  16.396  0.00  0.00    +0.000 C 
ATOM      3  C   UNL     1       3.372   7.314  17.613  0.00  0.00    +0.000 A 
ATOM      4  S   UNL     1       2.530   8.708  17.991  0.00  0.00    +0.000 S 
ATOM      5  C   UNL     1       2.012   8.033  19.512  0.00  0.00    +0.000 A 
ATOM      6  C   UNL     1       2.549   6.765  19.717  0.00  0.00    +0.000 A 
ATOM      7  C   UNL     1       3.300   6.379  18.599  0.00  0.00    +0.000 A 
ATOM      8  S   UNL     1       4.164   4.989  18.137  0.00  0.00    +0.000 S 
ATOM      9  O   UNL     1       3.153   4.052  17.733  0.00  0.00    +0.000 OA
ATOM     10  O   UNL     1       5.165   4.759  19.155  0.00  0.00    +0.000 OA
ENDROOT
BRANCH   5  11
ATOM     11  C   UNL     1       1.142   8.820  20.397  0.00  0.00    +0.000 A 
ATOM     12  C   UNL     1       0.302   9.826  19.895  0.00  0.00    +0.000 A 
ATOM     13  C   UNL     1      -0.506  10.578  20.750  0.00  0.00    +0.000 A 
ATOM     14  C   UNL     1      -0.496  10.322  22.117  0.00  0.00    +0.000 A 
ATOM     15  C   UNL     1       0.316   9.311  22.631  0.00  0.00    +0.000 A 
ATOM     16  C   UNL     1       1.128   8.563  21.776  0.00  0.00    +0.000 A 
ENDBRANCH   5  11
BRANCH   1  17
ATOM     17  C   UNL     1       6.385   5.805  16.739  0.00  0.00    +0.000 C 
BRANCH  17  19
ATOM     18  C   UNL     1       7.708   7.827  17.652  0.00  0.00    +0.000 C 
ATOM     19  C   UNL     1       6.834   6.620  17.976  0.00  0.00    +0.000 C 
ENDBRANCH  17  19
BRANCH  17  20
ATOM     20  C   UNL     1       7.107   4.452  16.711  0.00  0.00    +0.000 C 
ATOM     21  O   UNL     1       8.149   4.222  17.302  0.00  0.00    +0.000 OA
BRANCH  20  22
ATOM     22  O   UNL     1       6.473   3.488  16.004  0.00  0.00    +0.000 OA
ATOM     23  H   UNL     1       5.589   3.220  16.355  0.00  0.00    +0.000 HD
ENDBRANCH  20  22
ENDBRANCH  17  20
ENDBRANCH   1  17
TORSDOF 5
ENDMDL
MODEL 9
REMARK VINA RESULT:      -6.5      4.528      7.979
REMARK  Name = 
REMARK  6 active torsions:
REMARK  status: ('A' for Active; 'I' for Inactive)
REMARK    1  A    between atoms: C_1  and  C_2
REMARK    2  A    between atoms: C_2  and  C_3
REMARK    3  A    between atoms: C_3  and  C_4
REMARK    4  A    between atoms: C_3  and  N_7
REMARK    5  A    between atoms: C_4  and  O_6
REMARK    6  A    between atoms: C_11  and  C_12
REMARK                            x       y       z     vdW  Elec       q    Type
REMARK                         _______ _______ _______ _____ _____    ______ ____
ROOT
ATOM      1  N   UNL     1       0.167  10.942  19.945  0.00  0.00    +0.000 NA
ATOM      2  C   UNL     1       1.079  10.695  18.746  0.00  0.00    +0.000 C 
ATOM      3  C   UNL     1       1.565   9.299  18.923  0.00  0.00    +0.000 A 
ATOM      4  S   UNL     1       2.412   8.325  17.859  0.00  0.00    +0.000 S 
ATOM      5  C   UNL     1       2.461   7.027  19.022  0.00  0.00    +0.000 A 
ATOM      6  C   UNL     1       1.772   7.358  20.186  0.00  0.00    +0.000 A 
ATOM      7  C   UNL     1       1.297   8.673  20.100  0.00  0.00    +0.000 A 
ATOM      8  S   UNL     1       0.451   9.728  21.132  0.00  0.00    +0.000 S 
ATOM      9  O   UNL     1       1.439  10.188  22.068  0.00  0.00    +0.000 OA
ATOM     10  O   UNL     1      -0.793   9.074  21.473  0.00  0.00    +0.000 OA
ENDROOT
BRANCH   5  11
ATOM     11  C   UNL     1       3.148   5.773  18.683  0.00  0.00    +0.000 A 
ATOM     12  C   UNL     1       4.430   5.483  19.176  0.00  0.00    +0.000 A 
ATOM     13  C   UNL     1       5.079   4.296  18.831  0.00  0.00    +0.000 A 
ATOM     14  C   UNL     1       4.447   3.376  18.001  0.00  0.00    +0.000 A 
ATOM     15  C   UNL     1       3.165   3.638  17.520  0.00  0.00    +0.000 A 
ATOM     16  C   UNL     1       2.519   4.828  17.860  0.00  0.00    +0.000 A 
ENDBRANCH   5  11
BRANCH   1  17
ATOM     17  C   UNL     1      -1.256  11.227  19.585  0.00  0.00    +0.000 C 
BRANCH  17  19
ATOM     18  C   UNL     1      -3.106  12.757  20.539  0.00  0.00    +0.000 C 
ATOM     19  C   UNL     1      -1.644  12.623  20.130  0.00  0.00    +0.000 C 
ENDBRANCH  17  19
BRANCH  17  20
ATOM     20  C   UNL     1      -1.539  11.152  18.079  0.00  0.00    +0.000 C 
ATOM     21  O   UNL     1      -1.813  10.122  17.487  0.00  0.00    +0.000 OA
BRANCH  20  22
ATOM     22  O   UNL     1      -1.508  12.343  17.439  0.00  0.00    +0.000 OA
ATOM     23  H   UNL     1      -0.648  12.828  17.489  0.00  0.00    +0.000 HD
ENDBRANCH  20  22
ENDBRANCH  17  20
ENDBRANCH   1  17
TORSDOF 5
ENDMDL
