MODEL 1
REMARK VINA RESULT:      -6.8      0.000      0.000
REMARK  Name = 
REMARK  2 active torsions:
REMARK  status: ('A' for Active; 'I' for Inactive)
REMARK    1  A    between atoms: C_5  and  C_6
REMARK    2  A    between atoms: C_6  and  C_7
REMARK                            x       y       z     vdW  Elec       q    Type
REMARK                         _______ _______ _______ _____ _____    ______ ____
ROOT
ATOM      1  O   UNL     1       8.497   4.092  17.806  0.00  0.00    +0.000 OA
ATOM      2  C   UNL     1       7.443   4.707  17.793  0.00  0.00    +0.000 C 
ATOM      3  C   UNL     1       7.278   6.187  17.575  0.00  0.00    +0.000 C 
ATOM      4  C   UNL     1       5.773   6.325  17.341  0.00  0.00    +0.000 C 
ATOM      5  C   UNL     1       5.163   5.154  18.112  0.00  0.00    +0.000 C 
ATOM      6  N   UNL     1       6.202   4.161  18.028  0.00  0.00    +0.000 N 
ATOM      7  H   UNL     1       6.110   3.204  18.345  0.00  0.00    +0.000 HD
ENDROOT
BRANCH   5   8
ATOM      8  C   UNL     1       3.835   4.655  17.523  0.00  0.00    +0.000 C 
BRANCH   8   9
ATOM      9  C   UNL     1       2.821   4.228  18.568  0.00  0.00    +0.000 A 
ATOM     10  C   UNL     1       2.803   4.817  19.841  0.00  0.00    +0.000 A 
ATOM     11  C   UNL     1       1.860   4.425  20.795  0.00  0.00    +0.000 A 
ATOM     12  C   UNL     1       0.905   3.459  20.482  0.00  0.00    +0.000 A 
ATOM     13  C   UNL     1       0.907   2.870  19.220  0.00  0.00    +0.000 A 
ATOM     14  C   UNL     1       1.865   3.243  18.274  0.00  0.00    +0.000 A 
ENDBRANCH   8   9
ENDBRANCH   5   8
TORSDOF 2
ENDMDL
MODEL 2
REMARK VINA RESULT:      -6.6      1.129      1.187
REMARK  Name = 
REMARK  2 active torsions:
REMARK  status: ('A' for Active; 'I' for Inactive)
REMARK    1  A    between atoms: C_5  and  C_6
REMARK    2  A    between atoms: C_6  and  C_7
REMARK                            x       y       z     vdW  Elec       q    Type
REMARK                         _______ _______ _______ _____ _____    ______ ____
ROOT
ATOM      1  O   UNL     1       8.323   4.204  17.437  0.00  0.00    +0.000 OA
ATOM      2  C   UNL     1       7.160   4.554  17.320  0.00  0.00    +0.000 C 
ATOM      3  C   UNL     1       6.660   5.745  16.549  0.00  0.00    +0.000 C 
ATOM      4  C   UNL     1       5.152   5.495  16.485  0.00  0.00    +0.000 C 
ATOM      5  C   UNL     1       4.855   4.671  17.738  0.00  0.00    +0.000 C 
ATOM      6  N   UNL     1       6.082   3.942  17.922  0.00  0.00    +0.000 N 
ATOM      7  H   UNL     1       6.220   3.210  18.607  0.00  0.00    +0.000 HD
ENDROOT
BRANCH   5   8
ATOM      8  C   UNL     1       3.645   3.738  17.587  0.00  0.00    +0.000 C 
BRANCH   8   9
ATOM      9  C   UNL     1       2.869   3.523  18.873  0.00  0.00    +0.000 A 
ATOM     10  C   UNL     1       3.447   2.855  19.962  0.00  0.00    +0.000 A 
ATOM     11  C   UNL     1       2.729   2.669  21.148  0.00  0.00    +0.000 A 
ATOM     12  C   UNL     1       1.435   3.171  21.270  0.00  0.00    +0.000 A 
ATOM     13  C   UNL     1       0.851   3.841  20.199  0.00  0.00    +0.000 A 
ATOM     14  C   UNL     1       1.557   4.007  19.005  0.00  0.00    +0.000 A 
ENDBRANCH   8   9
ENDBRANCH   5   8
TORSDOF 2
ENDMDL
MODEL 3
REMARK VINA RESULT:      -6.5      1.539      2.102
REMARK  Name = 
REMARK  2 active torsions:
REMARK  status: ('A' for Active; 'I' for Inactive)
REMARK    1  A    between atoms: C_5  and  C_6
REMARK    2  A    between atoms: C_6  and  C_7
REMARK                            x       y       z     vdW  Elec       q    Type
REMARK                         _______ _______ _______ _____ _____    ______ ____
ROOT
ATOM      1  O   UNL     1       7.465   5.430  14.745  0.00  0.00    +0.000 OA
ATOM      2  C   UNL     1       6.781   5.160  15.720  0.00  0.00    +0.000 C 
ATOM      3  C   UNL     1       7.254   4.495  16.984  0.00  0.00    +0.000 C 
ATOM      4  C   UNL     1       6.079   4.713  17.938  0.00  0.00    +0.000 C 
ATOM      5  C   UNL     1       4.861   4.805  17.018  0.00  0.00    +0.000 C 
ATOM      6  N   UNL     1       5.425   5.373  15.822  0.00  0.00    +0.000 N 
ATOM      7  H   UNL     1       4.887   5.674  15.019  0.00  0.00    +0.000 HD
ENDROOT
BRANCH   5   8
ATOM      8  C   UNL     1       3.725   5.667  17.588  0.00  0.00    +0.000 C 
BRANCH   8   9
ATOM      9  C   UNL     1       2.702   4.883  18.391  0.00  0.00    +0.000 A 
ATOM     10  C   UNL     1       2.120   3.716  17.876  0.00  0.00    +0.000 A 
ATOM     11  C   UNL     1       1.186   2.994  18.625  0.00  0.00    +0.000 A 
ATOM     12  C   UNL     1       0.841   3.415  19.908  0.00  0.00    +0.000 A 
ATOM     13  C   UNL     1       1.415   4.570  20.434  0.00  0.00    +0.000 A 
ATOM     14  C   UNL     1       2.330   5.305  19.678  0.00  0.00    +0.000 A 
ENDBRANCH   8   9
ENDBRANCH   5   8
TORSDOF 2
ENDMDL
MODEL 4
REMARK VINA RESULT:      -6.4      1.581      1.926
REMARK  Name = 
REMARK  2 active torsions:
REMARK  status: ('A' for Active; 'I' for Inactive)
REMARK    1  A    between atoms: C_5  and  C_6
REMARK    2  A    between atoms: C_6  and  C_7
REMARK                            x       y       z     vdW  Elec       q    Type
REMARK                         _______ _______ _______ _____ _____    ______ ____
ROOT
ATOM      1  O   UNL     1       7.411   5.178  15.216  0.00  0.00    +0.000 OA
ATOM      2  C   UNL     1       6.444   5.118  15.959  0.00  0.00    +0.000 C 
ATOM      3  C   UNL     1       5.554   6.263  16.358  0.00  0.00    +0.000 C 
ATOM      4  C   UNL     1       4.364   5.554  17.006  0.00  0.00    +0.000 C 
ATOM      5  C   UNL     1       4.953   4.252  17.548  0.00  0.00    +0.000 C 
ATOM      6  N   UNL     1       6.015   3.986  16.614  0.00  0.00    +0.000 N 
ATOM      7  H   UNL     1       6.570   3.139  16.598  0.00  0.00    +0.000 HD
ENDROOT
BRANCH   5   8
ATOM      8  C   UNL     1       3.940   3.099  17.616  0.00  0.00    +0.000 C 
BRANCH   8   9
ATOM      9  C   UNL     1       3.042   3.141  18.839  0.00  0.00    +0.000 A 
ATOM     10  C   UNL     1       1.716   3.589  18.747  0.00  0.00    +0.000 A 
ATOM     11  C   UNL     1       0.892   3.616  19.876  0.00  0.00    +0.000 A 
ATOM     12  C   UNL     1       1.374   3.171  21.106  0.00  0.00    +0.000 A 
ATOM     13  C   UNL     1       2.686   2.718  21.211  0.00  0.00    +0.000 A 
ATOM     14  C   UNL     1       3.518   2.713  20.088  0.00  0.00    +0.000 A 
ENDBRANCH   8   9
ENDBRANCH   5   8
TORSDOF 2
ENDMDL
MODEL 5
REMARK VINA RESULT:      -6.4      1.417      1.632
REMARK  Name = 
REMARK  2 active torsions:
REMARK  status: ('A' for Active; 'I' for Inactive)
REMARK    1  A    between atoms: C_5  and  C_6
REMARK    2  A    between atoms: C_6  and  C_7
REMARK                            x       y       z     vdW  Elec       q    Type
REMARK                         _______ _______ _______ _____ _____    ______ ____
ROOT
ATOM      1  O   UNL     1       7.576   6.693  16.455  0.00  0.00    +0.000 OA
ATOM      2  C   UNL     1       6.611   6.053  16.844  0.00  0.00    +0.000 C 
ATOM      3  C   UNL     1       6.635   4.658  17.405  0.00  0.00    +0.000 C 
ATOM      4  C   UNL     1       5.236   4.514  18.006  0.00  0.00    +0.000 C 
ATOM      5  C   UNL     1       4.368   5.451  17.165  0.00  0.00    +0.000 C 
ATOM      6  N   UNL     1       5.303   6.479  16.792  0.00  0.00    +0.000 N 
ATOM      7  H   UNL     1       5.057   7.333  16.308  0.00  0.00    +0.000 HD
ENDROOT
BRANCH   5   8
ATOM      8  C   UNL     1       3.159   6.015  17.925  0.00  0.00    +0.000 C 
BRANCH   8   9
ATOM      9  C   UNL     1       2.338   4.961  18.645  0.00  0.00    +0.000 A 
ATOM     10  C   UNL     1       2.082   5.059  20.020  0.00  0.00    +0.000 A 
ATOM     11  C   UNL     1       1.317   4.089  20.675  0.00  0.00    +0.000 A 
ATOM     12  C   UNL     1       0.775   3.023  19.959  0.00  0.00    +0.000 A 
ATOM     13  C   UNL     1       1.016   2.916  18.591  0.00  0.00    +0.000 A 
ATOM     14  C   UNL     1       1.800   3.872  17.941  0.00  0.00    +0.000 A 
ENDBRANCH   8   9
ENDBRANCH   5   8
TORSDOF 2
ENDMDL
MODEL 6
REMARK VINA RESULT:      -6.4      0.573      1.450
REMARK  Name = 
REMARK  2 active torsions:
REMARK  status: ('A' for Active; 'I' for Inactive)
REMARK    1  A    between atoms: C_5  and  C_6
REMARK    2  A    between atoms: C_6  and  C_7
REMARK                            x       y       z     vdW  Elec       q    Type
REMARK                         _______ _______ _______ _____ _____    ______ ____
ROOT
ATOM      1  O   UNL     1       8.147   4.371  18.190  0.00  0.00    +0.000 OA
ATOM      2  C   UNL     1       7.194   5.108  17.992  0.00  0.00    +0.000 C 
ATOM      3  C   UNL     1       7.252   6.533  17.512  0.00  0.00    +0.000 C 
ATOM      4  C   UNL     1       5.797   6.824  17.145  0.00  0.00    +0.000 C 
ATOM      5  C   UNL     1       4.988   5.902  18.058  0.00  0.00    +0.000 C 
ATOM      6  N   UNL     1       5.876   4.782  18.223  0.00  0.00    +0.000 N 
ATOM      7  H   UNL     1       5.633   3.918  18.692  0.00  0.00    +0.000 HD
ENDROOT
BRANCH   5   8
ATOM      8  C   UNL     1       3.634   5.484  17.465  0.00  0.00    +0.000 C 
BRANCH   8   9
ATOM      9  C   UNL     1       2.689   4.855  18.473  0.00  0.00    +0.000 A 
ATOM     10  C   UNL     1       1.928   3.725  18.142  0.00  0.00    +0.000 A 
ATOM     11  C   UNL     1       1.067   3.145  19.079  0.00  0.00    +0.000 A 
ATOM     12  C   UNL     1       0.975   3.671  20.366  0.00  0.00    +0.000 A 
ATOM     13  C   UNL     1       1.730   4.790  20.711  0.00  0.00    +0.000 A 
ATOM     14  C   UNL     1       2.573   5.384  19.768  0.00  0.00    +0.000 A 
ENDBRANCH   8   9
ENDBRANCH   5   8
TORSDOF 2
ENDMDL
MODEL 7
REMARK VINA RESULT:      -6.3      1.189      1.262
REMARK  Name = 
REMARK  2 active torsions:
REMARK  status: ('A' for Active; 'I' for Inactive)
REMARK    1  A    between atoms: C_5  and  C_6
REMARK    2  A    between atoms: C_6  and  C_7
REMARK                            x       y       z     vdW  Elec       q    Type
REMARK                         _______ _______ _______ _____ _____    ______ ____
ROOT
ATOM      1  O   UNL     1       7.724   4.731  15.335  0.00  0.00    +0.000 OA
ATOM      2  C   UNL     1       7.005   4.759  16.321  0.00  0.00    +0.000 C 
ATOM      3  C   UNL     1       7.458   4.822  17.754  0.00  0.00    +0.000 C 
ATOM      4  C   UNL     1       6.167   5.158  18.501  0.00  0.00    +0.000 C 
ATOM      5  C   UNL     1       5.061   4.574  17.620  0.00  0.00    +0.000 C 
ATOM      6  N   UNL     1       5.630   4.686  16.303  0.00  0.00    +0.000 N 
ATOM      7  H   UNL     1       5.134   4.487  15.443  0.00  0.00    +0.000 HD
ENDROOT
BRANCH   5   8
ATOM      8  C   UNL     1       3.723   5.319  17.739  0.00  0.00    +0.000 C 
BRANCH   8   9
ATOM      9  C   UNL     1       2.666   4.563  18.522  0.00  0.00    +0.000 A 
ATOM     10  C   UNL     1       2.269   4.990  19.798  0.00  0.00    +0.000 A 
ATOM     11  C   UNL     1       1.287   4.294  20.510  0.00  0.00    +0.000 A 
ATOM     12  C   UNL     1       0.671   3.179  19.946  0.00  0.00    +0.000 A 
ATOM     13  C   UNL     1       1.050   2.747  18.677  0.00  0.00    +0.000 A 
ATOM     14  C   UNL     1       2.048   3.427  17.975  0.00  0.00    +0.000 A 
ENDBRANCH   8   9
ENDBRANCH   5   8
TORSDOF 2
ENDMDL
MODEL 8
REMARK VINA RESULT:      -6.3      1.525      1.912
REMARK  Name = 
REMARK  2 active torsions:
REMARK  status: ('A' for Active; 'I' for Inactive)
REMARK    1  A    between atoms: C_5  and  C_6
REMARK    2  A    between atoms: C_6  and  C_7
REMARK                            x       y       z     vdW  Elec       q    Type
REMARK                         _______ _______ _______ _____ _____    ______ ____
ROOT
ATOM      1  O   UNL     1       8.353   5.345  19.871  0.00  0.00    +0.000 OA
ATOM      2  C   UNL     1       7.552   5.600  18.987  0.00  0.00    +0.000 C 
ATOM      3  C   UNL     1       7.597   6.782  18.056  0.00  0.00    +0.000 C 
ATOM      4  C   UNL     1       6.567   6.409  16.989  0.00  0.00    +0.000 C 
ATOM      5  C   UNL     1       5.579   5.501  17.723  0.00  0.00    +0.000 C 
ATOM      6  N   UNL     1       6.418   4.871  18.707  0.00  0.00    +0.000 N 
ATOM      7  H   UNL     1       6.124   4.119  19.319  0.00  0.00    +0.000 HD
ENDROOT
BRANCH   5   8
ATOM      8  C   UNL     1       4.890   4.476  16.808  0.00  0.00    +0.000 C 
BRANCH   8   9
ATOM      9  C   UNL     1       3.666   3.826  17.426  0.00  0.00    +0.000 A 
ATOM     10  C   UNL     1       3.672   2.471  17.787  0.00  0.00    +0.000 A 
ATOM     11  C   UNL     1       2.543   1.882  18.364  0.00  0.00    +0.000 A 
ATOM     12  C   UNL     1       1.404   2.644  18.612  0.00  0.00    +0.000 A 
ATOM     13  C   UNL     1       1.385   3.992  18.264  0.00  0.00    +0.000 A 
ATOM     14  C   UNL     1       2.504   4.577  17.665  0.00  0.00    +0.000 A 
ENDBRANCH   8   9
ENDBRANCH   5   8
TORSDOF 2
ENDMDL
MODEL 9
REMARK VINA RESULT:      -6.3      1.507      2.116
REMARK  Name = 
REMARK  2 active torsions:
REMARK  status: ('A' for Active; 'I' for Inactive)
REMARK    1  A    between atoms: C_5  and  C_6
REMARK    2  A    between atoms: C_6  and  C_7
REMARK                            x       y       z     vdW  Elec       q    Type
REMARK                         _______ _______ _______ _____ _____    ______ ____
ROOT
ATOM      1  O   UNL     1       7.550   7.139  16.852  0.00  0.00    +0.000 OA
ATOM      2  C   UNL     1       6.613   6.437  17.199  0.00  0.00    +0.000 C 
ATOM      3  C   UNL     1       6.705   5.064  17.806  0.00  0.00    +0.000 C 
ATOM      4  C   UNL     1       5.284   4.829  18.322  0.00  0.00    +0.000 C 
ATOM      5  C   UNL     1       4.405   5.672  17.396  0.00  0.00    +0.000 C 
ATOM      6  N   UNL     1       5.283   6.759  17.050  0.00  0.00    +0.000 N 
ATOM      7  H   UNL     1       5.005   7.577  16.523  0.00  0.00    +0.000 HD
ENDROOT
BRANCH   5   8
ATOM      8  C   UNL     1       3.109   6.163  18.059  0.00  0.00    +0.000 C 
BRANCH   8   9
ATOM      9  C   UNL     1       2.285   5.057  18.692  0.00  0.00    +0.000 A 
ATOM     10  C   UNL     1       1.843   3.962  17.935  0.00  0.00    +0.000 A 
ATOM     11  C   UNL     1       1.092   2.942  18.528  0.00  0.00    +0.000 A 
ATOM     12  C   UNL     1       0.796   2.990  19.889  0.00  0.00    +0.000 A 
ATOM     13  C   UNL     1       1.234   4.068  20.654  0.00  0.00    +0.000 A 
ATOM     14  C   UNL     1       1.964   5.099  20.058  0.00  0.00    +0.000 A 
ENDBRANCH   8   9
ENDBRANCH   5   8
TORSDOF 2
ENDMDL
