MODEL 1
REMARK VINA RESULT:      -6.5      0.000      0.000
REMARK  Name = 
REMARK  16 active torsions:
REMARK  status: ('A' for Active; 'I' for Inactive)
REMARK    1  A    between atoms: C_1  and  C_2
REMARK    2  A    between atoms: C_2  and  O_3
REMARK    3  A    between atoms: O_3  and  C_4
REMARK    4  A    between atoms: C_6  and  C_7
REMARK    5  A    between atoms: C_7  and  C_8
REMARK    6  A    between atoms: C_8  and  O_10
REMARK    7  A    between atoms: O_10  and  C_11
REMARK    8  A    between atoms: C_11  and  C_12
REMARK    9  A    between atoms: C_11  and  C_13
REMARK   10  A    between atoms: C_17  and  O_18
REMARK   11  A    between atoms: O_18  and  C_19
REMARK   12  A    between atoms: C_19  and  C_20
REMARK   13  A    between atoms: N_22  and  C_23
REMARK   14  A    between atoms: N_22  and  C_25
REMARK   15  A    between atoms: C_23  and  C_24
REMARK   16  A    between atoms: C_25  and  C_26
REMARK                            x       y       z     vdW  Elec       q    Type
REMARK                         _______ _______ _______ _____ _____    ______ ____
ROOT
ATOM      1  C   UNL     1       5.936   5.065  17.819  0.00  0.00    +0.000 A 
ATOM      2  C   UNL     1       6.546   4.440  16.719  0.00  0.00    +0.000 A 
ATOM      3  C   UNL     1       6.162   4.709  15.401  0.00  0.00    +0.000 A 
ATOM      4  C   UNL     1       5.235   5.726  15.191  0.00  0.00    +0.000 A 
ATOM      5  C   UNL     1       4.685   6.416  16.272  0.00  0.00    +0.000 A 
ATOM      6  F   UNL     1       3.832   7.410  15.983  0.00  0.00    +0.000 F 
ATOM      7  C   UNL     1       4.992   6.082  17.599  0.00  0.00    +0.000 A 
ENDROOT
BRANCH   1   8
ATOM      8  O   UNL     1       6.173   4.672  19.117  0.00  0.00    +0.000 OA
BRANCH   8  10
ATOM      9  C   UNL     1       7.998   6.345  19.015  0.00  0.00    +0.000 C 
ATOM     10  C   UNL     1       7.353   5.174  19.758  0.00  0.00    +0.000 C 
ENDBRANCH   8  10
ENDBRANCH   1   8
BRANCH   3  11
ATOM     11  C   UNL     1       6.686   3.849  14.267  0.00  0.00    +0.000 C 
BRANCH  11  12
ATOM     12  C   UNL     1       7.207   4.631  13.084  0.00  0.00    +0.000 C 
ATOM     13  O   UNL     1       7.948   5.613  13.148  0.00  0.00    +0.000 OA
BRANCH  12  14
ATOM     14  O   UNL     1       6.758   4.092  11.909  0.00  0.00    +0.000 OA
BRANCH  14  15
ATOM     15  C   UNL     1       5.886   2.953  12.066  0.00  0.00    +0.000 C 
ATOM     16  C   UNL     1       4.495   3.290  11.533  0.00  0.00    +0.000 C 
ATOM     17  C   UNL     1       6.479   1.775  11.296  0.00  0.00    +0.000 C 
ENDBRANCH  14  15
ENDBRANCH  12  14
ENDBRANCH  11  12
ENDBRANCH   3  11
BRANCH   7  18
ATOM     18  O   UNL     1       4.425   6.674  18.704  0.00  0.00    +0.000 OA
BRANCH  18  19
ATOM     19  C   UNL     1       3.003   6.789  18.740  0.00  0.00    +0.000 C 
BRANCH  19  20
ATOM     20  C   UNL     1       2.262   5.820  19.691  0.00  0.00    +0.000 C 
ATOM     21  O   UNL     1       2.115   6.100  20.883  0.00  0.00    +0.000 OA
ATOM     22  N   UNL     1       1.745   4.629  19.163  0.00  0.00    +0.000 N 
BRANCH  22  23
ATOM     23  C   UNL     1       1.735   4.265  17.740  0.00  0.00    +0.000 C 
ATOM     24  C   UNL     1       2.710   3.160  17.345  0.00  0.00    +0.000 C 
ENDBRANCH  22  23
BRANCH  22  25
ATOM     25  C   UNL     1       0.953   3.804  20.084  0.00  0.00    +0.000 C 
ATOM     26  C   UNL     1       1.790   2.772  20.823  0.00  0.00    +0.000 C 
ENDBRANCH  22  25
ENDBRANCH  19  20
ENDBRANCH  18  19
ENDBRANCH   7  18
TORSDOF 11
ENDMDL
MODEL 2
REMARK VINA RESULT:      -6.5      1.528      1.875
REMARK  Name = 
REMARK  16 active torsions:
REMARK  status: ('A' for Active; 'I' for Inactive)
REMARK    1  A    between atoms: C_1  and  C_2
REMARK    2  A    between atoms: C_2  and  O_3
REMARK    3  A    between atoms: O_3  and  C_4
REMARK    4  A    between atoms: C_6  and  C_7
REMARK    5  A    between atoms: C_7  and  C_8
REMARK    6  A    between atoms: C_8  and  O_10
REMARK    7  A    between atoms: O_10  and  C_11
REMARK    8  A    between atoms: C_11  and  C_12
REMARK    9  A    between atoms: C_11  and  C_13
REMARK   10  A    between atoms: C_17  and  O_18
REMARK   11  A    between atoms: O_18  and  C_19
REMARK   12  A    between atoms: C_19  and  C_20
REMARK   13  A    between atoms: N_22  and  C_23
REMARK   14  A    between atoms: N_22  and  C_25
REMARK   15  A    between atoms: C_23  and  C_24
REMARK   16  A    between atoms: C_25  and  C_26
REMARK                            x       y       z     vdW  Elec       q    Type
REMARK                         _______ _______ _______ _____ _____    ______ ____
ROOT
ATOM      1  C   UNL     1       5.574   6.284  16.753  0.00  0.00    +0.000 A 
ATOM      2  C   UNL     1       6.210   5.640  15.679  0.00  0.00    +0.000 A 
ATOM      3  C   UNL     1       5.761   4.416  15.173  0.00  0.00    +0.000 A 
ATOM      4  C   UNL     1       4.570   3.903  15.679  0.00  0.00    +0.000 A 
ATOM      5  C   UNL     1       3.881   4.578  16.686  0.00  0.00    +0.000 A 
ATOM      6  F   UNL     1       2.720   4.040  17.088  0.00  0.00    +0.000 F 
ATOM      7  C   UNL     1       4.378   5.753  17.266  0.00  0.00    +0.000 A 
ENDROOT
BRANCH   1   8
ATOM      8  O   UNL     1       6.113   7.386  17.379  0.00  0.00    +0.000 OA
BRANCH   8  10
ATOM      9  C   UNL     1       8.034   6.627  18.750  0.00  0.00    +0.000 C 
ATOM     10  C   UNL     1       7.538   7.426  17.543  0.00  0.00    +0.000 C 
ENDBRANCH   8  10
ENDBRANCH   1   8
BRANCH   3  11
ATOM     11  C   UNL     1       6.607   3.652  14.172  0.00  0.00    +0.000 C 
BRANCH  11  12
ATOM     12  C   UNL     1       7.092   4.482  13.007  0.00  0.00    +0.000 C 
ATOM     13  O   UNL     1       7.798   5.488  13.091  0.00  0.00    +0.000 OA
BRANCH  12  14
ATOM     14  O   UNL     1       6.654   3.957  11.821  0.00  0.00    +0.000 OA
BRANCH  14  15
ATOM     15  C   UNL     1       5.776   2.820  11.957  0.00  0.00    +0.000 C 
ATOM     16  C   UNL     1       4.389   3.173  11.424  0.00  0.00    +0.000 C 
ATOM     17  C   UNL     1       6.366   1.652  11.169  0.00  0.00    +0.000 C 
ENDBRANCH  14  15
ENDBRANCH  12  14
ENDBRANCH  11  12
ENDBRANCH   3  11
BRANCH   7  18
ATOM     18  O   UNL     1       3.783   6.420  18.312  0.00  0.00    +0.000 OA
BRANCH  18  19
ATOM     19  C   UNL     1       3.940   5.877  19.622  0.00  0.00    +0.000 C 
BRANCH  19  20
ATOM     20  C   UNL     1       2.788   4.980  20.135  0.00  0.00    +0.000 C 
ATOM     21  O   UNL     1       1.700   5.472  20.443  0.00  0.00    +0.000 OA
ATOM     22  N   UNL     1       3.004   3.599  20.222  0.00  0.00    +0.000 N 
BRANCH  22  23
ATOM     23  C   UNL     1       4.203   2.895  19.747  0.00  0.00    +0.000 C 
ATOM     24  C   UNL     1       4.656   1.726  20.616  0.00  0.00    +0.000 C 
ENDBRANCH  22  23
BRANCH  22  25
ATOM     25  C   UNL     1       1.842   2.786  20.604  0.00  0.00    +0.000 C 
ATOM     26  C   UNL     1       1.022   2.327  19.408  0.00  0.00    +0.000 C 
ENDBRANCH  22  25
ENDBRANCH  19  20
ENDBRANCH  18  19
ENDBRANCH   7  18
TORSDOF 11
ENDMDL
MODEL 3
REMARK VINA RESULT:      -6.4      3.125      7.932
REMARK  Name = 
REMARK  16 active torsions:
REMARK  status: ('A' for Active; 'I' for Inactive)
REMARK    1  A    between atoms: C_1  and  C_2
REMARK    2  A    between atoms: C_2  and  O_3
REMARK    3  A    between atoms: O_3  and  C_4
REMARK    4  A    between atoms: C_6  and  C_7
REMARK    5  A    between atoms: C_7  and  C_8
REMARK    6  A    between atoms: C_8  and  O_10
REMARK    7  A    between atoms: O_10  and  C_11
REMARK    8  A    between atoms: C_11  and  C_12
REMARK    9  A    between atoms: C_11  and  C_13
REMARK   10  A    between atoms: C_17  and  O_18
REMARK   11  A    between atoms: O_18  and  C_19
REMARK   12  A    between atoms: C_19  and  C_20
REMARK   13  A    between atoms: N_22  and  C_23
REMARK   14  A    between atoms: N_22  and  C_25
REMARK   15  A    between atoms: C_23  and  C_24
REMARK   16  A    between atoms: C_25  and  C_26
REMARK                            x       y       z     vdW  Elec       q    Type
REMARK                         _______ _______ _______ _____ _____    ______ ____
ROOT
ATOM      1  C   UNL     1       1.799   4.777  19.356  0.00  0.00    +0.000 A 
ATOM      2  C   UNL     1       1.376   5.881  20.115  0.00  0.00    +0.000 A 
ATOM      3  C   UNL     1       1.892   7.165  19.914  0.00  0.00    +0.000 A 
ATOM      4  C   UNL     1       2.754   7.356  18.838  0.00  0.00    +0.000 A 
ATOM      5  C   UNL     1       3.114   6.284  18.022  0.00  0.00    +0.000 A 
ATOM      6  F   UNL     1       3.914   6.560  16.982  0.00  0.00    +0.000 F 
ATOM      7  C   UNL     1       2.679   4.976  18.279  0.00  0.00    +0.000 A 
ENDROOT
BRANCH   1   8
ATOM      8  O   UNL     1       1.440   3.485  19.668  0.00  0.00    +0.000 OA
BRANCH   8  10
ATOM      9  C   UNL     1       2.507   2.652  21.744  0.00  0.00    +0.000 C 
ATOM     10  C   UNL     1       1.243   3.166  21.052  0.00  0.00    +0.000 C 
ENDBRANCH   8  10
ENDBRANCH   1   8
BRANCH   3  11
ATOM     11  C   UNL     1       1.577   8.273  20.901  0.00  0.00    +0.000 C 
BRANCH  11  12
ATOM     12  C   UNL     1       0.829   9.442  20.306  0.00  0.00    +0.000 C 
ATOM     13  O   UNL     1       1.197  10.106  19.336  0.00  0.00    +0.000 OA
BRANCH  12  14
ATOM     14  O   UNL     1      -0.340   9.666  20.982  0.00  0.00    +0.000 OA
BRANCH  14  15
ATOM     15  C   UNL     1      -0.289  10.759  21.922  0.00  0.00    +0.000 C 
ATOM     16  C   UNL     1      -1.068  11.951  21.370  0.00  0.00    +0.000 C 
ATOM     17  C   UNL     1      -0.896  10.294  23.244  0.00  0.00    +0.000 C 
ENDBRANCH  14  15
ENDBRANCH  12  14
ENDBRANCH  11  12
ENDBRANCH   3  11
BRANCH   7  18
ATOM     18  O   UNL     1       3.060   3.870  17.556  0.00  0.00    +0.000 OA
BRANCH  18  19
ATOM     19  C   UNL     1       4.195   3.136  18.015  0.00  0.00    +0.000 C 
BRANCH  19  20
ATOM     20  C   UNL     1       5.464   3.962  18.332  0.00  0.00    +0.000 C 
ATOM     21  O   UNL     1       5.751   4.247  19.496  0.00  0.00    +0.000 OA
ATOM     22  N   UNL     1       6.285   4.361  17.269  0.00  0.00    +0.000 N 
BRANCH  22  23
ATOM     23  C   UNL     1       6.116   3.956  15.867  0.00  0.00    +0.000 C 
ATOM     24  C   UNL     1       6.122   5.099  14.856  0.00  0.00    +0.000 C 
ENDBRANCH  22  23
BRANCH  22  25
ATOM     25  C   UNL     1       7.533   5.042  17.637  0.00  0.00    +0.000 C 
ATOM     26  C   UNL     1       7.360   6.544  17.806  0.00  0.00    +0.000 C 
ENDBRANCH  22  25
ENDBRANCH  19  20
ENDBRANCH  18  19
ENDBRANCH   7  18
TORSDOF 11
ENDMDL
MODEL 4
REMARK VINA RESULT:      -6.4      2.950      7.847
REMARK  Name = 
REMARK  16 active torsions:
REMARK  status: ('A' for Active; 'I' for Inactive)
REMARK    1  A    between atoms: C_1  and  C_2
REMARK    2  A    between atoms: C_2  and  O_3
REMARK    3  A    between atoms: O_3  and  C_4
REMARK    4  A    between atoms: C_6  and  C_7
REMARK    5  A    between atoms: C_7  and  C_8
REMARK    6  A    between atoms: C_8  and  O_10
REMARK    7  A    between atoms: O_10  and  C_11
REMARK    8  A    between atoms: C_11  and  C_12
REMARK    9  A    between atoms: C_11  and  C_13
REMARK   10  A    between atoms: C_17  and  O_18
REMARK   11  A    between atoms: O_18  and  C_19
REMARK   12  A    between atoms: C_19  and  C_20
REMARK   13  A    between atoms: N_22  and  C_23
REMARK   14  A    between atoms: N_22  and  C_25
REMARK   15  A    between atoms: C_23  and  C_24
REMARK   16  A    between atoms: C_25  and  C_26
REMARK                            x       y       z     vdW  Elec       q    Type
REMARK                         _______ _______ _______ _____ _____    ______ ____
ROOT
ATOM      1  C   UNL     1       1.953   4.864  19.544  0.00  0.00    +0.000 A 
ATOM      2  C   UNL     1       1.537   5.888  20.411  0.00  0.00    +0.000 A 
ATOM      3  C   UNL     1       1.902   7.224  20.215  0.00  0.00    +0.000 A 
ATOM      4  C   UNL     1       2.590   7.544  19.048  0.00  0.00    +0.000 A 
ATOM      5  C   UNL     1       2.932   6.547  18.134  0.00  0.00    +0.000 A 
ATOM      6  F   UNL     1       3.555   6.943  17.014  0.00  0.00    +0.000 F 
ATOM      7  C   UNL     1       2.657   5.194  18.374  0.00  0.00    +0.000 A 
ENDROOT
BRANCH   1   8
ATOM      8  O   UNL     1       1.759   3.531  19.829  0.00  0.00    +0.000 OA
BRANCH   8  10
ATOM      9  C   UNL     1       1.478   2.455  22.045  0.00  0.00    +0.000 C 
ATOM     10  C   UNL     1       2.432   2.992  20.976  0.00  0.00    +0.000 C 
ENDBRANCH   8  10
ENDBRANCH   1   8
BRANCH   3  11
ATOM     11  C   UNL     1       1.624   8.253  21.295  0.00  0.00    +0.000 C 
BRANCH  11  12
ATOM     12  C   UNL     1       0.211   8.786  21.296  0.00  0.00    +0.000 C 
ATOM     13  O   UNL     1      -0.616   8.614  22.192  0.00  0.00    +0.000 OA
BRANCH  12  14
ATOM     14  O   UNL     1      -0.035   9.512  20.162  0.00  0.00    +0.000 OA
BRANCH  14  15
ATOM     15  C   UNL     1      -0.585  10.825  20.398  0.00  0.00    +0.000 C 
ATOM     16  C   UNL     1       0.547  11.830  20.601  0.00  0.00    +0.000 C 
ATOM     17  C   UNL     1      -1.437  11.220  19.193  0.00  0.00    +0.000 C 
ENDBRANCH  14  15
ENDBRANCH  12  14
ENDBRANCH  11  12
ENDBRANCH   3  11
BRANCH   7  18
ATOM     18  O   UNL     1       3.036   4.161  17.548  0.00  0.00    +0.000 OA
BRANCH  18  19
ATOM     19  C   UNL     1       4.180   3.395  17.924  0.00  0.00    +0.000 C 
BRANCH  19  20
ATOM     20  C   UNL     1       5.470   4.193  18.228  0.00  0.00    +0.000 C 
ATOM     21  O   UNL     1       5.846   4.359  19.390  0.00  0.00    +0.000 OA
ATOM     22  N   UNL     1       6.208   4.705  17.153  0.00  0.00    +0.000 N 
BRANCH  22  23
ATOM     23  C   UNL     1       5.932   4.445  15.733  0.00  0.00    +0.000 C 
ATOM     24  C   UNL     1       7.020   4.904  14.767  0.00  0.00    +0.000 C 
ENDBRANCH  22  23
BRANCH  22  25
ATOM     25  C   UNL     1       7.481   5.353  17.493  0.00  0.00    +0.000 C 
ATOM     26  C   UNL     1       7.365   6.866  17.601  0.00  0.00    +0.000 C 
ENDBRANCH  22  25
ENDBRANCH  19  20
ENDBRANCH  18  19
ENDBRANCH   7  18
TORSDOF 11
ENDMDL
MODEL 5
REMARK VINA RESULT:      -6.4      2.744      4.144
REMARK  Name = 
REMARK  16 active torsions:
REMARK  status: ('A' for Active; 'I' for Inactive)
REMARK    1  A    between atoms: C_1  and  C_2
REMARK    2  A    between atoms: C_2  and  O_3
REMARK    3  A    between atoms: O_3  and  C_4
REMARK    4  A    between atoms: C_6  and  C_7
REMARK    5  A    between atoms: C_7  and  C_8
REMARK    6  A    between atoms: C_8  and  O_10
REMARK    7  A    between atoms: O_10  and  C_11
REMARK    8  A    between atoms: C_11  and  C_12
REMARK    9  A    between atoms: C_11  and  C_13
REMARK   10  A    between atoms: C_17  and  O_18
REMARK   11  A    between atoms: O_18  and  C_19
REMARK   12  A    between atoms: C_19  and  C_20
REMARK   13  A    between atoms: N_22  and  C_23
REMARK   14  A    between atoms: N_22  and  C_25
REMARK   15  A    between atoms: C_23  and  C_24
REMARK   16  A    between atoms: C_25  and  C_26
REMARK                            x       y       z     vdW  Elec       q    Type
REMARK                         _______ _______ _______ _____ _____    ______ ____
ROOT
ATOM      1  C   UNL     1       3.321   4.614  18.504  0.00  0.00    +0.000 A 
ATOM      2  C   UNL     1       4.415   4.010  17.862  0.00  0.00    +0.000 A 
ATOM      3  C   UNL     1       5.152   4.665  16.870  0.00  0.00    +0.000 A 
ATOM      4  C   UNL     1       4.856   6.002  16.618  0.00  0.00    +0.000 A 
ATOM      5  C   UNL     1       3.828   6.640  17.312  0.00  0.00    +0.000 A 
ATOM      6  F   UNL     1       3.634   7.939  17.042  0.00  0.00    +0.000 F 
ATOM      7  C   UNL     1       3.021   5.960  18.235  0.00  0.00    +0.000 A 
ENDROOT
BRANCH   1   8
ATOM      8  O   UNL     1       2.478   3.917  19.340  0.00  0.00    +0.000 OA
BRANCH   8  10
ATOM      9  C   UNL     1       2.109   2.722  21.480  0.00  0.00    +0.000 C 
ATOM     10  C   UNL     1       3.076   3.102  20.357  0.00  0.00    +0.000 C 
ENDBRANCH   8  10
ENDBRANCH   1   8
BRANCH   3  11
ATOM     11  C   UNL     1       6.172   3.898  16.051  0.00  0.00    +0.000 C 
BRANCH  11  12
ATOM     12  C   UNL     1       6.682   4.641  14.839  0.00  0.00    +0.000 C 
ATOM     13  O   UNL     1       7.731   5.285  14.785  0.00  0.00    +0.000 OA
BRANCH  12  14
ATOM     14  O   UNL     1       5.825   4.494  13.783  0.00  0.00    +0.000 OA
BRANCH  14  15
ATOM     15  C   UNL     1       6.298   3.611  12.744  0.00  0.00    +0.000 C 
ATOM     16  C   UNL     1       5.116   3.091  11.929  0.00  0.00    +0.000 C 
ATOM     17  C   UNL     1       7.262   4.386  11.848  0.00  0.00    +0.000 C 
ENDBRANCH  14  15
ENDBRANCH  12  14
ENDBRANCH  11  12
ENDBRANCH   3  11
BRANCH   7  18
ATOM     18  O   UNL     1       1.947   6.516  18.892  0.00  0.00    +0.000 OA
BRANCH  18  19
ATOM     19  C   UNL     1       2.189   7.661  19.709  0.00  0.00    +0.000 C 
BRANCH  19  20
ATOM     20  C   UNL     1       1.385   8.935  19.358  0.00  0.00    +0.000 C 
ATOM     21  O   UNL     1       1.588   9.533  18.299  0.00  0.00    +0.000 OA
ATOM     22  N   UNL     1       0.411   9.381  20.261  0.00  0.00    +0.000 N 
BRANCH  22  23
ATOM     23  C   UNL     1      -0.012   8.669  21.474  0.00  0.00    +0.000 C 
ATOM     24  C   UNL     1       0.420   9.314  22.788  0.00  0.00    +0.000 C 
ENDBRANCH  22  23
BRANCH  22  25
ATOM     25  C   UNL     1      -0.399  10.526  19.825  0.00  0.00    +0.000 C 
ATOM     26  C   UNL     1       0.112  11.852  20.366  0.00  0.00    +0.000 C 
ENDBRANCH  22  25
ENDBRANCH  19  20
ENDBRANCH  18  19
ENDBRANCH   7  18
TORSDOF 11
ENDMDL
MODEL 6
REMARK VINA RESULT:      -6.3      3.838      8.422
REMARK  Name = 
REMARK  16 active torsions:
REMARK  status: ('A' for Active; 'I' for Inactive)
REMARK    1  A    between atoms: C_1  and  C_2
REMARK    2  A    between atoms: C_2  and  O_3
REMARK    3  A    between atoms: O_3  and  C_4
REMARK    4  A    between atoms: C_6  and  C_7
REMARK    5  A    between atoms: C_7  and  C_8
REMARK    6  A    between atoms: C_8  and  O_10
REMARK    7  A    between atoms: O_10  and  C_11
REMARK    8  A    between atoms: C_11  and  C_12
REMARK    9  A    between atoms: C_11  and  C_13
REMARK   10  A    between atoms: C_17  and  O_18
REMARK   11  A    between atoms: O_18  and  C_19
REMARK   12  A    between atoms: C_19  and  C_20
REMARK   13  A    between atoms: N_22  and  C_23
REMARK   14  A    between atoms: N_22  and  C_25
REMARK   15  A    between atoms: C_23  and  C_24
REMARK   16  A    between atoms: C_25  and  C_26
REMARK                            x       y       z     vdW  Elec       q    Type
REMARK                         _______ _______ _______ _____ _____    ______ ____
ROOT
ATOM      1  C   UNL     1       2.191   6.773  19.882  0.00  0.00    +0.000 A 
ATOM      2  C   UNL     1       1.453   7.471  20.853  0.00  0.00    +0.000 A 
ATOM      3  C   UNL     1       1.021   8.787  20.658  0.00  0.00    +0.000 A 
ATOM      4  C   UNL     1       1.229   9.358  19.406  0.00  0.00    +0.000 A 
ATOM      5  C   UNL     1       1.883   8.644  18.403  0.00  0.00    +0.000 A 
ATOM      6  F   UNL     1       2.004   9.249  17.212  0.00  0.00    +0.000 F 
ATOM      7  C   UNL     1       2.406   7.362  18.625  0.00  0.00    +0.000 A 
ENDROOT
BRANCH   1   8
ATOM      8  O   UNL     1       2.779   5.554  20.135  0.00  0.00    +0.000 OA
BRANCH   8  10
ATOM      9  C   UNL     1       1.021   3.812  20.262  0.00  0.00    +0.000 C 
ATOM     10  C   UNL     1       2.077   4.643  20.992  0.00  0.00    +0.000 C 
ENDBRANCH   8  10
ENDBRANCH   1   8
BRANCH   3  11
ATOM     11  C   UNL     1       0.432   9.571  21.815  0.00  0.00    +0.000 C 
BRANCH  11  12
ATOM     12  C   UNL     1       0.175  11.028  21.510  0.00  0.00    +0.000 C 
ATOM     13  O   UNL     1       1.007  11.932  21.594  0.00  0.00    +0.000 OA
BRANCH  12  14
ATOM     14  O   UNL     1      -1.119  11.219  21.107  0.00  0.00    +0.000 OA
BRANCH  14  15
ATOM     15  C   UNL     1      -1.271  12.106  19.979  0.00  0.00    +0.000 C 
ATOM     16  C   UNL     1      -1.928  11.359  18.821  0.00  0.00    +0.000 C 
ATOM     17  C   UNL     1      -2.133  13.292  20.405  0.00  0.00    +0.000 C 
ENDBRANCH  14  15
ENDBRANCH  12  14
ENDBRANCH  11  12
ENDBRANCH   3  11
BRANCH   7  18
ATOM     18  O   UNL     1       3.125   6.641  17.699  0.00  0.00    +0.000 OA
BRANCH  18  19
ATOM     19  C   UNL     1       4.469   7.046  17.441  0.00  0.00    +0.000 C 
BRANCH  19  20
ATOM     20  C   UNL     1       5.173   6.363  16.244  0.00  0.00    +0.000 C 
ATOM     21  O   UNL     1       5.349   6.973  15.188  0.00  0.00    +0.000 OA
ATOM     22  N   UNL     1       5.622   5.044  16.398  0.00  0.00    +0.000 N 
BRANCH  22  23
ATOM     23  C   UNL     1       5.595   4.278  17.651  0.00  0.00    +0.000 C 
ATOM     24  C   UNL     1       4.364   3.398  17.847  0.00  0.00    +0.000 C 
ENDBRANCH  22  23
BRANCH  22  25
ATOM     25  C   UNL     1       6.384   4.486  15.273  0.00  0.00    +0.000 C 
ATOM     26  C   UNL     1       5.493   3.974  14.152  0.00  0.00    +0.000 C 
ENDBRANCH  22  25
ENDBRANCH  19  20
ENDBRANCH  18  19
ENDBRANCH   7  18
TORSDOF 11
ENDMDL
MODEL 7
REMARK VINA RESULT:      -6.3      2.369      3.876
REMARK  Name = 
REMARK  16 active torsions:
REMARK  status: ('A' for Active; 'I' for Inactive)
REMARK    1  A    between atoms: C_1  and  C_2
REMARK    2  A    between atoms: C_2  and  O_3
REMARK    3  A    between atoms: O_3  and  C_4
REMARK    4  A    between atoms: C_6  and  C_7
REMARK    5  A    between atoms: C_7  and  C_8
REMARK    6  A    between atoms: C_8  and  O_10
REMARK    7  A    between atoms: O_10  and  C_11
REMARK    8  A    between atoms: C_11  and  C_12
REMARK    9  A    between atoms: C_11  and  C_13
REMARK   10  A    between atoms: C_17  and  O_18
REMARK   11  A    between atoms: O_18  and  C_19
REMARK   12  A    between atoms: C_19  and  C_20
REMARK   13  A    between atoms: N_22  and  C_23
REMARK   14  A    between atoms: N_22  and  C_25
REMARK   15  A    between atoms: C_23  and  C_24
REMARK   16  A    between atoms: C_25  and  C_26
REMARK                            x       y       z     vdW  Elec       q    Type
REMARK                         _______ _______ _______ _____ _____    ______ ____
ROOT
ATOM      1  C   UNL     1       4.313   4.542  18.245  0.00  0.00    +0.000 A 
ATOM      2  C   UNL     1       5.227   3.909  17.386  0.00  0.00    +0.000 A 
ATOM      3  C   UNL     1       5.933   4.610  16.403  0.00  0.00    +0.000 A 
ATOM      4  C   UNL     1       5.808   5.996  16.378  0.00  0.00    +0.000 A 
ATOM      5  C   UNL     1       4.969   6.646  17.283  0.00  0.00    +0.000 A 
ATOM      6  F   UNL     1       4.937   7.985  17.221  0.00  0.00    +0.000 F 
ATOM      7  C   UNL     1       4.182   5.940  18.205  0.00  0.00    +0.000 A 
ENDROOT
BRANCH   1   8
ATOM      8  O   UNL     1       3.478   3.838  19.084  0.00  0.00    +0.000 OA
BRANCH   8  10
ATOM      9  C   UNL     1       1.069   3.267  19.202  0.00  0.00    +0.000 C 
ATOM     10  C   UNL     1       2.409   3.092  18.485  0.00  0.00    +0.000 C 
ENDBRANCH   8  10
ENDBRANCH   1   8
BRANCH   3  11
ATOM     11  C   UNL     1       6.731   3.854  15.357  0.00  0.00    +0.000 C 
BRANCH  11  12
ATOM     12  C   UNL     1       6.509   4.331  13.942  0.00  0.00    +0.000 C 
ATOM     13  O   UNL     1       7.206   5.156  13.350  0.00  0.00    +0.000 OA
BRANCH  12  14
ATOM     14  O   UNL     1       5.426   3.709  13.383  0.00  0.00    +0.000 OA
BRANCH  14  15
ATOM     15  C   UNL     1       5.562   3.418  11.976  0.00  0.00    +0.000 C 
ATOM     16  C   UNL     1       6.264   2.074  11.793  0.00  0.00    +0.000 C 
ATOM     17  C   UNL     1       4.169   3.379  11.350  0.00  0.00    +0.000 C 
ENDBRANCH  14  15
ENDBRANCH  12  14
ENDBRANCH  11  12
ENDBRANCH   3  11
BRANCH   7  18
ATOM     18  O   UNL     1       3.283   6.521  19.069  0.00  0.00    +0.000 OA
BRANCH  18  19
ATOM     19  C   UNL     1       2.042   6.974  18.530  0.00  0.00    +0.000 C 
BRANCH  19  20
ATOM     20  C   UNL     1       1.818   8.505  18.517  0.00  0.00    +0.000 C 
ATOM     21  O   UNL     1       2.028   9.161  17.495  0.00  0.00    +0.000 OA
ATOM     22  N   UNL     1       1.355   9.122  19.686  0.00  0.00    +0.000 N 
BRANCH  22  23
ATOM     23  C   UNL     1       0.936   8.422  20.908  0.00  0.00    +0.000 C 
ATOM     24  C   UNL     1       1.209   9.170  22.210  0.00  0.00    +0.000 C 
ENDBRANCH  22  23
BRANCH  22  25
ATOM     25  C   UNL     1       1.051  10.556  19.583  0.00  0.00    +0.000 C 
ATOM     26  C   UNL     1      -0.421  10.830  19.313  0.00  0.00    +0.000 C 
ENDBRANCH  22  25
ENDBRANCH  19  20
ENDBRANCH  18  19
ENDBRANCH   7  18
TORSDOF 11
ENDMDL
MODEL 8
REMARK VINA RESULT:      -6.3      3.486      8.269
REMARK  Name = 
REMARK  16 active torsions:
REMARK  status: ('A' for Active; 'I' for Inactive)
REMARK    1  A    between atoms: C_1  and  C_2
REMARK    2  A    between atoms: C_2  and  O_3
REMARK    3  A    between atoms: O_3  and  C_4
REMARK    4  A    between atoms: C_6  and  C_7
REMARK    5  A    between atoms: C_7  and  C_8
REMARK    6  A    between atoms: C_8  and  O_10
REMARK    7  A    between atoms: O_10  and  C_11
REMARK    8  A    between atoms: C_11  and  C_12
REMARK    9  A    between atoms: C_11  and  C_13
REMARK   10  A    between atoms: C_17  and  O_18
REMARK   11  A    between atoms: O_18  and  C_19
REMARK   12  A    between atoms: C_19  and  C_20
REMARK   13  A    between atoms: N_22  and  C_23
REMARK   14  A    between atoms: N_22  and  C_25
REMARK   15  A    between atoms: C_23  and  C_24
REMARK   16  A    between atoms: C_25  and  C_26
REMARK                            x       y       z     vdW  Elec       q    Type
REMARK                         _______ _______ _______ _____ _____    ______ ____
ROOT
ATOM      1  C   UNL     1       2.034   6.078  20.144  0.00  0.00    +0.000 A 
ATOM      2  C   UNL     1       1.388   6.957  21.029  0.00  0.00    +0.000 A 
ATOM      3  C   UNL     1       1.266   8.325  20.764  0.00  0.00    +0.000 A 
ATOM      4  C   UNL     1       1.692   8.785  19.521  0.00  0.00    +0.000 A 
ATOM      5  C   UNL     1       2.256   7.906  18.597  0.00  0.00    +0.000 A 
ATOM      6  F   UNL     1       2.600   8.419  17.407  0.00  0.00    +0.000 F 
ATOM      7  C   UNL     1       2.472   6.553  18.896  0.00  0.00    +0.000 A 
ENDROOT
BRANCH   1   8
ATOM      8  O   UNL     1       2.324   4.774  20.478  0.00  0.00    +0.000 OA
BRANCH   8  10
ATOM      9  C   UNL     1       1.502   2.737  21.627  0.00  0.00    +0.000 C 
ATOM     10  C   UNL     1       1.223   3.868  20.635  0.00  0.00    +0.000 C 
ENDBRANCH   8  10
ENDBRANCH   1   8
BRANCH   3  11
ATOM     11  C   UNL     1       0.768   9.266  21.844  0.00  0.00    +0.000 C 
BRANCH  11  12
ATOM     12  C   UNL     1       0.407  10.646  21.348  0.00  0.00    +0.000 C 
ATOM     13  O   UNL     1       1.167  11.615  21.319  0.00  0.00    +0.000 OA
BRANCH  12  14
ATOM     14  O   UNL     1      -0.889  10.682  20.912  0.00  0.00    +0.000 OA
BRANCH  14  15
ATOM     15  C   UNL     1      -1.081  11.369  19.658  0.00  0.00    +0.000 C 
ATOM     16  C   UNL     1      -1.475  10.366  18.575  0.00  0.00    +0.000 C 
ATOM     17  C   UNL     1      -2.180  12.415  19.838  0.00  0.00    +0.000 C 
ENDBRANCH  14  15
ENDBRANCH  12  14
ENDBRANCH  11  12
ENDBRANCH   3  11
BRANCH   7  18
ATOM     18  O   UNL     1       3.091   5.656  18.055  0.00  0.00    +0.000 OA
BRANCH  18  19
ATOM     19  C   UNL     1       4.414   5.239  18.389  0.00  0.00    +0.000 C 
BRANCH  19  20
ATOM     20  C   UNL     1       5.187   4.470  17.292  0.00  0.00    +0.000 C 
ATOM     21  O   UNL     1       4.781   3.379  16.886  0.00  0.00    +0.000 OA
ATOM     22  N   UNL     1       6.346   5.050  16.759  0.00  0.00    +0.000 N 
BRANCH  22  23
ATOM     23  C   UNL     1       6.836   6.401  17.063  0.00  0.00    +0.000 C 
ATOM     24  C   UNL     1       7.737   6.503  18.290  0.00  0.00    +0.000 C 
ENDBRANCH  22  23
BRANCH  22  25
ATOM     25  C   UNL     1       6.974   4.332  15.642  0.00  0.00    +0.000 C 
ATOM     26  C   UNL     1       6.521   4.841  14.282  0.00  0.00    +0.000 C 
ENDBRANCH  22  25
ENDBRANCH  19  20
ENDBRANCH  18  19
ENDBRANCH   7  18
TORSDOF 11
ENDMDL
MODEL 9
REMARK VINA RESULT:      -6.3      3.300      5.727
REMARK  Name = 
REMARK  16 active torsions:
REMARK  status: ('A' for Active; 'I' for Inactive)
REMARK    1  A    between atoms: C_1  and  C_2
REMARK    2  A    between atoms: C_2  and  O_3
REMARK    3  A    between atoms: O_3  and  C_4
REMARK    4  A    between atoms: C_6  and  C_7
REMARK    5  A    between atoms: C_7  and  C_8
REMARK    6  A    between atoms: C_8  and  O_10
REMARK    7  A    between atoms: O_10  and  C_11
REMARK    8  A    between atoms: C_11  and  C_12
REMARK    9  A    between atoms: C_11  and  C_13
REMARK   10  A    between atoms: C_17  and  O_18
REMARK   11  A    between atoms: O_18  and  C_19
REMARK   12  A    between atoms: C_19  and  C_20
REMARK   13  A    between atoms: N_22  and  C_23
REMARK   14  A    between atoms: N_22  and  C_25
REMARK   15  A    between atoms: C_23  and  C_24
REMARK   16  A    between atoms: C_25  and  C_26
REMARK                            x       y       z     vdW  Elec       q    Type
REMARK                         _______ _______ _______ _____ _____    ______ ____
ROOT
ATOM      1  C   UNL     1       3.109   5.471  19.773  0.00  0.00    +0.000 A 
ATOM      2  C   UNL     1       4.166   4.874  19.066  0.00  0.00    +0.000 A 
ATOM      3  C   UNL     1       4.533   5.291  17.782  0.00  0.00    +0.000 A 
ATOM      4  C   UNL     1       3.903   6.418  17.262  0.00  0.00    +0.000 A 
ATOM      5  C   UNL     1       2.912   7.074  17.992  0.00  0.00    +0.000 A 
ATOM      6  F   UNL     1       2.385   8.176  17.440  0.00  0.00    +0.000 F 
ATOM      7  C   UNL     1       2.470   6.600  19.236  0.00  0.00    +0.000 A 
ENDROOT
BRANCH   1   8
ATOM      8  O   UNL     1       2.620   4.949  20.950  0.00  0.00    +0.000 OA
BRANCH   8  10
ATOM      9  C   UNL     1       0.909   3.420  20.014  0.00  0.00    +0.000 C 
ATOM     10  C   UNL     1       2.124   3.604  20.925  0.00  0.00    +0.000 C 
ENDBRANCH   8  10
ENDBRANCH   1   8
BRANCH   3  11
ATOM     11  C   UNL     1       5.521   4.474  16.972  0.00  0.00    +0.000 C 
BRANCH  11  12
ATOM     12  C   UNL     1       6.526   5.298  16.203  0.00  0.00    +0.000 C 
ATOM     13  O   UNL     1       6.388   5.693  15.045  0.00  0.00    +0.000 OA
BRANCH  12  14
ATOM     14  O   UNL     1       7.624   5.570  16.974  0.00  0.00    +0.000 OA
BRANCH  14  15
ATOM     15  C   UNL     1       7.377   6.473  18.071  0.00  0.00    +0.000 C 
ATOM     16  C   UNL     1       8.147   6.009  19.306  0.00  0.00    +0.000 C 
ATOM     17  C   UNL     1       7.827   7.874  17.661  0.00  0.00    +0.000 C 
ENDBRANCH  14  15
ENDBRANCH  12  14
ENDBRANCH  11  12
ENDBRANCH   3  11
BRANCH   7  18
ATOM     18  O   UNL     1       1.446   7.160  19.966  0.00  0.00    +0.000 OA
BRANCH  18  19
ATOM     19  C   UNL     1       1.655   8.461  20.512  0.00  0.00    +0.000 C 
BRANCH  19  20
ATOM     20  C   UNL     1       0.734   9.585  19.979  0.00  0.00    +0.000 C 
ATOM     21  O   UNL     1       0.446   9.643  18.782  0.00  0.00    +0.000 OA
ATOM     22  N   UNL     1       0.223  10.519  20.889  0.00  0.00    +0.000 N 
BRANCH  22  23
ATOM     23  C   UNL     1       0.384  10.458  22.349  0.00  0.00    +0.000 C 
ATOM     24  C   UNL     1      -0.901  10.207  23.132  0.00  0.00    +0.000 C 
ENDBRANCH  22  23
BRANCH  22  25
ATOM     25  C   UNL     1      -0.735  11.491  20.348  0.00  0.00    +0.000 C 
ATOM     26  C   UNL     1      -0.158  12.895  20.245  0.00  0.00    +0.000 C 
ENDBRANCH  22  25
ENDBRANCH  19  20
ENDBRANCH  18  19
ENDBRANCH   7  18
TORSDOF 11
ENDMDL
