MODEL 1
REMARK VINA RESULT:      -7.3      0.000      0.000
REMARK  Name = 
REMARK  5 active torsions:
REMARK  status: ('A' for Active; 'I' for Inactive)
REMARK    1  A    between atoms: C_2  and  O_3
REMARK    2  A    between atoms: C_2  and  C_4
REMARK    3  A    between atoms: C_9  and  C_10
REMARK    4  A    between atoms: N_12  and  C_13
REMARK    5  A    between atoms: C_13  and  C_14
REMARK                            x       y       z     vdW  Elec       q    Type
REMARK                         _______ _______ _______ _____ _____    ______ ____
ROOT
ATOM      1  C   UNL     1       4.675   4.833  19.067  0.00  0.00    +0.000 C 
ATOM      2  O   UNL     1       5.756   4.403  19.451  0.00  0.00    +0.000 OA
ATOM      3  N   UNL     1       4.552   5.794  18.087  0.00  0.00    +0.000 N 
ATOM      4  H   UNL     1       3.644   6.150  17.821  0.00  0.00    +0.000 HD
ENDROOT
BRANCH   1  10
ATOM      5  C   UNL     1       3.130   2.908  19.702  0.00  0.00    +0.000 A 
ATOM      6  C   UNL     1       1.897   2.499  20.257  0.00  0.00    +0.000 A 
ATOM      7  C   UNL     1       0.973   3.420  20.752  0.00  0.00    +0.000 A 
ATOM      8  C   UNL     1       1.258   4.777  20.694  0.00  0.00    +0.000 A 
ATOM      9  C   UNL     1       2.467   5.206  20.145  0.00  0.00    +0.000 A 
ATOM     10  C   UNL     1       3.422   4.285  19.654  0.00  0.00    +0.000 A 
BRANCH   5  12
ATOM     11  O   UNL     1       3.775   1.134  18.283  0.00  0.00    +0.000 OA
ATOM     12  C   UNL     1       4.013   1.770  19.301  0.00  0.00    +0.000 C 
BRANCH  12  13
ATOM     13  O   UNL     1       5.137   1.558  20.004  0.00  0.00    +0.000 OA
ATOM     14  H   UNL     1       5.915   1.239  19.489  0.00  0.00    +0.000 HD
ENDBRANCH  12  13
ENDBRANCH   5  12
ENDBRANCH   1  10
BRANCH   3  15
ATOM     15  C   UNL     1       5.706   6.427  17.474  0.00  0.00    +0.000 C 
BRANCH  15  16
ATOM     16  C   UNL     1       6.084   5.726  16.202  0.00  0.00    +0.000 A 
ATOM     17  C   UNL     1       5.172   4.907  15.525  0.00  0.00    +0.000 A 
ATOM     18  C   UNL     1       5.556   4.269  14.348  0.00  0.00    +0.000 A 
ATOM     19  C   UNL     1       6.842   4.476  13.882  0.00  0.00    +0.000 A 
ATOM     20  N   UNL     1       7.748   5.263  14.502  0.00  0.00    +0.000 NA
ATOM     21  C   UNL     1       7.347   5.872  15.641  0.00  0.00    +0.000 A 
ENDBRANCH  15  16
ENDBRANCH   3  15
TORSDOF 5
ENDMDL
MODEL 2
REMARK VINA RESULT:      -7.3      2.237      6.290
REMARK  Name = 
REMARK  5 active torsions:
REMARK  status: ('A' for Active; 'I' for Inactive)
REMARK    1  A    between atoms: C_2  and  O_3
REMARK    2  A    between atoms: C_2  and  C_4
REMARK    3  A    between atoms: C_9  and  C_10
REMARK    4  A    between atoms: N_12  and  C_13
REMARK    5  A    between atoms: C_13  and  C_14
REMARK                            x       y       z     vdW  Elec       q    Type
REMARK                         _______ _______ _______ _____ _____    ______ ____
ROOT
ATOM      1  C   UNL     1       4.789   5.415  18.379  0.00  0.00    +0.000 C 
ATOM      2  O   UNL     1       5.339   5.152  19.442  0.00  0.00    +0.000 OA
ATOM      3  N   UNL     1       3.531   5.971  18.299  0.00  0.00    +0.000 N 
ATOM      4  H   UNL     1       3.095   6.142  17.402  0.00  0.00    +0.000 HD
ENDROOT
BRANCH   1  10
ATOM      5  C   UNL     1       6.667   5.856  16.713  0.00  0.00    +0.000 A 
ATOM      6  C   UNL     1       7.255   5.549  15.466  0.00  0.00    +0.000 A 
ATOM      7  C   UNL     1       6.717   4.578  14.621  0.00  0.00    +0.000 A 
ATOM      8  C   UNL     1       5.569   3.896  15.001  0.00  0.00    +0.000 A 
ATOM      9  C   UNL     1       4.967   4.186  16.226  0.00  0.00    +0.000 A 
ATOM     10  C   UNL     1       5.509   5.157  17.102  0.00  0.00    +0.000 A 
BRANCH   5  12
ATOM     11  O   UNL     1       7.468   8.036  17.145  0.00  0.00    +0.000 OA
ATOM     12  C   UNL     1       7.435   6.866  17.504  0.00  0.00    +0.000 C 
BRANCH  12  13
ATOM     13  O   UNL     1       7.965   6.488  18.678  0.00  0.00    +0.000 OA
ATOM     14  H   UNL     1       7.327   6.361  19.419  0.00  0.00    +0.000 HD
ENDBRANCH  12  13
ENDBRANCH   5  12
ENDBRANCH   1  10
BRANCH   3  15
ATOM     15  C   UNL     1       2.721   6.229  19.476  0.00  0.00    +0.000 C 
BRANCH  15  16
ATOM     16  C   UNL     1       2.200   4.946  20.053  0.00  0.00    +0.000 A 
ATOM     17  C   UNL     1       1.370   4.098  19.309  0.00  0.00    +0.000 A 
ATOM     18  C   UNL     1       0.901   2.916  19.876  0.00  0.00    +0.000 A 
ATOM     19  C   UNL     1       1.284   2.615  21.170  0.00  0.00    +0.000 A 
ATOM     20  N   UNL     1       2.088   3.401  21.918  0.00  0.00    +0.000 NA
ATOM     21  C   UNL     1       2.530   4.543  21.342  0.00  0.00    +0.000 A 
ENDBRANCH  15  16
ENDBRANCH   3  15
TORSDOF 5
ENDMDL
MODEL 3
REMARK VINA RESULT:      -7.2      1.013      1.013
REMARK  Name = 
REMARK  5 active torsions:
REMARK  status: ('A' for Active; 'I' for Inactive)
REMARK    1  A    between atoms: C_2  and  O_3
REMARK    2  A    between atoms: C_2  and  C_4
REMARK    3  A    between atoms: C_9  and  C_10
REMARK    4  A    between atoms: N_12  and  C_13
REMARK    5  A    between atoms: C_13  and  C_14
REMARK                            x       y       z     vdW  Elec       q    Type
REMARK                         _______ _______ _______ _____ _____    ______ ____
ROOT
ATOM      1  C   UNL     1       4.583   4.886  18.986  0.00  0.00    +0.000 C 
ATOM      2  O   UNL     1       4.650   6.103  18.862  0.00  0.00    +0.000 OA
ATOM      3  N   UNL     1       5.614   4.036  18.647  0.00  0.00    +0.000 N 
ATOM      4  H   UNL     1       5.509   3.034  18.731  0.00  0.00    +0.000 HD
ENDROOT
BRANCH   1  10
ATOM      5  C   UNL     1       3.097   2.893  19.547  0.00  0.00    +0.000 A 
ATOM      6  C   UNL     1       1.880   2.425  20.091  0.00  0.00    +0.000 A 
ATOM      7  C   UNL     1       0.934   3.298  20.631  0.00  0.00    +0.000 A 
ATOM      8  C   UNL     1       1.181   4.664  20.630  0.00  0.00    +0.000 A 
ATOM      9  C   UNL     1       2.374   5.150  20.093  0.00  0.00    +0.000 A 
ATOM     10  C   UNL     1       3.350   4.277  19.556  0.00  0.00    +0.000 A 
BRANCH   5  12
ATOM     11  O   UNL     1       3.862   1.294  17.985  0.00  0.00    +0.000 OA
ATOM     12  C   UNL     1       4.008   1.798  19.091  0.00  0.00    +0.000 C 
BRANCH  12  13
ATOM     13  O   UNL     1       5.061   1.484  19.862  0.00  0.00    +0.000 OA
ATOM     14  H   UNL     1       5.018   0.611  20.318  0.00  0.00    +0.000 HD
ENDBRANCH  12  13
ENDBRANCH   5  12
ENDBRANCH   1  10
BRANCH   3  15
ATOM     15  C   UNL     1       6.847   4.514  18.047  0.00  0.00    +0.000 C 
BRANCH  15  16
ATOM     16  C   UNL     1       6.744   4.512  16.550  0.00  0.00    +0.000 A 
ATOM     17  C   UNL     1       5.810   3.706  15.886  0.00  0.00    +0.000 A 
ATOM     18  C   UNL     1       5.742   3.727  14.496  0.00  0.00    +0.000 A 
ATOM     19  C   UNL     1       6.608   4.560  13.812  0.00  0.00    +0.000 A 
ATOM     20  N   UNL     1       7.518   5.357  14.414  0.00  0.00    +0.000 NA
ATOM     21  C   UNL     1       7.560   5.318  15.765  0.00  0.00    +0.000 A 
ENDBRANCH  15  16
ENDBRANCH   3  15
TORSDOF 5
ENDMDL
MODEL 4
REMARK VINA RESULT:      -7.1      2.255      6.341
REMARK  Name = 
REMARK  5 active torsions:
REMARK  status: ('A' for Active; 'I' for Inactive)
REMARK    1  A    between atoms: C_2  and  O_3
REMARK    2  A    between atoms: C_2  and  C_4
REMARK    3  A    between atoms: C_9  and  C_10
REMARK    4  A    between atoms: N_12  and  C_13
REMARK    5  A    between atoms: C_13  and  C_14
REMARK                            x       y       z     vdW  Elec       q    Type
REMARK                         _______ _______ _______ _____ _____    ______ ____
ROOT
ATOM      1  C   UNL     1       4.734   5.496  18.226  0.00  0.00    +0.000 C 
ATOM      2  O   UNL     1       5.271   5.347  19.317  0.00  0.00    +0.000 OA
ATOM      3  N   UNL     1       3.437   5.935  18.078  0.00  0.00    +0.000 N 
ATOM      4  H   UNL     1       3.016   6.012  17.161  0.00  0.00    +0.000 HD
ENDROOT
BRANCH   1  10
ATOM      5  C   UNL     1       6.704   5.900  16.659  0.00  0.00    +0.000 A 
ATOM      6  C   UNL     1       7.348   5.582  15.443  0.00  0.00    +0.000 A 
ATOM      7  C   UNL     1       6.835   4.623  14.569  0.00  0.00    +0.000 A 
ATOM      8  C   UNL     1       5.655   3.964  14.889  0.00  0.00    +0.000 A 
ATOM      9  C   UNL     1       4.998   4.266  16.083  0.00  0.00    +0.000 A 
ATOM     10  C   UNL     1       5.514   5.224  16.987  0.00  0.00    +0.000 A 
BRANCH   5  12
ATOM     11  O   UNL     1       7.470   8.075  17.171  0.00  0.00    +0.000 OA
ATOM     12  C   UNL     1       7.451   6.894  17.490  0.00  0.00    +0.000 C 
BRANCH  12  13
ATOM     13  O   UNL     1       7.977   6.483  18.655  0.00  0.00    +0.000 OA
ATOM     14  H   UNL     1       7.512   5.736  19.099  0.00  0.00    +0.000 HD
ENDBRANCH  12  13
ENDBRANCH   5  12
ENDBRANCH   1  10
BRANCH   3  15
ATOM     15  C   UNL     1       2.572   6.192  19.215  0.00  0.00    +0.000 C 
BRANCH  15  16
ATOM     16  C   UNL     1       2.102   4.905  19.827  0.00  0.00    +0.000 A 
ATOM     17  C   UNL     1       2.376   4.593  21.165  0.00  0.00    +0.000 A 
ATOM     18  C   UNL     1       1.927   3.389  21.701  0.00  0.00    +0.000 A 
ATOM     19  C   UNL     1       1.210   2.536  20.882  0.00  0.00    +0.000 A 
ATOM     20  N   UNL     1       0.920   2.802  19.590  0.00  0.00    +0.000 NA
ATOM     21  C   UNL     1       1.366   3.980  19.096  0.00  0.00    +0.000 A 
ENDBRANCH  15  16
ENDBRANCH   3  15
TORSDOF 5
ENDMDL
MODEL 5
REMARK VINA RESULT:      -6.9      1.740      2.573
REMARK  Name = 
REMARK  5 active torsions:
REMARK  status: ('A' for Active; 'I' for Inactive)
REMARK    1  A    between atoms: C_2  and  O_3
REMARK    2  A    between atoms: C_2  and  C_4
REMARK    3  A    between atoms: C_9  and  C_10
REMARK    4  A    between atoms: N_12  and  C_13
REMARK    5  A    between atoms: C_13  and  C_14
REMARK                            x       y       z     vdW  Elec       q    Type
REMARK                         _______ _______ _______ _____ _____    ______ ____
ROOT
ATOM      1  C   UNL     1       3.868   4.441  18.154  0.00  0.00    +0.000 C 
ATOM      2  O   UNL     1       3.582   5.505  17.618  0.00  0.00    +0.000 OA
ATOM      3  N   UNL     1       5.020   3.740  17.869  0.00  0.00    +0.000 N 
ATOM      4  H   UNL     1       5.205   2.847  18.306  0.00  0.00    +0.000 HD
ENDROOT
BRANCH   1  10
ATOM      5  C   UNL     1       3.164   2.625  19.798  0.00  0.00    +0.000 A 
ATOM      6  C   UNL     1       2.221   2.173  20.747  0.00  0.00    +0.000 A 
ATOM      7  C   UNL     1       1.100   2.932  21.087  0.00  0.00    +0.000 A 
ATOM      8  C   UNL     1       0.893   4.161  20.477  0.00  0.00    +0.000 A 
ATOM      9  C   UNL     1       1.808   4.626  19.531  0.00  0.00    +0.000 A 
ATOM     10  C   UNL     1       2.957   3.876  19.187  0.00  0.00    +0.000 A 
BRANCH   5  12
ATOM     11  O   UNL     1       5.236   1.701  20.454  0.00  0.00    +0.000 OA
ATOM     12  C   UNL     1       4.331   1.705  19.630  0.00  0.00    +0.000 C 
BRANCH  12  13
ATOM     13  O   UNL     1       4.293   0.800  18.640  0.00  0.00    +0.000 OA
ATOM     14  H   UNL     1       3.402   0.607  18.266  0.00  0.00    +0.000 HD
ENDBRANCH  12  13
ENDBRANCH   5  12
ENDBRANCH   1  10
BRANCH   3  15
ATOM     15  C   UNL     1       5.960   4.175  16.852  0.00  0.00    +0.000 C 
BRANCH  15  16
ATOM     16  C   UNL     1       6.704   5.397  17.304  0.00  0.00    +0.000 A 
ATOM     17  C   UNL     1       7.440   5.400  18.495  0.00  0.00    +0.000 A 
ATOM     18  C   UNL     1       8.118   6.552  18.887  0.00  0.00    +0.000 A 
ATOM     19  C   UNL     1       8.042   7.664  18.069  0.00  0.00    +0.000 A 
ATOM     20  N   UNL     1       7.350   7.700  16.910  0.00  0.00    +0.000 NA
ATOM     21  C   UNL     1       6.703   6.566  16.553  0.00  0.00    +0.000 A 
ENDBRANCH  15  16
ENDBRANCH   3  15
TORSDOF 5
ENDMDL
MODEL 6
REMARK VINA RESULT:      -6.9      1.848      2.127
REMARK  Name = 
REMARK  5 active torsions:
REMARK  status: ('A' for Active; 'I' for Inactive)
REMARK    1  A    between atoms: C_2  and  O_3
REMARK    2  A    between atoms: C_2  and  C_4
REMARK    3  A    between atoms: C_9  and  C_10
REMARK    4  A    between atoms: N_12  and  C_13
REMARK    5  A    between atoms: C_13  and  C_14
REMARK                            x       y       z     vdW  Elec       q    Type
REMARK                         _______ _______ _______ _____ _____    ______ ____
ROOT
ATOM      1  C   UNL     1       4.093   5.013  19.334  0.00  0.00    +0.000 C 
ATOM      2  O   UNL     1       3.877   6.192  19.082  0.00  0.00    +0.000 OA
ATOM      3  N   UNL     1       5.324   4.419  19.160  0.00  0.00    +0.000 N 
ATOM      4  H   UNL     1       5.455   3.433  19.346  0.00  0.00    +0.000 HD
ENDROOT
BRANCH   1  10
ATOM      5  C   UNL     1       1.963   3.634  19.094  0.00  0.00    +0.000 A 
ATOM      6  C   UNL     1       0.955   2.871  19.725  0.00  0.00    +0.000 A 
ATOM      7  C   UNL     1       0.961   2.645  21.102  0.00  0.00    +0.000 A 
ATOM      8  C   UNL     1       1.974   3.184  21.882  0.00  0.00    +0.000 A 
ATOM      9  C   UNL     1       2.978   3.946  21.282  0.00  0.00    +0.000 A 
ATOM     10  C   UNL     1       2.995   4.172  19.885  0.00  0.00    +0.000 A 
BRANCH   5  12
ATOM     11  O   UNL     1       2.456   2.927  16.894  0.00  0.00    +0.000 OA
ATOM     12  C   UNL     1       1.822   3.696  17.606  0.00  0.00    +0.000 C 
BRANCH  12  13
ATOM     13  O   UNL     1       0.892   4.513  17.087  0.00  0.00    +0.000 OA
ATOM     14  H   UNL     1       1.213   5.164  16.420  0.00  0.00    +0.000 HD
ENDBRANCH  12  13
ENDBRANCH   5  12
ENDBRANCH   1  10
BRANCH   3  15
ATOM     15  C   UNL     1       6.455   5.131  18.593  0.00  0.00    +0.000 C 
BRANCH  15  16
ATOM     16  C   UNL     1       6.526   4.919  17.109  0.00  0.00    +0.000 A 
ATOM     17  C   UNL     1       5.751   3.940  16.476  0.00  0.00    +0.000 A 
ATOM     18  C   UNL     1       5.843   3.767  15.097  0.00  0.00    +0.000 A 
ATOM     19  C   UNL     1       6.705   4.588  14.393  0.00  0.00    +0.000 A 
ATOM     20  N   UNL     1       7.464   5.548  14.964  0.00  0.00    +0.000 NA
ATOM     21  C   UNL     1       7.353   5.695  16.304  0.00  0.00    +0.000 A 
ENDBRANCH  15  16
ENDBRANCH   3  15
TORSDOF 5
ENDMDL
MODEL 7
REMARK VINA RESULT:      -6.9      1.317      1.451
REMARK  Name = 
REMARK  5 active torsions:
REMARK  status: ('A' for Active; 'I' for Inactive)
REMARK    1  A    between atoms: C_2  and  O_3
REMARK    2  A    between atoms: C_2  and  C_4
REMARK    3  A    between atoms: C_9  and  C_10
REMARK    4  A    between atoms: N_12  and  C_13
REMARK    5  A    between atoms: C_13  and  C_14
REMARK                            x       y       z     vdW  Elec       q    Type
REMARK                         _______ _______ _______ _____ _____    ______ ____
ROOT
ATOM      1  C   UNL     1       3.684   5.411  19.040  0.00  0.00    +0.000 C 
ATOM      2  O   UNL     1       3.173   6.506  18.841  0.00  0.00    +0.000 OA
ATOM      3  N   UNL     1       4.978   5.106  18.678  0.00  0.00    +0.000 N 
ATOM      4  H   UNL     1       5.354   4.179  18.826  0.00  0.00    +0.000 HD
ENDROOT
BRANCH   1  10
ATOM      5  C   UNL     1       2.528   3.140  19.119  0.00  0.00    +0.000 A 
ATOM      6  C   UNL     1       1.756   2.218  19.859  0.00  0.00    +0.000 A 
ATOM      7  C   UNL     1       1.355   2.481  21.169  0.00  0.00    +0.000 A 
ATOM      8  C   UNL     1       1.710   3.682  21.768  0.00  0.00    +0.000 A 
ATOM      9  C   UNL     1       2.468   4.612  21.054  0.00  0.00    +0.000 A 
ATOM     10  C   UNL     1       2.897   4.353  19.731  0.00  0.00    +0.000 A 
BRANCH   5  12
ATOM     11  O   UNL     1       2.259   2.938  16.781  0.00  0.00    +0.000 OA
ATOM     12  C   UNL     1       2.923   2.641  17.765  0.00  0.00    +0.000 C 
BRANCH  12  13
ATOM     13  O   UNL     1       4.086   1.982  17.643  0.00  0.00    +0.000 OA
ATOM     14  H   UNL     1       4.121   1.295  16.937  0.00  0.00    +0.000 HD
ENDBRANCH  12  13
ENDBRANCH   5  12
ENDBRANCH   1  10
BRANCH   3  15
ATOM     15  C   UNL     1       5.824   6.046  17.963  0.00  0.00    +0.000 C 
BRANCH  15  16
ATOM     16  C   UNL     1       6.135   5.540  16.585  0.00  0.00    +0.000 A 
ATOM     17  C   UNL     1       5.181   4.840  15.836  0.00  0.00    +0.000 A 
ATOM     18  C   UNL     1       5.502   4.382  14.560  0.00  0.00    +0.000 A 
ATOM     19  C   UNL     1       6.769   4.646  14.072  0.00  0.00    +0.000 A 
ATOM     20  N   UNL     1       7.714   5.322  14.760  0.00  0.00    +0.000 NA
ATOM     21  C   UNL     1       7.374   5.757  15.995  0.00  0.00    +0.000 A 
ENDBRANCH  15  16
ENDBRANCH   3  15
TORSDOF 5
ENDMDL
MODEL 8
REMARK VINA RESULT:      -6.8      1.668      1.944
REMARK  Name = 
REMARK  5 active torsions:
REMARK  status: ('A' for Active; 'I' for Inactive)
REMARK    1  A    between atoms: C_2  and  O_3
REMARK    2  A    between atoms: C_2  and  C_4
REMARK    3  A    between atoms: C_9  and  C_10
REMARK    4  A    between atoms: N_12  and  C_13
REMARK    5  A    between atoms: C_13  and  C_14
REMARK                            x       y       z     vdW  Elec       q    Type
REMARK                         _______ _______ _______ _____ _____    ______ ____
ROOT
ATOM      1  C   UNL     1       3.920   5.201  19.157  0.00  0.00    +0.000 C 
ATOM      2  O   UNL     1       5.006   5.361  19.701  0.00  0.00    +0.000 OA
ATOM      3  N   UNL     1       3.585   5.785  17.955  0.00  0.00    +0.000 N 
ATOM      4  H   UNL     1       2.666   5.658  17.554  0.00  0.00    +0.000 HD
ENDROOT
BRANCH   1  10
ATOM      5  C   UNL     1       1.877   3.679  19.077  0.00  0.00    +0.000 A 
ATOM      6  C   UNL     1       0.956   2.877  19.787  0.00  0.00    +0.000 A 
ATOM      7  C   UNL     1       1.048   2.701  21.168  0.00  0.00    +0.000 A 
ATOM      8  C   UNL     1       2.061   3.334  21.875  0.00  0.00    +0.000 A 
ATOM      9  C   UNL     1       2.980   4.136  21.196  0.00  0.00    +0.000 A 
ATOM     10  C   UNL     1       2.910   4.311  19.794  0.00  0.00    +0.000 A 
BRANCH   5  12
ATOM     11  O   UNL     1       0.844   4.443  17.095  0.00  0.00    +0.000 OA
ATOM     12  C   UNL     1       1.656   3.677  17.598  0.00  0.00    +0.000 C 
BRANCH  12  13
ATOM     13  O   UNL     1       2.462   2.923  16.835  0.00  0.00    +0.000 OA
ATOM     14  H   UNL     1       2.117   2.690  15.941  0.00  0.00    +0.000 HD
ENDBRANCH  12  13
ENDBRANCH   5  12
ENDBRANCH   1  10
BRANCH   3  15
ATOM     15  C   UNL     1       4.476   6.702  17.265  0.00  0.00    +0.000 C 
BRANCH  15  16
ATOM     16  C   UNL     1       5.373   5.959  16.319  0.00  0.00    +0.000 A 
ATOM     17  C   UNL     1       4.852   5.072  15.368  0.00  0.00    +0.000 A 
ATOM     18  C   UNL     1       5.713   4.398  14.507  0.00  0.00    +0.000 A 
ATOM     19  C   UNL     1       7.070   4.638  14.619  0.00  0.00    +0.000 A 
ATOM     20  N   UNL     1       7.611   5.490  15.516  0.00  0.00    +0.000 NA
ATOM     21  C   UNL     1       6.752   6.133  16.339  0.00  0.00    +0.000 A 
ENDBRANCH  15  16
ENDBRANCH   3  15
TORSDOF 5
ENDMDL
MODEL 9
REMARK VINA RESULT:      -6.8      2.554      6.322
REMARK  Name = 
REMARK  5 active torsions:
REMARK  status: ('A' for Active; 'I' for Inactive)
REMARK    1  A    between atoms: C_2  and  O_3
REMARK    2  A    between atoms: C_2  and  C_4
REMARK    3  A    between atoms: C_9  and  C_10
REMARK    4  A    between atoms: N_12  and  C_13
REMARK    5  A    between atoms: C_13  and  C_14
REMARK                            x       y       z     vdW  Elec       q    Type
REMARK                         _______ _______ _______ _____ _____    ______ ____
ROOT
ATOM      1  C   UNL     1       4.526   4.369  17.998  0.00  0.00    +0.000 C 
ATOM      2  O   UNL     1       3.420   4.847  17.774  0.00  0.00    +0.000 OA
ATOM      3  N   UNL     1       4.733   3.029  18.241  0.00  0.00    +0.000 N 
ATOM      4  H   UNL     1       5.656   2.677  18.457  0.00  0.00    +0.000 HD
ENDROOT
BRANCH   1  10
ATOM      5  C   UNL     1       6.151   5.953  16.837  0.00  0.00    +0.000 A 
ATOM      6  C   UNL     1       7.315   6.748  16.927  0.00  0.00    +0.000 A 
ATOM      7  C   UNL     1       8.040   6.855  18.115  0.00  0.00    +0.000 A 
ATOM      8  C   UNL     1       7.620   6.161  19.241  0.00  0.00    +0.000 A 
ATOM      9  C   UNL     1       6.476   5.365  19.174  0.00  0.00    +0.000 A 
ATOM     10  C   UNL     1       5.721   5.257  17.983  0.00  0.00    +0.000 A 
BRANCH   5  12
ATOM     11  O   UNL     1       5.004   7.091  15.114  0.00  0.00    +0.000 OA
ATOM     12  C   UNL     1       5.475   6.031  15.505  0.00  0.00    +0.000 C 
BRANCH  12  13
ATOM     13  O   UNL     1       5.520   4.956  14.703  0.00  0.00    +0.000 OA
ATOM     14  H   UNL     1       6.350   4.839  14.183  0.00  0.00    +0.000 HD
ENDBRANCH  12  13
ENDBRANCH   5  12
ENDBRANCH   1  10
BRANCH   3  15
ATOM     15  C   UNL     1       3.638   2.078  18.319  0.00  0.00    +0.000 C 
BRANCH  15  16
ATOM     16  C   UNL     1       2.783   2.350  19.522  0.00  0.00    +0.000 A 
ATOM     17  C   UNL     1       1.411   2.603  19.396  0.00  0.00    +0.000 A 
ATOM     18  C   UNL     1       0.646   2.855  20.532  0.00  0.00    +0.000 A 
ATOM     19  C   UNL     1       1.279   2.838  21.762  0.00  0.00    +0.000 A 
ATOM     20  N   UNL     1       2.596   2.592  21.926  0.00  0.00    +0.000 NA
ATOM     21  C   UNL     1       3.314   2.349  20.806  0.00  0.00    +0.000 A 
ENDBRANCH  15  16
ENDBRANCH   3  15
TORSDOF 5
ENDMDL
