MODEL 1
REMARK VINA RESULT:      -7.0      0.000      0.000
REMARK  Name = 
REMARK  8 active torsions:
REMARK  status: ('A' for Active; 'I' for Inactive)
REMARK    1  A    between atoms: C_1  and  O_2
REMARK    2  A    between atoms: O_2  and  C_3
REMARK    3  A    between atoms: C_4  and  N_5
REMARK    4  A    between atoms: C_8  and  C_9
REMARK    5  A    between atoms: C_9  and  N_10
REMARK    6  A    between atoms: C_18  and  C_19
REMARK    7  A    between atoms: C_19  and  O_21
REMARK    8  A    between atoms: N_23  and  C_24
REMARK                            x       y       z     vdW  Elec       q    Type
REMARK                         _______ _______ _______ _____ _____    ______ ____
ROOT
ATOM      1  C   UNL     1       1.487   7.970  19.793  0.00  0.00    +0.000 A 
ATOM      2  C   UNL     1       1.300   9.283  19.206  0.00  0.00    +0.000 A 
ATOM      3  C   UNL     1       2.087   9.570  18.074  0.00  0.00    +0.000 A 
ATOM      4  F   UNL     1       1.992  10.747  17.423  0.00  0.00    +0.000 F 
ATOM      5  C   UNL     1       2.977   8.665  17.524  0.00  0.00    +0.000 A 
ATOM      6  C   UNL     1       3.136   7.415  18.102  0.00  0.00    +0.000 A 
ATOM      7  C   UNL     1       4.116   6.515  17.454  0.00  0.00    +0.000 A 
ATOM      8  O   UNL     1       4.752   6.853  16.456  0.00  0.00    +0.000 OA
ATOM      9  C   UNL     1       4.352   5.187  18.037  0.00  0.00    +0.000 A 
ATOM     10  C   UNL     1       3.596   4.867  19.090  0.00  0.00    +0.000 A 
ATOM     11  N   UNL     1       2.622   5.643  19.713  0.00  0.00    +0.000 N 
ATOM     12  C   UNL     1       2.398   6.998  19.244  0.00  0.00    +0.000 A 
ENDROOT
BRANCH   2  13
ATOM     13  N   UNL     1       0.402  10.236  19.706  0.00  0.00    +0.000 N 
ATOM     14  C   UNL     1      -0.934  10.435  19.151  0.00  0.00    +0.000 C 
ATOM     15  C   UNL     1      -1.201  11.926  19.324  0.00  0.00    +0.000 C 
ATOM     16  C   UNL     1      -0.450  12.293  20.602  0.00  0.00    +0.000 C 
ATOM     17  C   UNL     1       0.807  11.408  20.505  0.00  0.00    +0.000 C 
BRANCH  16  18
ATOM     18  C   UNL     1      -1.247  12.045  21.890  0.00  0.00    +0.000 C 
BRANCH  18  19
ATOM     19  N   UNL     1      -0.399  11.456  22.924  0.00  0.00    +0.000 NA
ATOM     20  H   UNL     1       0.331  10.886  22.496  0.00  0.00    +0.000 HD
ATOM     21  H   UNL     1      -0.953  10.822  23.500  0.00  0.00    +0.000 HD
ENDBRANCH  18  19
ENDBRANCH  16  18
ENDBRANCH   2  13
BRANCH  11  22
ATOM     22  C   UNL     1       1.878   5.005  20.832  0.00  0.00    +0.000 C 
ATOM     23  C   UNL     1       1.126   3.690  20.823  0.00  0.00    +0.000 C 
ATOM     24  C   UNL     1       2.460   3.753  21.473  0.00  0.00    +0.000 C 
ENDBRANCH  11  22
BRANCH   1  26
ATOM     25  C   UNL     1       0.952   8.296  22.070  0.00  0.00    +0.000 C 
ATOM     26  O   UNL     1       0.654   7.644  20.835  0.00  0.00    +0.000 OA
ENDBRANCH   1  26
BRANCH   9  27
ATOM     27  C   UNL     1       5.334   4.207  17.536  0.00  0.00    +0.000 C 
ATOM     28  O   UNL     1       5.224   3.623  16.477  0.00  0.00    +0.000 OA
BRANCH  27  29
ATOM     29  O   UNL     1       6.385   4.000  18.367  0.00  0.00    +0.000 OA
ATOM     30  H   UNL     1       6.541   3.047  18.596  0.00  0.00    +0.000 HD
ENDBRANCH  27  29
ENDBRANCH   9  27
TORSDOF 7
ENDMDL
MODEL 2
REMARK VINA RESULT:      -6.9      1.596      2.028
REMARK  Name = 
REMARK  8 active torsions:
REMARK  status: ('A' for Active; 'I' for Inactive)
REMARK    1  A    between atoms: C_1  and  O_2
REMARK    2  A    between atoms: O_2  and  C_3
REMARK    3  A    between atoms: C_4  and  N_5
REMARK    4  A    between atoms: C_8  and  C_9
REMARK    5  A    between atoms: C_9  and  N_10
REMARK    6  A    between atoms: C_18  and  C_19
REMARK    7  A    between atoms: C_19  and  O_21
REMARK    8  A    between atoms: N_23  and  C_24
REMARK                            x       y       z     vdW  Elec       q    Type
REMARK                         _______ _______ _______ _____ _____    ______ ____
ROOT
ATOM      1  C   UNL     1       2.609   6.679  19.539  0.00  0.00    +0.000 A 
ATOM      2  C   UNL     1       2.088   8.006  19.274  0.00  0.00    +0.000 A 
ATOM      3  C   UNL     1       2.561   8.632  18.104  0.00  0.00    +0.000 A 
ATOM      4  F   UNL     1       2.137   9.857  17.733  0.00  0.00    +0.000 F 
ATOM      5  C   UNL     1       3.454   8.031  17.235  0.00  0.00    +0.000 A 
ATOM      6  C   UNL     1       3.936   6.761  17.510  0.00  0.00    +0.000 A 
ATOM      7  C   UNL     1       4.894   6.200  16.531  0.00  0.00    +0.000 A 
ATOM      8  O   UNL     1       5.242   6.822  15.528  0.00  0.00    +0.000 OA
ATOM      9  C   UNL     1       5.464   4.869  16.782  0.00  0.00    +0.000 A 
ATOM     10  C   UNL     1       5.010   4.230  17.863  0.00  0.00    +0.000 A 
ATOM     11  N   UNL     1       4.073   4.678  18.791  0.00  0.00    +0.000 N 
ATOM     12  C   UNL     1       3.533   6.018  18.654  0.00  0.00    +0.000 A 
ENDROOT
BRANCH   2  13
ATOM     13  N   UNL     1       1.169   8.659  20.106  0.00  0.00    +0.000 N 
ATOM     14  C   UNL     1      -0.179   9.017  19.674  0.00  0.00    +0.000 C 
ATOM     15  C   UNL     1      -0.487  10.314  20.415  0.00  0.00    +0.000 C 
ATOM     16  C   UNL     1       0.269  10.176  21.734  0.00  0.00    +0.000 C 
ATOM     17  C   UNL     1       1.550   9.440  21.299  0.00  0.00    +0.000 C 
BRANCH  16  18
ATOM     18  C   UNL     1      -0.503   9.421  22.824  0.00  0.00    +0.000 C 
BRANCH  18  19
ATOM     19  N   UNL     1       0.183   9.514  24.111  0.00  0.00    +0.000 NA
ATOM     20  H   UNL     1       0.697   8.652  24.297  0.00  0.00    +0.000 HD
ATOM     21  H   UNL     1      -0.504   9.602  24.860  0.00  0.00    +0.000 HD
ENDBRANCH  18  19
ENDBRANCH  16  18
ENDBRANCH   2  13
BRANCH  11  22
ATOM     22  C   UNL     1       3.696   3.724  19.869  0.00  0.00    +0.000 C 
ATOM     23  C   UNL     1       2.959   2.408  19.735  0.00  0.00    +0.000 C 
ATOM     24  C   UNL     1       4.429   2.392  19.950  0.00  0.00    +0.000 C 
ENDBRANCH  11  22
BRANCH   1  26
ATOM     25  C   UNL     1       0.892   5.274  20.351  0.00  0.00    +0.000 C 
ATOM     26  O   UNL     1       2.079   6.022  20.622  0.00  0.00    +0.000 OA
ENDBRANCH   1  26
BRANCH   9  27
ATOM     27  C   UNL     1       6.469   4.206  15.928  0.00  0.00    +0.000 C 
ATOM     28  O   UNL     1       6.192   3.563  14.936  0.00  0.00    +0.000 OA
BRANCH  27  29
ATOM     29  O   UNL     1       7.747   4.367  16.348  0.00  0.00    +0.000 OA
ATOM     30  H   UNL     1       8.172   3.537  16.687  0.00  0.00    +0.000 HD
ENDBRANCH  27  29
ENDBRANCH   9  27
TORSDOF 7
ENDMDL
MODEL 3
REMARK VINA RESULT:      -6.7      0.803      1.378
REMARK  Name = 
REMARK  8 active torsions:
REMARK  status: ('A' for Active; 'I' for Inactive)
REMARK    1  A    between atoms: C_1  and  O_2
REMARK    2  A    between atoms: O_2  and  C_3
REMARK    3  A    between atoms: C_4  and  N_5
REMARK    4  A    between atoms: C_8  and  C_9
REMARK    5  A    between atoms: C_9  and  N_10
REMARK    6  A    between atoms: C_18  and  C_19
REMARK    7  A    between atoms: C_19  and  O_21
REMARK    8  A    between atoms: N_23  and  C_24
REMARK                            x       y       z     vdW  Elec       q    Type
REMARK                         _______ _______ _______ _____ _____    ______ ____
ROOT
ATOM      1  C   UNL     1       1.546   8.160  19.703  0.00  0.00    +0.000 A 
ATOM      2  C   UNL     1       1.435   9.479  19.110  0.00  0.00    +0.000 A 
ATOM      3  C   UNL     1       2.246   9.719  17.984  0.00  0.00    +0.000 A 
ATOM      4  F   UNL     1       2.220  10.897  17.328  0.00  0.00    +0.000 F 
ATOM      5  C   UNL     1       3.092   8.765  17.445  0.00  0.00    +0.000 A 
ATOM      6  C   UNL     1       3.178   7.511  18.030  0.00  0.00    +0.000 A 
ATOM      7  C   UNL     1       4.114   6.557  17.393  0.00  0.00    +0.000 A 
ATOM      8  O   UNL     1       4.776   6.857  16.400  0.00  0.00    +0.000 OA
ATOM      9  C   UNL     1       4.273   5.221  17.984  0.00  0.00    +0.000 A 
ATOM     10  C   UNL     1       3.491   4.946  19.030  0.00  0.00    +0.000 A 
ATOM     11  N   UNL     1       2.555   5.775  19.641  0.00  0.00    +0.000 N 
ATOM     12  C   UNL     1       2.408   7.138  19.166  0.00  0.00    +0.000 A 
ENDROOT
BRANCH   2  13
ATOM     13  N   UNL     1       0.585  10.480  19.599  0.00  0.00    +0.000 N 
ATOM     14  C   UNL     1       0.986  11.427  20.635  0.00  0.00    +0.000 C 
ATOM     15  C   UNL     1      -0.293  11.704  21.417  0.00  0.00    +0.000 C 
ATOM     16  C   UNL     1      -1.400  11.585  20.373  0.00  0.00    +0.000 C 
ATOM     17  C   UNL     1      -0.886  10.439  19.483  0.00  0.00    +0.000 C 
BRANCH  16  18
ATOM     18  C   UNL     1      -1.658  12.874  19.583  0.00  0.00    +0.000 C 
BRANCH  18  19
ATOM     19  N   UNL     1      -1.701  12.608  18.147  0.00  0.00    +0.000 NA
ATOM     20  H   UNL     1      -1.696  11.602  17.976  0.00  0.00    +0.000 HD
ATOM     21  H   UNL     1      -0.858  12.975  17.705  0.00  0.00    +0.000 HD
ENDBRANCH  18  19
ENDBRANCH  16  18
ENDBRANCH   2  13
BRANCH  11  22
ATOM     22  C   UNL     1       1.767   5.182  20.756  0.00  0.00    +0.000 C 
ATOM     23  C   UNL     1       1.059   3.844  20.789  0.00  0.00    +0.000 C 
ATOM     24  C   UNL     1       2.351   3.994  21.507  0.00  0.00    +0.000 C 
ENDBRANCH  11  22
BRANCH   1  26
ATOM     25  C   UNL     1       1.104   8.375  22.014  0.00  0.00    +0.000 C 
ATOM     26  O   UNL     1       0.687   7.884  20.738  0.00  0.00    +0.000 OA
ENDBRANCH   1  26
BRANCH   9  27
ATOM     27  C   UNL     1       5.206   4.187  17.494  0.00  0.00    +0.000 C 
ATOM     28  O   UNL     1       5.066   3.595  16.444  0.00  0.00    +0.000 OA
BRANCH  27  29
ATOM     29  O   UNL     1       6.246   3.940  18.328  0.00  0.00    +0.000 OA
ATOM     30  H   UNL     1       6.813   3.174  18.054  0.00  0.00    +0.000 HD
ENDBRANCH  27  29
ENDBRANCH   9  27
TORSDOF 7
ENDMDL
MODEL 4
REMARK VINA RESULT:      -6.6      2.134      3.727
REMARK  Name = 
REMARK  8 active torsions:
REMARK  status: ('A' for Active; 'I' for Inactive)
REMARK    1  A    between atoms: C_1  and  O_2
REMARK    2  A    between atoms: O_2  and  C_3
REMARK    3  A    between atoms: C_4  and  N_5
REMARK    4  A    between atoms: C_8  and  C_9
REMARK    5  A    between atoms: C_9  and  N_10
REMARK    6  A    between atoms: C_18  and  C_19
REMARK    7  A    between atoms: C_19  and  O_21
REMARK    8  A    between atoms: N_23  and  C_24
REMARK                            x       y       z     vdW  Elec       q    Type
REMARK                         _______ _______ _______ _____ _____    ______ ____
ROOT
ATOM      1  C   UNL     1       2.144   8.164  19.179  0.00  0.00    +0.000 A 
ATOM      2  C   UNL     1       1.140   8.660  20.101  0.00  0.00    +0.000 A 
ATOM      3  C   UNL     1       0.659   7.734  21.047  0.00  0.00    +0.000 A 
ATOM      4  F   UNL     1      -0.258   8.077  21.973  0.00  0.00    +0.000 F 
ATOM      5  C   UNL     1       1.114   6.429  21.124  0.00  0.00    +0.000 A 
ATOM      6  C   UNL     1       2.074   5.980  20.232  0.00  0.00    +0.000 A 
ATOM      7  C   UNL     1       2.494   4.568  20.381  0.00  0.00    +0.000 A 
ATOM      8  O   UNL     1       2.021   3.835  21.249  0.00  0.00    +0.000 OA
ATOM      9  C   UNL     1       3.488   4.022  19.446  0.00  0.00    +0.000 A 
ATOM     10  C   UNL     1       3.994   4.883  18.560  0.00  0.00    +0.000 A 
ATOM     11  N   UNL     1       3.684   6.231  18.403  0.00  0.00    +0.000 N 
ATOM     12  C   UNL     1       2.647   6.815  19.233  0.00  0.00    +0.000 A 
ENDROOT
BRANCH   2  13
ATOM     13  N   UNL     1       0.654   9.975  20.084  0.00  0.00    +0.000 N 
ATOM     14  C   UNL     1       1.173  11.025  20.956  0.00  0.00    +0.000 C 
ATOM     15  C   UNL     1      -0.032  11.912  21.248  0.00  0.00    +0.000 C 
ATOM     16  C   UNL     1      -0.875  11.822  19.978  0.00  0.00    +0.000 C 
ATOM     17  C   UNL     1      -0.669  10.356  19.554  0.00  0.00    +0.000 C 
BRANCH  16  18
ATOM     18  C   UNL     1      -0.465  12.814  18.882  0.00  0.00    +0.000 C 
BRANCH  18  19
ATOM     19  N   UNL     1      -1.211  12.571  17.650  0.00  0.00    +0.000 NA
ATOM     20  H   UNL     1      -2.182  12.864  17.763  0.00  0.00    +0.000 HD
ATOM     21  H   UNL     1      -1.237  11.569  17.457  0.00  0.00    +0.000 HD
ENDBRANCH  18  19
ENDBRANCH  16  18
ENDBRANCH   2  13
BRANCH  11  22
ATOM     22  C   UNL     1       4.456   6.976  17.372  0.00  0.00    +0.000 C 
ATOM     23  C   UNL     1       5.939   6.892  17.076  0.00  0.00    +0.000 C 
ATOM     24  C   UNL     1       4.982   6.213  16.165  0.00  0.00    +0.000 C 
ENDBRANCH  11  22
BRANCH   1  26
ATOM     25  C   UNL     1       1.785   9.616  17.350  0.00  0.00    +0.000 C 
ATOM     26  O   UNL     1       2.690   9.085  18.320  0.00  0.00    +0.000 OA
ENDBRANCH   1  26
BRANCH   9  27
ATOM     27  C   UNL     1       3.961   2.624  19.438  0.00  0.00    +0.000 C 
ATOM     28  O   UNL     1       3.303   1.692  19.024  0.00  0.00    +0.000 OA
BRANCH  27  29
ATOM     29  O   UNL     1       5.207   2.457  19.945  0.00  0.00    +0.000 OA
ATOM     30  H   UNL     1       5.929   2.842  19.385  0.00  0.00    +0.000 HD
ENDBRANCH  27  29
ENDBRANCH   9  27
TORSDOF 7
ENDMDL
MODEL 5
REMARK VINA RESULT:      -6.5      1.502      2.200
REMARK  Name = 
REMARK  8 active torsions:
REMARK  status: ('A' for Active; 'I' for Inactive)
REMARK    1  A    between atoms: C_1  and  O_2
REMARK    2  A    between atoms: O_2  and  C_3
REMARK    3  A    between atoms: C_4  and  N_5
REMARK    4  A    between atoms: C_8  and  C_9
REMARK    5  A    between atoms: C_9  and  N_10
REMARK    6  A    between atoms: C_18  and  C_19
REMARK    7  A    between atoms: C_19  and  O_21
REMARK    8  A    between atoms: N_23  and  C_24
REMARK                            x       y       z     vdW  Elec       q    Type
REMARK                         _______ _______ _______ _____ _____    ______ ____
ROOT
ATOM      1  C   UNL     1       2.606   6.685  19.558  0.00  0.00    +0.000 A 
ATOM      2  C   UNL     1       2.146   8.046  19.360  0.00  0.00    +0.000 A 
ATOM      3  C   UNL     1       2.628   8.699  18.209  0.00  0.00    +0.000 A 
ATOM      4  F   UNL     1       2.258   9.958  17.900  0.00  0.00    +0.000 F 
ATOM      5  C   UNL     1       3.474   8.094  17.296  0.00  0.00    +0.000 A 
ATOM      6  C   UNL     1       3.897   6.791  17.507  0.00  0.00    +0.000 A 
ATOM      7  C   UNL     1       4.808   6.227  16.485  0.00  0.00    +0.000 A 
ATOM      8  O   UNL     1       5.168   6.875  15.503  0.00  0.00    +0.000 OA
ATOM      9  C   UNL     1       5.316   4.860  16.667  0.00  0.00    +0.000 A 
ATOM     10  C   UNL     1       4.850   4.198  17.729  0.00  0.00    +0.000 A 
ATOM     11  N   UNL     1       3.954   4.649  18.694  0.00  0.00    +0.000 N 
ATOM     12  C   UNL     1       3.479   6.019  18.626  0.00  0.00    +0.000 A 
ENDROOT
BRANCH   2  13
ATOM     13  N   UNL     1       1.276   8.706  20.239  0.00  0.00    +0.000 N 
ATOM     14  C   UNL     1       1.309   8.511  21.685  0.00  0.00    +0.000 C 
ATOM     15  C   UNL     1      -0.144   8.657  22.125  0.00  0.00    +0.000 C 
ATOM     16  C   UNL     1      -0.729   9.668  21.141  0.00  0.00    +0.000 C 
ATOM     17  C   UNL     1      -0.012   9.298  19.830  0.00  0.00    +0.000 C 
BRANCH  16  18
ATOM     18  C   UNL     1      -0.507  11.132  21.541  0.00  0.00    +0.000 C 
BRANCH  18  19
ATOM     19  N   UNL     1      -0.565  11.292  22.993  0.00  0.00    +0.000 NA
ATOM     20  H   UNL     1      -0.244  10.440  23.453  0.00  0.00    +0.000 HD
ATOM     21  H   UNL     1      -1.533  11.426  23.285  0.00  0.00    +0.000 HD
ENDBRANCH  18  19
ENDBRANCH  16  18
ENDBRANCH   2  13
BRANCH  11  22
ATOM     22  C   UNL     1       3.551   3.668  19.737  0.00  0.00    +0.000 C 
ATOM     23  C   UNL     1       2.994   2.273  19.541  0.00  0.00    +0.000 C 
ATOM     24  C   UNL     1       4.415   2.433  19.947  0.00  0.00    +0.000 C 
ENDBRANCH  11  22
BRANCH   1  26
ATOM     25  C   UNL     1       0.905   5.230  20.314  0.00  0.00    +0.000 C 
ATOM     26  O   UNL     1       2.064   6.007  20.622  0.00  0.00    +0.000 OA
ENDBRANCH   1  26
BRANCH   9  27
ATOM     27  C   UNL     1       6.271   4.188  15.764  0.00  0.00    +0.000 C 
ATOM     28  O   UNL     1       5.986   3.232  15.073  0.00  0.00    +0.000 OA
BRANCH  27  29
ATOM     29  O   UNL     1       7.515   4.725  15.774  0.00  0.00    +0.000 OA
ATOM     30  H   UNL     1       8.201   4.171  15.320  0.00  0.00    +0.000 HD
ENDBRANCH  27  29
ENDBRANCH   9  27
TORSDOF 7
ENDMDL
MODEL 6
REMARK VINA RESULT:      -6.5      2.572      6.935
REMARK  Name = 
REMARK  8 active torsions:
REMARK  status: ('A' for Active; 'I' for Inactive)
REMARK    1  A    between atoms: C_1  and  O_2
REMARK    2  A    between atoms: O_2  and  C_3
REMARK    3  A    between atoms: C_4  and  N_5
REMARK    4  A    between atoms: C_8  and  C_9
REMARK    5  A    between atoms: C_9  and  N_10
REMARK    6  A    between atoms: C_18  and  C_19
REMARK    7  A    between atoms: C_19  and  O_21
REMARK    8  A    between atoms: N_23  and  C_24
REMARK                            x       y       z     vdW  Elec       q    Type
REMARK                         _______ _______ _______ _____ _____    ______ ____
ROOT
ATOM      1  C   UNL     1       2.241   7.083  19.638  0.00  0.00    +0.000 A 
ATOM      2  C   UNL     1       3.023   6.451  18.592  0.00  0.00    +0.000 A 
ATOM      3  C   UNL     1       3.368   7.270  17.499  0.00  0.00    +0.000 A 
ATOM      4  F   UNL     1       4.111   6.808  16.473  0.00  0.00    +0.000 F 
ATOM      5  C   UNL     1       3.011   8.604  17.413  0.00  0.00    +0.000 A 
ATOM      6  C   UNL     1       2.265   9.184  18.427  0.00  0.00    +0.000 A 
ATOM      7  C   UNL     1       1.920  10.613  18.247  0.00  0.00    +0.000 A 
ATOM      8  O   UNL     1       2.276  11.251  17.257  0.00  0.00    +0.000 OA
ATOM      9  C   UNL     1       1.105  11.279  19.273  0.00  0.00    +0.000 A 
ATOM     10  C   UNL     1       0.791  10.542  20.342  0.00  0.00    +0.000 A 
ATOM     11  N   UNL     1       1.129   9.216  20.597  0.00  0.00    +0.000 N 
ATOM     12  C   UNL     1       1.858   8.470  19.588  0.00  0.00    +0.000 A 
ENDROOT
BRANCH   2  13
ATOM     13  N   UNL     1       3.431   5.110  18.631  0.00  0.00    +0.000 N 
ATOM     14  C   UNL     1       4.655   4.671  19.294  0.00  0.00    +0.000 C 
ATOM     15  C   UNL     1       5.141   3.491  18.459  0.00  0.00    +0.000 C 
ATOM     16  C   UNL     1       3.857   2.853  17.936  0.00  0.00    +0.000 C 
ATOM     17  C   UNL     1       2.963   4.081  17.683  0.00  0.00    +0.000 C 
BRANCH  16  18
ATOM     18  C   UNL     1       3.217   1.848  18.903  0.00  0.00    +0.000 C 
BRANCH  18  19
ATOM     19  N   UNL     1       1.770   1.784  18.709  0.00  0.00    +0.000 NA
ATOM     20  H   UNL     1       1.556   1.476  17.761  0.00  0.00    +0.000 HD
ATOM     21  H   UNL     1       1.370   2.718  18.801  0.00  0.00    +0.000 HD
ENDBRANCH  18  19
ENDBRANCH  16  18
ENDBRANCH   2  13
BRANCH  11  22
ATOM     22  C   UNL     1       0.703   8.662  21.910  0.00  0.00    +0.000 C 
ATOM     23  C   UNL     1       0.102   9.404  23.085  0.00  0.00    +0.000 C 
ATOM     24  C   UNL     1      -0.785   8.585  22.220  0.00  0.00    +0.000 C 
ENDBRANCH  11  22
BRANCH   1  26
ATOM     25  C   UNL     1       1.109   5.215  20.537  0.00  0.00    +0.000 C 
ATOM     26  O   UNL     1       1.986   6.322  20.752  0.00  0.00    +0.000 OA
ENDBRANCH   1  26
BRANCH   9  27
ATOM     27  C   UNL     1       0.638  12.677  19.204  0.00  0.00    +0.000 C 
ATOM     28  O   UNL     1       0.772  13.479  20.105  0.00  0.00    +0.000 OA
BRANCH  27  29
ATOM     29  O   UNL     1       0.029  13.001  18.037  0.00  0.00    +0.000 OA
ATOM     30  H   UNL     1       0.168  12.342  17.309  0.00  0.00    +0.000 HD
ENDBRANCH  27  29
ENDBRANCH   9  27
TORSDOF 7
ENDMDL
MODEL 7
REMARK VINA RESULT:      -6.4      2.934      7.332
REMARK  Name = 
REMARK  8 active torsions:
REMARK  status: ('A' for Active; 'I' for Inactive)
REMARK    1  A    between atoms: C_1  and  O_2
REMARK    2  A    between atoms: O_2  and  C_3
REMARK    3  A    between atoms: C_4  and  N_5
REMARK    4  A    between atoms: C_8  and  C_9
REMARK    5  A    between atoms: C_9  and  N_10
REMARK    6  A    between atoms: C_18  and  C_19
REMARK    7  A    between atoms: C_19  and  O_21
REMARK    8  A    between atoms: N_23  and  C_24
REMARK                            x       y       z     vdW  Elec       q    Type
REMARK                         _______ _______ _______ _____ _____    ______ ____
ROOT
ATOM      1  C   UNL     1       3.778   5.031  18.047  0.00  0.00    +0.000 A 
ATOM      2  C   UNL     1       4.429   5.669  16.918  0.00  0.00    +0.000 A 
ATOM      3  C   UNL     1       4.195   7.050  16.771  0.00  0.00    +0.000 A 
ATOM      4  F   UNL     1       4.759   7.764  15.776  0.00  0.00    +0.000 F 
ATOM      5  C   UNL     1       3.411   7.780  17.647  0.00  0.00    +0.000 A 
ATOM      6  C   UNL     1       2.801   7.147  18.719  0.00  0.00    +0.000 A 
ATOM      7  C   UNL     1       1.974   8.003  19.599  0.00  0.00    +0.000 A 
ATOM      8  O   UNL     1       1.836   9.209  19.394  0.00  0.00    +0.000 OA
ATOM      9  C   UNL     1       1.277   7.386  20.735  0.00  0.00    +0.000 A 
ATOM     10  C   UNL     1       1.506   6.084  20.927  0.00  0.00    +0.000 A 
ATOM     11  N   UNL     1       2.313   5.237  20.172  0.00  0.00    +0.000 N 
ATOM     12  C   UNL     1       2.962   5.759  18.984  0.00  0.00    +0.000 A 
ENDROOT
BRANCH   2  13
ATOM     13  N   UNL     1       5.248   4.987  16.008  0.00  0.00    +0.000 N 
ATOM     14  C   UNL     1       6.542   4.418  16.376  0.00  0.00    +0.000 C 
ATOM     15  C   UNL     1       7.393   4.557  15.118  0.00  0.00    +0.000 C 
ATOM     16  C   UNL     1       6.391   4.421  13.975  0.00  0.00    +0.000 C 
ATOM     17  C   UNL     1       5.150   5.134  14.543  0.00  0.00    +0.000 C 
BRANCH  16  18
ATOM     18  C   UNL     1       6.101   2.971  13.565  0.00  0.00    +0.000 C 
BRANCH  18  19
ATOM     19  N   UNL     1       6.285   2.788  12.126  0.00  0.00    +0.000 NA
ATOM     20  H   UNL     1       7.105   3.305  11.809  0.00  0.00    +0.000 HD
ATOM     21  H   UNL     1       5.489   3.182  11.626  0.00  0.00    +0.000 HD
ENDBRANCH  18  19
ENDBRANCH  16  18
ENDBRANCH   2  13
BRANCH  11  22
ATOM     22  C   UNL     1       2.443   3.836  20.657  0.00  0.00    +0.000 C 
ATOM     23  C   UNL     1       1.795   3.205  21.872  0.00  0.00    +0.000 C 
ATOM     24  C   UNL     1       1.246   2.906  20.525  0.00  0.00    +0.000 C 
ENDBRANCH  11  22
BRANCH   1  26
ATOM     25  C   UNL     1       3.281   2.783  17.515  0.00  0.00    +0.000 C 
ATOM     26  O   UNL     1       4.081   3.708  18.255  0.00  0.00    +0.000 OA
ENDBRANCH   1  26
BRANCH   9  27
ATOM     27  C   UNL     1       0.377   8.099  21.662  0.00  0.00    +0.000 C 
ATOM     28  O   UNL     1      -0.823   7.919  21.710  0.00  0.00    +0.000 OA
BRANCH  27  29
ATOM     29  O   UNL     1       1.003   8.993  22.465  0.00  0.00    +0.000 OA
ATOM     30  H   UNL     1       0.856   9.941  22.213  0.00  0.00    +0.000 HD
ENDBRANCH  27  29
ENDBRANCH   9  27
TORSDOF 7
ENDMDL
MODEL 8
REMARK VINA RESULT:      -6.3      4.450      7.371
REMARK  Name = 
REMARK  8 active torsions:
REMARK  status: ('A' for Active; 'I' for Inactive)
REMARK    1  A    between atoms: C_1  and  O_2
REMARK    2  A    between atoms: O_2  and  C_3
REMARK    3  A    between atoms: C_4  and  N_5
REMARK    4  A    between atoms: C_8  and  C_9
REMARK    5  A    between atoms: C_9  and  N_10
REMARK    6  A    between atoms: C_18  and  C_19
REMARK    7  A    between atoms: C_19  and  O_21
REMARK    8  A    between atoms: N_23  and  C_24
REMARK                            x       y       z     vdW  Elec       q    Type
REMARK                         _______ _______ _______ _____ _____    ______ ____
ROOT
ATOM      1  C   UNL     1      -3.332  12.520  20.461  0.00  0.00    +0.000 A 
ATOM      2  C   UNL     1      -3.396  13.048  21.811  0.00  0.00    +0.000 A 
ATOM      3  C   UNL     1      -2.258  12.834  22.612  0.00  0.00    +0.000 A 
ATOM      4  F   UNL     1      -2.183  13.295  23.877  0.00  0.00    +0.000 F 
ATOM      5  C   UNL     1      -1.127  12.180  22.157  0.00  0.00    +0.000 A 
ATOM      6  C   UNL     1      -1.090  11.686  20.862  0.00  0.00    +0.000 A 
ATOM      7  C   UNL     1       0.156  10.992  20.464  0.00  0.00    +0.000 A 
ATOM      8  O   UNL     1       1.106  10.863  21.235  0.00  0.00    +0.000 OA
ATOM      9  C   UNL     1       0.246  10.419  19.113  0.00  0.00    +0.000 A 
ATOM     10  C   UNL     1      -0.801  10.636  18.314  0.00  0.00    +0.000 A 
ATOM     11  N   UNL     1      -1.975  11.324  18.607  0.00  0.00    +0.000 N 
ATOM     12  C   UNL     1      -2.169  11.841  19.949  0.00  0.00    +0.000 A 
ENDROOT
BRANCH   2  13
ATOM     13  N   UNL     1      -4.506  13.735  22.323  0.00  0.00    +0.000 N 
ATOM     14  C   UNL     1      -4.609  15.191  22.320  0.00  0.00    +0.000 C 
ATOM     15  C   UNL     1      -5.395  15.522  23.583  0.00  0.00    +0.000 C 
ATOM     16  C   UNL     1      -6.334  14.331  23.759  0.00  0.00    +0.000 C 
ATOM     17  C   UNL     1      -5.458  13.155  23.290  0.00  0.00    +0.000 C 
BRANCH  16  18
ATOM     18  C   UNL     1      -7.643  14.442  22.968  0.00  0.00    +0.000 C 
BRANCH  18  19
ATOM     19  N   UNL     1      -7.916  13.210  22.232  0.00  0.00    +0.000 NA
ATOM     20  H   UNL     1      -7.051  12.834  21.843  0.00  0.00    +0.000 HD
ATOM     21  H   UNL     1      -8.521  13.413  21.435  0.00  0.00    +0.000 HD
ENDBRANCH  18  19
ENDBRANCH  16  18
ENDBRANCH   2  13
BRANCH  11  22
ATOM     22  C   UNL     1      -2.954  11.474  17.497  0.00  0.00    +0.000 C 
ATOM     23  C   UNL     1      -2.851  10.938  16.084  0.00  0.00    +0.000 C 
ATOM     24  C   UNL     1      -3.744  10.251  17.053  0.00  0.00    +0.000 C 
ENDBRANCH  11  22
BRANCH   1  26
ATOM     25  C   UNL     1      -5.524  11.947  19.793  0.00  0.00    +0.000 C 
ATOM     26  O   UNL     1      -4.395  12.810  19.642  0.00  0.00    +0.000 OA
ENDBRANCH   1  26
BRANCH   9  27
ATOM     27  C   UNL     1       1.398   9.655  18.596  0.00  0.00    +0.000 C 
ATOM     28  O   UNL     1       1.805   8.627  19.096  0.00  0.00    +0.000 OA
BRANCH  27  29
ATOM     29  O   UNL     1       1.981  10.205  17.503  0.00  0.00    +0.000 OA
ATOM     30  H   UNL     1       2.206   9.553  16.790  0.00  0.00    +0.000 HD
ENDBRANCH  27  29
ENDBRANCH   9  27
TORSDOF 7
ENDMDL
MODEL 9
REMARK VINA RESULT:      -6.1      6.866     10.590
REMARK  Name = 
REMARK  8 active torsions:
REMARK  status: ('A' for Active; 'I' for Inactive)
REMARK    1  A    between atoms: C_1  and  O_2
REMARK    2  A    between atoms: O_2  and  C_3
REMARK    3  A    between atoms: C_4  and  N_5
REMARK    4  A    between atoms: C_8  and  C_9
REMARK    5  A    between atoms: C_9  and  N_10
REMARK    6  A    between atoms: C_18  and  C_19
REMARK    7  A    between atoms: C_19  and  O_21
REMARK    8  A    between atoms: N_23  and  C_24
REMARK                            x       y       z     vdW  Elec       q    Type
REMARK                         _______ _______ _______ _____ _____    ______ ____
ROOT
ATOM      1  C   UNL     1      -3.698  12.124  19.545  0.00  0.00    +0.000 A 
ATOM      2  C   UNL     1      -4.462  11.745  18.371  0.00  0.00    +0.000 A 
ATOM      3  C   UNL     1      -5.813  12.141  18.361  0.00  0.00    +0.000 A 
ATOM      4  F   UNL     1      -6.625  11.870  17.319  0.00  0.00    +0.000 F 
ATOM      5  C   UNL     1      -6.396  12.864  19.387  0.00  0.00    +0.000 A 
ATOM      6  C   UNL     1      -5.644  13.215  20.497  0.00  0.00    +0.000 A 
ATOM      7  C   UNL     1      -6.351  13.978  21.550  0.00  0.00    +0.000 A 
ATOM      8  O   UNL     1      -7.537  14.288  21.447  0.00  0.00    +0.000 OA
ATOM      9  C   UNL     1      -5.616  14.354  22.766  0.00  0.00    +0.000 A 
ATOM     10  C   UNL     1      -4.322  14.028  22.793  0.00  0.00    +0.000 A 
ATOM     11  N   UNL     1      -3.586  13.361  21.817  0.00  0.00    +0.000 N 
ATOM     12  C   UNL     1      -4.267  12.883  20.629  0.00  0.00    +0.000 A 
ENDROOT
BRANCH   2  13
ATOM     13  N   UNL     1      -3.924  11.030  17.292  0.00  0.00    +0.000 N 
ATOM     14  C   UNL     1      -3.354   9.693  17.431  0.00  0.00    +0.000 C 
ATOM     15  C   UNL     1      -2.229   9.648  16.404  0.00  0.00    +0.000 C 
ATOM     16  C   UNL     1      -2.723  10.546  15.272  0.00  0.00    +0.000 C 
ATOM     17  C   UNL     1      -3.463  11.657  16.038  0.00  0.00    +0.000 C 
BRANCH  16  18
ATOM     18  C   UNL     1      -3.622   9.833  14.253  0.00  0.00    +0.000 C 
BRANCH  18  19
ATOM     19  N   UNL     1      -2.985   9.782  12.939  0.00  0.00    +0.000 NA
ATOM     20  H   UNL     1      -3.420   9.059  12.366  0.00  0.00    +0.000 HD
ATOM     21  H   UNL     1      -2.007   9.511  13.042  0.00  0.00    +0.000 HD
ENDBRANCH  18  19
ENDBRANCH  16  18
ENDBRANCH   2  13
BRANCH  11  22
ATOM     22  C   UNL     1      -2.132  13.189  22.081  0.00  0.00    +0.000 C 
ATOM     23  C   UNL     1      -1.382  13.442  23.373  0.00  0.00    +0.000 C 
ATOM     24  C   UNL     1      -1.686  12.042  22.977  0.00  0.00    +0.000 C 
ENDBRANCH  11  22
BRANCH   1  26
ATOM     25  C   UNL     1      -1.542  12.797  18.854  0.00  0.00    +0.000 C 
ATOM     26  O   UNL     1      -2.357  11.830  19.519  0.00  0.00    +0.000 OA
ENDBRANCH   1  26
BRANCH   9  27
ATOM     27  C   UNL     1      -6.201  15.065  23.920  0.00  0.00    +0.000 C 
ATOM     28  O   UNL     1      -5.815  16.148  24.311  0.00  0.00    +0.000 OA
BRANCH  27  29
ATOM     29  O   UNL     1      -7.215  14.399  24.525  0.00  0.00    +0.000 OA
ATOM     30  H   UNL     1      -8.090  14.488  24.067  0.00  0.00    +0.000 HD
ENDBRANCH  27  29
ENDBRANCH   9  27
TORSDOF 7
ENDMDL
