MODEL 1
REMARK VINA RESULT:      -8.1      0.000      0.000
REMARK  Name = 
REMARK  13 active torsions:
REMARK  status: ('A' for Active; 'I' for Inactive)
REMARK    1  A    between atoms: C_1  and  C_2
REMARK    2  A    between atoms: C_2  and  N_3
REMARK    3  A    between atoms: C_12  and  N_13
REMARK    4  A    between atoms: C_14  and  C_16
REMARK    5  A    between atoms: C_17  and  C_18
REMARK    6  A    between atoms: C_20  and  O_21
REMARK    7  A    between atoms: C_23  and  N_24
REMARK    8  A    between atoms: N_24  and  C_25
REMARK    9  A    between atoms: C_25  and  C_26
REMARK   10  A    between atoms: C_26  and  N_27
REMARK   11  A    between atoms: N_27  and  C_28
REMARK   12  A    between atoms: C_28  and  C_29
REMARK   13  A    between atoms: C_29  and  O_30
REMARK                            x       y       z     vdW  Elec       q    Type
REMARK                         _______ _______ _______ _____ _____    ______ ____
ROOT
ATOM      1  N   UNL     1       3.338   7.444  18.197  0.00  0.00    +0.000 N 
ATOM      2  C   UNL     1       3.341   6.096  17.880  0.00  0.00    +0.000 C 
ATOM      3  O   UNL     1       2.356   5.391  17.697  0.00  0.00    +0.000 OA
ATOM      4  H   UNL     1       4.246   7.902  18.262  0.00  0.00    +0.000 HD
ENDROOT
BRANCH   1  14
ATOM      5  N   UNL     1      -0.715  10.989  19.546  0.00  0.00    +0.000 N 
ATOM      6  C   UNL     1      -0.815  10.832  20.916  0.00  0.00    +0.000 A 
ATOM      7  C   UNL     1      -1.588  11.510  21.873  0.00  0.00    +0.000 A 
ATOM      8  C   UNL     1      -1.457  11.136  23.215  0.00  0.00    +0.000 A 
ATOM      9  C   UNL     1      -0.585  10.119  23.591  0.00  0.00    +0.000 A 
ATOM     10  C   UNL     1       0.183   9.454  22.632  0.00  0.00    +0.000 A 
ATOM     11  C   UNL     1       0.069   9.812  21.271  0.00  0.00    +0.000 A 
ATOM     12  C   UNL     1       0.714   9.364  20.074  0.00  0.00    +0.000 A 
ATOM     13  C   UNL     1       1.739   8.429  19.813  0.00  0.00    +0.000 A 
ATOM     14  C   UNL     1       2.207   8.234  18.508  0.00  0.00    +0.000 A 
ATOM     15  C   UNL     1       1.568   8.888  17.452  0.00  0.00    +0.000 A 
ATOM     16  C   UNL     1       0.535   9.808  17.679  0.00  0.00    +0.000 A 
ATOM     17  C   UNL     1       0.160  10.066  19.006  0.00  0.00    +0.000 A 
BRANCH   5  19
ATOM     18  C   UNL     1      -2.664  11.615  18.165  0.00  0.00    +0.000 C 
ATOM     19  C   UNL     1      -1.353  12.054  18.788  0.00  0.00    +0.000 C 
ENDBRANCH   5  19
ENDBRANCH   1  14
BRANCH   2  20
ATOM     20  C   UNL     1       4.670   5.459  17.733  0.00  0.00    +0.000 A 
ATOM     21  C   UNL     1       5.535   5.828  16.699  0.00  0.00    +0.000 A 
ATOM     22  C   UNL     1       5.179   6.755  15.570  0.00  0.00    +0.000 C 
ATOM     23  N   UNL     1       6.788   5.323  16.602  0.00  0.00    +0.000 NA
ATOM     24  C   UNL     1       7.141   4.464  17.550  0.00  0.00    +0.000 A 
ATOM     25  N   UNL     1       6.402   4.031  18.569  0.00  0.00    +0.000 NA
ATOM     26  C   UNL     1       5.161   4.548  18.677  0.00  0.00    +0.000 A 
BRANCH  24  27
ATOM     27  O   UNL     1       8.408   3.994  17.435  0.00  0.00    +0.000 OA
ATOM     28  H   UNL     1       8.842   4.813  17.143  0.00  0.00    +0.000 HD
ENDBRANCH  24  27
BRANCH  26  29
ATOM     29  N   UNL     1       4.332   4.080  19.729  0.00  0.00    +0.000 N 
ATOM     30  H   UNL     1       4.732   4.390  20.620  0.00  0.00    +0.000 HD
BRANCH  29  31
ATOM     31  C   UNL     1       4.206   2.611  19.804  0.00  0.00    +0.000 C 
BRANCH  31  32
ATOM     32  C   UNL     1       3.355   2.065  18.634  0.00  0.00    +0.000 C 
BRANCH  32  33
ATOM     33  N   UNL     1       2.048   1.572  19.123  0.00  0.00    +0.000 NA
ATOM     34  H   UNL     1       2.125   1.439  20.130  0.00  0.00    +0.000 HD
BRANCH  33  35
ATOM     35  C   UNL     1       0.997   2.581  18.888  0.00  0.00    +0.000 C 
BRANCH  35  36
ATOM     36  C   UNL     1       0.620   3.280  20.199  0.00  0.00    +0.000 C 
BRANCH  36  37
ATOM     37  O   UNL     1       1.360   4.491  20.342  0.00  0.00    +0.000 OA
ATOM     38  H   UNL     1       0.848   5.171  19.870  0.00  0.00    +0.000 HD
ENDBRANCH  36  37
ENDBRANCH  35  36
ENDBRANCH  33  35
ENDBRANCH  32  33
ENDBRANCH  31  32
ENDBRANCH  29  31
ENDBRANCH  26  29
ENDBRANCH   2  20
TORSDOF 11
ENDMDL
MODEL 2
REMARK VINA RESULT:      -8.0      1.758      3.779
REMARK  Name = 
REMARK  13 active torsions:
REMARK  status: ('A' for Active; 'I' for Inactive)
REMARK    1  A    between atoms: C_1  and  C_2
REMARK    2  A    between atoms: C_2  and  N_3
REMARK    3  A    between atoms: C_12  and  N_13
REMARK    4  A    between atoms: C_14  and  C_16
REMARK    5  A    between atoms: C_17  and  C_18
REMARK    6  A    between atoms: C_20  and  O_21
REMARK    7  A    between atoms: C_23  and  N_24
REMARK    8  A    between atoms: N_24  and  C_25
REMARK    9  A    between atoms: C_25  and  C_26
REMARK   10  A    between atoms: C_26  and  N_27
REMARK   11  A    between atoms: N_27  and  C_28
REMARK   12  A    between atoms: C_28  and  C_29
REMARK   13  A    between atoms: C_29  and  O_30
REMARK                            x       y       z     vdW  Elec       q    Type
REMARK                         _______ _______ _______ _____ _____    ______ ____
ROOT
ATOM      1  N   UNL     1       2.490   6.980  19.868  0.00  0.00    +0.000 N 
ATOM      2  C   UNL     1       2.498   5.888  19.017  0.00  0.00    +0.000 C 
ATOM      3  O   UNL     1       1.937   5.811  17.930  0.00  0.00    +0.000 OA
ATOM      4  H   UNL     1       3.053   6.907  20.714  0.00  0.00    +0.000 HD
ENDROOT
BRANCH   1  14
ATOM      5  N   UNL     1      -0.060  11.902  19.546  0.00  0.00    +0.000 N 
ATOM      6  C   UNL     1      -0.691  11.999  20.772  0.00  0.00    +0.000 A 
ATOM      7  C   UNL     1      -1.424  13.045  21.357  0.00  0.00    +0.000 A 
ATOM      8  C   UNL     1      -1.933  12.856  22.646  0.00  0.00    +0.000 A 
ATOM      9  C   UNL     1      -1.720  11.664  23.331  0.00  0.00    +0.000 A 
ATOM     10  C   UNL     1      -0.984  10.631  22.743  0.00  0.00    +0.000 A 
ATOM     11  C   UNL     1      -0.460  10.797  21.442  0.00  0.00    +0.000 A 
ATOM     12  C   UNL     1       0.338   9.973  20.587  0.00  0.00    +0.000 A 
ATOM     13  C   UNL     1       0.939   8.704  20.743  0.00  0.00    +0.000 A 
ATOM     14  C   UNL     1       1.724   8.160  19.719  0.00  0.00    +0.000 A 
ATOM     15  C   UNL     1       1.809   8.832  18.497  0.00  0.00    +0.000 A 
ATOM     16  C   UNL     1       1.207  10.083  18.307  0.00  0.00    +0.000 A 
ATOM     17  C   UNL     1       0.518  10.656  19.386  0.00  0.00    +0.000 A 
BRANCH   5  19
ATOM     18  C   UNL     1       1.338  13.807  18.832  0.00  0.00    +0.000 C 
ATOM     19  C   UNL     1       0.079  12.996  18.599  0.00  0.00    +0.000 C 
ENDBRANCH   5  19
ENDBRANCH   1  14
BRANCH   2  20
ATOM     20  C   UNL     1       3.277   4.712  19.466  0.00  0.00    +0.000 A 
ATOM     21  C   UNL     1       2.659   3.646  20.126  0.00  0.00    +0.000 A 
ATOM     22  C   UNL     1       1.226   3.635  20.583  0.00  0.00    +0.000 C 
ATOM     23  N   UNL     1       3.338   2.524  20.462  0.00  0.00    +0.000 NA
ATOM     24  C   UNL     1       4.620   2.498  20.120  0.00  0.00    +0.000 A 
ATOM     25  N   UNL     1       5.315   3.452  19.505  0.00  0.00    +0.000 NA
ATOM     26  C   UNL     1       4.635   4.563  19.154  0.00  0.00    +0.000 A 
BRANCH  24  27
ATOM     27  O   UNL     1       5.264   1.352  20.452  0.00  0.00    +0.000 OA
ATOM     28  H   UNL     1       4.561   0.719  20.229  0.00  0.00    +0.000 HD
ENDBRANCH  24  27
BRANCH  26  29
ATOM     29  N   UNL     1       5.353   5.617  18.531  0.00  0.00    +0.000 N 
ATOM     30  H   UNL     1       4.983   5.746  17.584  0.00  0.00    +0.000 HD
BRANCH  29  31
ATOM     31  C   UNL     1       6.802   5.374  18.393  0.00  0.00    +0.000 C 
BRANCH  31  32
ATOM     32  C   UNL     1       7.455   6.421  17.460  0.00  0.00    +0.000 C 
BRANCH  32  33
ATOM     33  N   UNL     1       7.364   5.992  16.047  0.00  0.00    +0.000 NA
ATOM     34  H   UNL     1       8.249   6.220  15.596  0.00  0.00    +0.000 HD
BRANCH  33  35
ATOM     35  C   UNL     1       7.190   4.528  15.964  0.00  0.00    +0.000 C 
BRANCH  35  36
ATOM     36  C   UNL     1       6.032   4.177  15.022  0.00  0.00    +0.000 C 
BRANCH  36  37
ATOM     37  O   UNL     1       4.799   4.174  15.739  0.00  0.00    +0.000 OA
ATOM     38  H   UNL     1       4.411   3.293  15.592  0.00  0.00    +0.000 HD
ENDBRANCH  36  37
ENDBRANCH  35  36
ENDBRANCH  33  35
ENDBRANCH  32  33
ENDBRANCH  31  32
ENDBRANCH  29  31
ENDBRANCH  26  29
ENDBRANCH   2  20
TORSDOF 11
ENDMDL
MODEL 3
REMARK VINA RESULT:      -7.7      1.920      3.847
REMARK  Name = 
REMARK  13 active torsions:
REMARK  status: ('A' for Active; 'I' for Inactive)
REMARK    1  A    between atoms: C_1  and  C_2
REMARK    2  A    between atoms: C_2  and  N_3
REMARK    3  A    between atoms: C_12  and  N_13
REMARK    4  A    between atoms: C_14  and  C_16
REMARK    5  A    between atoms: C_17  and  C_18
REMARK    6  A    between atoms: C_20  and  O_21
REMARK    7  A    between atoms: C_23  and  N_24
REMARK    8  A    between atoms: N_24  and  C_25
REMARK    9  A    between atoms: C_25  and  C_26
REMARK   10  A    between atoms: C_26  and  N_27
REMARK   11  A    between atoms: N_27  and  C_28
REMARK   12  A    between atoms: C_28  and  C_29
REMARK   13  A    between atoms: C_29  and  O_30
REMARK                            x       y       z     vdW  Elec       q    Type
REMARK                         _______ _______ _______ _____ _____    ______ ____
ROOT
ATOM      1  N   UNL     1       2.598   6.527  18.924  0.00  0.00    +0.000 N 
ATOM      2  C   UNL     1       2.125   5.468  18.167  0.00  0.00    +0.000 C 
ATOM      3  O   UNL     1       1.215   5.512  17.347  0.00  0.00    +0.000 OA
ATOM      4  H   UNL     1       3.400   6.339  19.524  0.00  0.00    +0.000 HD
ENDROOT
BRANCH   1  14
ATOM      5  N   UNL     1       0.873  11.764  19.576  0.00  0.00    +0.000 N 
ATOM      6  C   UNL     1       0.172  11.707  20.766  0.00  0.00    +0.000 A 
ATOM      7  C   UNL     1      -0.433  12.717  21.534  0.00  0.00    +0.000 A 
ATOM      8  C   UNL     1      -1.064  12.351  22.728  0.00  0.00    +0.000 A 
ATOM      9  C   UNL     1      -1.091  11.024  23.145  0.00  0.00    +0.000 A 
ATOM     10  C   UNL     1      -0.481  10.028  22.377  0.00  0.00    +0.000 A 
ATOM     11  C   UNL     1       0.161  10.371  21.167  0.00  0.00    +0.000 A 
ATOM     12  C   UNL     1       0.886   9.621  20.187  0.00  0.00    +0.000 A 
ATOM     13  C   UNL     1       1.270   8.266  20.087  0.00  0.00    +0.000 A 
ATOM     14  C   UNL     1       2.038   7.823  19.003  0.00  0.00    +0.000 A 
ATOM     15  C   UNL     1       2.320   8.711  17.963  0.00  0.00    +0.000 A 
ATOM     16  C   UNL     1       1.935  10.057  18.025  0.00  0.00    +0.000 A 
ATOM     17  C   UNL     1       1.262  10.500  19.173  0.00  0.00    +0.000 A 
BRANCH   5  19
ATOM     18  C   UNL     1       2.595  13.521  19.364  0.00  0.00    +0.000 C 
ATOM     19  C   UNL     1       1.253  12.992  18.897  0.00  0.00    +0.000 C 
ENDBRANCH   5  19
ENDBRANCH   1  14
BRANCH   2  20
ATOM     20  C   UNL     1       2.803   4.166  18.363  0.00  0.00    +0.000 A 
ATOM     21  C   UNL     1       2.294   3.215  19.252  0.00  0.00    +0.000 A 
ATOM     22  C   UNL     1       1.144   3.448  20.193  0.00  0.00    +0.000 C 
ATOM     23  N   UNL     1       2.848   1.986  19.376  0.00  0.00    +0.000 NA
ATOM     24  C   UNL     1       3.895   1.741  18.598  0.00  0.00    +0.000 A 
ATOM     25  N   UNL     1       4.471   2.569  17.729  0.00  0.00    +0.000 NA
ATOM     26  C   UNL     1       3.909   3.787  17.592  0.00  0.00    +0.000 A 
BRANCH  24  27
ATOM     27  O   UNL     1       4.412   0.495  18.733  0.00  0.00    +0.000 OA
ATOM     28  H   UNL     1       4.887   0.441  17.886  0.00  0.00    +0.000 HD
ENDBRANCH  24  27
BRANCH  26  29
ATOM     29  N   UNL     1       4.520   4.708  16.703  0.00  0.00    +0.000 N 
ATOM     30  H   UNL     1       3.859   4.919  15.948  0.00  0.00    +0.000 HD
BRANCH  29  31
ATOM     31  C   UNL     1       5.755   4.216  16.062  0.00  0.00    +0.000 C 
BRANCH  31  32
ATOM     32  C   UNL     1       6.995   4.522  16.936  0.00  0.00    +0.000 C 
BRANCH  32  33
ATOM     33  N   UNL     1       7.365   5.951  16.836  0.00  0.00    +0.000 NA
ATOM     34  H   UNL     1       6.584   6.444  16.406  0.00  0.00    +0.000 HD
BRANCH  33  35
ATOM     35  C   UNL     1       7.563   6.526  18.182  0.00  0.00    +0.000 C 
BRANCH  35  36
ATOM     36  C   UNL     1       7.020   5.577  19.257  0.00  0.00    +0.000 C 
BRANCH  36  37
ATOM     37  O   UNL     1       7.943   5.482  20.340  0.00  0.00    +0.000 OA
ATOM     38  H   UNL     1       7.523   4.894  20.993  0.00  0.00    +0.000 HD
ENDBRANCH  36  37
ENDBRANCH  35  36
ENDBRANCH  33  35
ENDBRANCH  32  33
ENDBRANCH  31  32
ENDBRANCH  29  31
ENDBRANCH  26  29
ENDBRANCH   2  20
TORSDOF 11
ENDMDL
MODEL 4
REMARK VINA RESULT:      -7.7      1.896      3.904
REMARK  Name = 
REMARK  13 active torsions:
REMARK  status: ('A' for Active; 'I' for Inactive)
REMARK    1  A    between atoms: C_1  and  C_2
REMARK    2  A    between atoms: C_2  and  N_3
REMARK    3  A    between atoms: C_12  and  N_13
REMARK    4  A    between atoms: C_14  and  C_16
REMARK    5  A    between atoms: C_17  and  C_18
REMARK    6  A    between atoms: C_20  and  O_21
REMARK    7  A    between atoms: C_23  and  N_24
REMARK    8  A    between atoms: N_24  and  C_25
REMARK    9  A    between atoms: C_25  and  C_26
REMARK   10  A    between atoms: C_26  and  N_27
REMARK   11  A    between atoms: N_27  and  C_28
REMARK   12  A    between atoms: C_28  and  C_29
REMARK   13  A    between atoms: C_29  and  O_30
REMARK                            x       y       z     vdW  Elec       q    Type
REMARK                         _______ _______ _______ _____ _____    ______ ____
ROOT
ATOM      1  N   UNL     1       2.522   6.929  19.923  0.00  0.00    +0.000 N 
ATOM      2  C   UNL     1       2.634   5.891  19.013  0.00  0.00    +0.000 C 
ATOM      3  O   UNL     1       2.201   5.881  17.867  0.00  0.00    +0.000 OA
ATOM      4  H   UNL     1       2.986   6.804  20.821  0.00  0.00    +0.000 HD
ENDROOT
BRANCH   1  14
ATOM      5  N   UNL     1       0.030  11.875  19.540  0.00  0.00    +0.000 N 
ATOM      6  C   UNL     1      -0.594  11.998  20.768  0.00  0.00    +0.000 A 
ATOM      7  C   UNL     1      -1.312  13.062  21.341  0.00  0.00    +0.000 A 
ATOM      8  C   UNL     1      -1.817  12.898  22.635  0.00  0.00    +0.000 A 
ATOM      9  C   UNL     1      -1.615  11.713  23.336  0.00  0.00    +0.000 A 
ATOM     10  C   UNL     1      -0.894  10.663  22.760  0.00  0.00    +0.000 A 
ATOM     11  C   UNL     1      -0.375  10.803  21.454  0.00  0.00    +0.000 A 
ATOM     12  C   UNL     1       0.410   9.957  20.608  0.00  0.00    +0.000 A 
ATOM     13  C   UNL     1       0.997   8.684  20.779  0.00  0.00    +0.000 A 
ATOM     14  C   UNL     1       1.770   8.116  19.759  0.00  0.00    +0.000 A 
ATOM     15  C   UNL     1       1.857   8.769  18.528  0.00  0.00    +0.000 A 
ATOM     16  C   UNL     1       1.269  10.024  18.322  0.00  0.00    +0.000 A 
ATOM     17  C   UNL     1       0.592  10.621  19.396  0.00  0.00    +0.000 A 
BRANCH   5  19
ATOM     18  C   UNL     1       1.455  13.744  18.783  0.00  0.00    +0.000 C 
ATOM     19  C   UNL     1       0.178  12.954  18.576  0.00  0.00    +0.000 C 
ENDBRANCH   5  19
ENDBRANCH   1  14
BRANCH   2  20
ATOM     20  C   UNL     1       3.366   4.689  19.475  0.00  0.00    +0.000 A 
ATOM     21  C   UNL     1       2.694   3.624  20.079  0.00  0.00    +0.000 A 
ATOM     22  C   UNL     1       1.240   3.632  20.463  0.00  0.00    +0.000 C 
ATOM     23  N   UNL     1       3.332   2.480  20.424  0.00  0.00    +0.000 NA
ATOM     24  C   UNL     1       4.629   2.435  20.147  0.00  0.00    +0.000 A 
ATOM     25  N   UNL     1       5.374   3.387  19.589  0.00  0.00    +0.000 NA
ATOM     26  C   UNL     1       4.735   4.519  19.229  0.00  0.00    +0.000 A 
BRANCH  24  27
ATOM     27  O   UNL     1       5.233   1.269  20.487  0.00  0.00    +0.000 OA
ATOM     28  H   UNL     1       4.943   0.729  19.733  0.00  0.00    +0.000 HD
ENDBRANCH  24  27
BRANCH  26  29
ATOM     29  N   UNL     1       5.505   5.570  18.666  0.00  0.00    +0.000 N 
ATOM     30  H   UNL     1       4.866   6.310  18.357  0.00  0.00    +0.000 HD
BRANCH  29  31
ATOM     31  C   UNL     1       6.308   5.181  17.492  0.00  0.00    +0.000 C 
BRANCH  31  32
ATOM     32  C   UNL     1       5.425   4.520  16.407  0.00  0.00    +0.000 C 
BRANCH  32  33
ATOM     33  N   UNL     1       6.238   3.655  15.524  0.00  0.00    +0.000 NA
ATOM     34  H   UNL     1       5.985   2.688  15.720  0.00  0.00    +0.000 HD
BRANCH  33  35
ATOM     35  C   UNL     1       5.916   3.918  14.108  0.00  0.00    +0.000 C 
BRANCH  35  36
ATOM     36  C   UNL     1       7.078   4.643  13.418  0.00  0.00    +0.000 C 
BRANCH  36  37
ATOM     37  O   UNL     1       7.806   5.421  14.366  0.00  0.00    +0.000 OA
ATOM     38  H   UNL     1       7.368   5.271  15.222  0.00  0.00    +0.000 HD
ENDBRANCH  36  37
ENDBRANCH  35  36
ENDBRANCH  33  35
ENDBRANCH  32  33
ENDBRANCH  31  32
ENDBRANCH  29  31
ENDBRANCH  26  29
ENDBRANCH   2  20
TORSDOF 11
ENDMDL
MODEL 5
REMARK VINA RESULT:      -7.6      1.911      4.077
REMARK  Name = 
REMARK  13 active torsions:
REMARK  status: ('A' for Active; 'I' for Inactive)
REMARK    1  A    between atoms: C_1  and  C_2
REMARK    2  A    between atoms: C_2  and  N_3
REMARK    3  A    between atoms: C_12  and  N_13
REMARK    4  A    between atoms: C_14  and  C_16
REMARK    5  A    between atoms: C_17  and  C_18
REMARK    6  A    between atoms: C_20  and  O_21
REMARK    7  A    between atoms: C_23  and  N_24
REMARK    8  A    between atoms: N_24  and  C_25
REMARK    9  A    between atoms: C_25  and  C_26
REMARK   10  A    between atoms: C_26  and  N_27
REMARK   11  A    between atoms: N_27  and  C_28
REMARK   12  A    between atoms: C_28  and  C_29
REMARK   13  A    between atoms: C_29  and  O_30
REMARK                            x       y       z     vdW  Elec       q    Type
REMARK                         _______ _______ _______ _____ _____    ______ ____
ROOT
ATOM      1  N   UNL     1       2.569   6.825  19.881  0.00  0.00    +0.000 N 
ATOM      2  C   UNL     1       2.511   5.705  19.069  0.00  0.00    +0.000 C 
ATOM      3  O   UNL     1       1.889   5.601  18.018  0.00  0.00    +0.000 OA
ATOM      4  H   UNL     1       3.178   6.770  20.696  0.00  0.00    +0.000 HD
ENDROOT
BRANCH   1  14
ATOM      5  N   UNL     1       0.066  11.771  19.574  0.00  0.00    +0.000 N 
ATOM      6  C   UNL     1      -0.575  11.865  20.796  0.00  0.00    +0.000 A 
ATOM      7  C   UNL     1      -1.304  12.913  21.382  0.00  0.00    +0.000 A 
ATOM      8  C   UNL     1      -1.827  12.718  22.665  0.00  0.00    +0.000 A 
ATOM      9  C   UNL     1      -1.631  11.519  23.342  0.00  0.00    +0.000 A 
ATOM     10  C   UNL     1      -0.899  10.484  22.752  0.00  0.00    +0.000 A 
ATOM     11  C   UNL     1      -0.361  10.655  21.458  0.00  0.00    +0.000 A 
ATOM     12  C   UNL     1       0.437   9.831  20.604  0.00  0.00    +0.000 A 
ATOM     13  C   UNL     1       1.026   8.556  20.755  0.00  0.00    +0.000 A 
ATOM     14  C   UNL     1       1.815   8.013  19.734  0.00  0.00    +0.000 A 
ATOM     15  C   UNL     1       1.917   8.694  18.518  0.00  0.00    +0.000 A 
ATOM     16  C   UNL     1       1.328   9.951  18.332  0.00  0.00    +0.000 A 
ATOM     17  C   UNL     1       0.634  10.522  19.410  0.00  0.00    +0.000 A 
BRANCH   5  19
ATOM     18  C   UNL     1       1.519  13.630  18.847  0.00  0.00    +0.000 C 
ATOM     19  C   UNL     1       0.224  12.872  18.637  0.00  0.00    +0.000 C 
ENDBRANCH   5  19
ENDBRANCH   1  14
BRANCH   2  20
ATOM     20  C   UNL     1       3.296   4.530  19.514  0.00  0.00    +0.000 A 
ATOM     21  C   UNL     1       2.706   3.514  20.270  0.00  0.00    +0.000 A 
ATOM     22  C   UNL     1       1.313   3.562  20.836  0.00  0.00    +0.000 C 
ATOM     23  N   UNL     1       3.383   2.391  20.608  0.00  0.00    +0.000 NA
ATOM     24  C   UNL     1       4.633   2.315  20.170  0.00  0.00    +0.000 A 
ATOM     25  N   UNL     1       5.300   3.220  19.458  0.00  0.00    +0.000 NA
ATOM     26  C   UNL     1       4.621   4.331  19.106  0.00  0.00    +0.000 A 
BRANCH  24  27
ATOM     27  O   UNL     1       5.275   1.169  20.508  0.00  0.00    +0.000 OA
ATOM     28  H   UNL     1       4.842   1.005  21.363  0.00  0.00    +0.000 HD
ENDBRANCH  24  27
BRANCH  26  29
ATOM     29  N   UNL     1       5.313   5.334  18.379  0.00  0.00    +0.000 N 
ATOM     30  H   UNL     1       4.756   6.195  18.404  0.00  0.00    +0.000 HD
BRANCH  29  31
ATOM     31  C   UNL     1       5.540   5.014  16.957  0.00  0.00    +0.000 C 
BRANCH  31  32
ATOM     32  C   UNL     1       7.049   5.043  16.614  0.00  0.00    +0.000 C 
BRANCH  32  33
ATOM     33  N   UNL     1       7.501   6.429  16.360  0.00  0.00    +0.000 NA
ATOM     34  H   UNL     1       7.069   6.741  15.492  0.00  0.00    +0.000 HD
BRANCH  33  35
ATOM     35  C   UNL     1       7.034   7.328  17.434  0.00  0.00    +0.000 C 
BRANCH  35  36
ATOM     36  C   UNL     1       8.066   8.430  17.700  0.00  0.00    +0.000 C 
BRANCH  36  37
ATOM     37  O   UNL     1       8.752   8.178  18.924  0.00  0.00    +0.000 OA
ATOM     38  H   UNL     1       8.486   8.894  19.527  0.00  0.00    +0.000 HD
ENDBRANCH  36  37
ENDBRANCH  35  36
ENDBRANCH  33  35
ENDBRANCH  32  33
ENDBRANCH  31  32
ENDBRANCH  29  31
ENDBRANCH  26  29
ENDBRANCH   2  20
TORSDOF 11
ENDMDL
MODEL 6
REMARK VINA RESULT:      -7.6      1.754      4.340
REMARK  Name = 
REMARK  13 active torsions:
REMARK  status: ('A' for Active; 'I' for Inactive)
REMARK    1  A    between atoms: C_1  and  C_2
REMARK    2  A    between atoms: C_2  and  N_3
REMARK    3  A    between atoms: C_12  and  N_13
REMARK    4  A    between atoms: C_14  and  C_16
REMARK    5  A    between atoms: C_17  and  C_18
REMARK    6  A    between atoms: C_20  and  O_21
REMARK    7  A    between atoms: C_23  and  N_24
REMARK    8  A    between atoms: N_24  and  C_25
REMARK    9  A    between atoms: C_25  and  C_26
REMARK   10  A    between atoms: C_26  and  N_27
REMARK   11  A    between atoms: N_27  and  C_28
REMARK   12  A    between atoms: C_28  and  C_29
REMARK   13  A    between atoms: C_29  and  O_30
REMARK                            x       y       z     vdW  Elec       q    Type
REMARK                         _______ _______ _______ _____ _____    ______ ____
ROOT
ATOM      1  N   UNL     1       2.266   6.976  20.656  0.00  0.00    +0.000 N 
ATOM      2  C   UNL     1       2.595   6.308  19.489  0.00  0.00    +0.000 C 
ATOM      3  O   UNL     1       2.382   6.695  18.345  0.00  0.00    +0.000 OA
ATOM      4  H   UNL     1       2.563   6.545  21.530  0.00  0.00    +0.000 HD
ENDROOT
BRANCH   1  14
ATOM      5  N   UNL     1      -1.217  11.265  21.198  0.00  0.00    +0.000 N 
ATOM      6  C   UNL     1      -1.771  11.370  19.935  0.00  0.00    +0.000 A 
ATOM      7  C   UNL     1      -2.792  12.196  19.437  0.00  0.00    +0.000 A 
ATOM      8  C   UNL     1      -3.159  12.057  18.094  0.00  0.00    +0.000 A 
ATOM      9  C   UNL     1      -2.530  11.125  17.274  0.00  0.00    +0.000 A 
ATOM     10  C   UNL     1      -1.518  10.304  17.781  0.00  0.00    +0.000 A 
ATOM     11  C   UNL     1      -1.129  10.426  19.133  0.00  0.00    +0.000 A 
ATOM     12  C   UNL     1      -0.176   9.740  19.951  0.00  0.00    +0.000 A 
ATOM     13  C   UNL     1       0.697   8.654  19.726  0.00  0.00    +0.000 A 
ATOM     14  C   UNL     1       1.498   8.159  20.762  0.00  0.00    +0.000 A 
ATOM     15  C   UNL     1       1.511   8.827  21.989  0.00  0.00    +0.000 A 
ATOM     16  C   UNL     1       0.669   9.919  22.236  0.00  0.00    +0.000 A 
ATOM     17  C   UNL     1      -0.203  10.326  21.215  0.00  0.00    +0.000 A 
BRANCH   5  19
ATOM     18  C   UNL     1      -0.942  13.240  22.654  0.00  0.00    +0.000 C 
ATOM     19  C   UNL     1      -1.708  11.962  22.376  0.00  0.00    +0.000 C 
ENDBRANCH   5  19
ENDBRANCH   1  14
BRANCH   2  20
ATOM     20  C   UNL     1       3.290   5.010  19.648  0.00  0.00    +0.000 A 
ATOM     21  C   UNL     1       2.599   3.871  20.074  0.00  0.00    +0.000 A 
ATOM     22  C   UNL     1       1.174   3.860  20.553  0.00  0.00    +0.000 C 
ATOM     23  N   UNL     1       3.197   2.657  20.138  0.00  0.00    +0.000 NA
ATOM     24  C   UNL     1       4.470   2.617  19.767  0.00  0.00    +0.000 A 
ATOM     25  N   UNL     1       5.228   3.633  19.359  0.00  0.00    +0.000 NA
ATOM     26  C   UNL     1       4.630   4.838  19.278  0.00  0.00    +0.000 A 
BRANCH  24  27
ATOM     27  O   UNL     1       5.031   1.384  19.824  0.00  0.00    +0.000 OA
ATOM     28  H   UNL     1       4.237   0.873  20.052  0.00  0.00    +0.000 HD
ENDBRANCH  24  27
BRANCH  26  29
ATOM     29  N   UNL     1       5.418   5.950  18.883  0.00  0.00    +0.000 N 
ATOM     30  H   UNL     1       5.078   6.284  17.976  0.00  0.00    +0.000 HD
BRANCH  29  31
ATOM     31  C   UNL     1       6.855   5.656  18.719  0.00  0.00    +0.000 C 
BRANCH  31  32
ATOM     32  C   UNL     1       7.410   6.296  17.425  0.00  0.00    +0.000 C 
BRANCH  32  33
ATOM     33  N   UNL     1       7.394   5.322  16.311  0.00  0.00    +0.000 NA
ATOM     34  H   UNL     1       7.374   4.388  16.717  0.00  0.00    +0.000 HD
BRANCH  33  35
ATOM     35  C   UNL     1       6.167   5.481  15.506  0.00  0.00    +0.000 C 
BRANCH  35  36
ATOM     36  C   UNL     1       5.467   4.129  15.319  0.00  0.00    +0.000 C 
BRANCH  36  37
ATOM     37  O   UNL     1       5.827   3.239  16.374  0.00  0.00    +0.000 OA
ATOM     38  H   UNL     1       6.440   3.737  16.941  0.00  0.00    +0.000 HD
ENDBRANCH  36  37
ENDBRANCH  35  36
ENDBRANCH  33  35
ENDBRANCH  32  33
ENDBRANCH  31  32
ENDBRANCH  29  31
ENDBRANCH  26  29
ENDBRANCH   2  20
TORSDOF 11
ENDMDL
MODEL 7
REMARK VINA RESULT:      -7.6      0.771      1.034
REMARK  Name = 
REMARK  13 active torsions:
REMARK  status: ('A' for Active; 'I' for Inactive)
REMARK    1  A    between atoms: C_1  and  C_2
REMARK    2  A    between atoms: C_2  and  N_3
REMARK    3  A    between atoms: C_12  and  N_13
REMARK    4  A    between atoms: C_14  and  C_16
REMARK    5  A    between atoms: C_17  and  C_18
REMARK    6  A    between atoms: C_20  and  O_21
REMARK    7  A    between atoms: C_23  and  N_24
REMARK    8  A    between atoms: N_24  and  C_25
REMARK    9  A    between atoms: C_25  and  C_26
REMARK   10  A    between atoms: C_26  and  N_27
REMARK   11  A    between atoms: N_27  and  C_28
REMARK   12  A    between atoms: C_28  and  C_29
REMARK   13  A    between atoms: C_29  and  O_30
REMARK                            x       y       z     vdW  Elec       q    Type
REMARK                         _______ _______ _______ _____ _____    ______ ____
ROOT
ATOM      1  N   UNL     1       3.284   7.529  18.299  0.00  0.00    +0.000 N 
ATOM      2  C   UNL     1       3.288   6.175  18.013  0.00  0.00    +0.000 C 
ATOM      3  O   UNL     1       2.302   5.471  17.823  0.00  0.00    +0.000 OA
ATOM      4  H   UNL     1       4.193   7.984  18.375  0.00  0.00    +0.000 HD
ENDROOT
BRANCH   1  14
ATOM      5  N   UNL     1      -0.779  11.123  19.483  0.00  0.00    +0.000 N 
ATOM      6  C   UNL     1      -0.911  10.993  20.853  0.00  0.00    +0.000 A 
ATOM      7  C   UNL     1      -1.701  11.695  21.779  0.00  0.00    +0.000 A 
ATOM      8  C   UNL     1      -1.604  11.348  23.130  0.00  0.00    +0.000 A 
ATOM      9  C   UNL     1      -0.746  10.334  23.547  0.00  0.00    +0.000 A 
ATOM     10  C   UNL     1       0.040   9.645  22.619  0.00  0.00    +0.000 A 
ATOM     11  C   UNL     1      -0.040   9.977  21.249  0.00  0.00    +0.000 A 
ATOM     12  C   UNL     1       0.629   9.501  20.077  0.00  0.00    +0.000 A 
ATOM     13  C   UNL     1       1.654   8.555  19.858  0.00  0.00    +0.000 A 
ATOM     14  C   UNL     1       2.151   8.332  18.568  0.00  0.00    +0.000 A 
ATOM     15  C   UNL     1       1.541   8.968  17.485  0.00  0.00    +0.000 A 
ATOM     16  C   UNL     1       0.508   9.897  17.669  0.00  0.00    +0.000 A 
ATOM     17  C   UNL     1       0.104  10.184  18.982  0.00  0.00    +0.000 A 
BRANCH   5  19
ATOM     18  C   UNL     1      -0.507  13.398  18.564  0.00  0.00    +0.000 C 
ATOM     19  C   UNL     1      -1.393  12.174  18.689  0.00  0.00    +0.000 C 
ENDBRANCH   5  19
ENDBRANCH   1  14
BRANCH   2  20
ATOM     20  C   UNL     1       4.616   5.528  17.908  0.00  0.00    +0.000 A 
ATOM     21  C   UNL     1       5.443   5.756  16.805  0.00  0.00    +0.000 A 
ATOM     22  C   UNL     1       5.041   6.519  15.573  0.00  0.00    +0.000 C 
ATOM     23  N   UNL     1       6.696   5.247  16.735  0.00  0.00    +0.000 NA
ATOM     24  C   UNL     1       7.088   4.527  17.779  0.00  0.00    +0.000 A 
ATOM     25  N   UNL     1       6.387   4.235  18.872  0.00  0.00    +0.000 NA
ATOM     26  C   UNL     1       5.146   4.757  18.950  0.00  0.00    +0.000 A 
BRANCH  24  27
ATOM     27  O   UNL     1       8.354   4.050  17.686  0.00  0.00    +0.000 OA
ATOM     28  H   UNL     1       8.770   4.820  17.263  0.00  0.00    +0.000 HD
ENDBRANCH  24  27
BRANCH  26  29
ATOM     29  N   UNL     1       4.355   4.434  20.084  0.00  0.00    +0.000 N 
ATOM     30  H   UNL     1       4.903   4.631  20.928  0.00  0.00    +0.000 HD
BRANCH  29  31
ATOM     31  C   UNL     1       3.944   3.019  20.162  0.00  0.00    +0.000 C 
BRANCH  31  32
ATOM     32  C   UNL     1       2.883   2.808  21.269  0.00  0.00    +0.000 C 
BRANCH  32  33
ATOM     33  N   UNL     1       1.680   2.145  20.721  0.00  0.00    +0.000 NA
ATOM     34  H   UNL     1       1.128   1.806  21.508  0.00  0.00    +0.000 HD
BRANCH  33  35
ATOM     35  C   UNL     1       0.848   3.116  19.983  0.00  0.00    +0.000 C 
BRANCH  35  36
ATOM     36  C   UNL     1       0.533   2.594  18.576  0.00  0.00    +0.000 C 
BRANCH  36  37
ATOM     37  O   UNL     1       1.699   2.653  17.757  0.00  0.00    +0.000 OA
ATOM     38  H   UNL     1       1.448   3.182  16.979  0.00  0.00    +0.000 HD
ENDBRANCH  36  37
ENDBRANCH  35  36
ENDBRANCH  33  35
ENDBRANCH  32  33
ENDBRANCH  31  32
ENDBRANCH  29  31
ENDBRANCH  26  29
ENDBRANCH   2  20
TORSDOF 11
ENDMDL
MODEL 8
REMARK VINA RESULT:      -7.5      1.848      3.794
REMARK  Name = 
REMARK  13 active torsions:
REMARK  status: ('A' for Active; 'I' for Inactive)
REMARK    1  A    between atoms: C_1  and  C_2
REMARK    2  A    between atoms: C_2  and  N_3
REMARK    3  A    between atoms: C_12  and  N_13
REMARK    4  A    between atoms: C_14  and  C_16
REMARK    5  A    between atoms: C_17  and  C_18
REMARK    6  A    between atoms: C_20  and  O_21
REMARK    7  A    between atoms: C_23  and  N_24
REMARK    8  A    between atoms: N_24  and  C_25
REMARK    9  A    between atoms: C_25  and  C_26
REMARK   10  A    between atoms: C_26  and  N_27
REMARK   11  A    between atoms: N_27  and  C_28
REMARK   12  A    between atoms: C_28  and  C_29
REMARK   13  A    between atoms: C_29  and  O_30
REMARK                            x       y       z     vdW  Elec       q    Type
REMARK                         _______ _______ _______ _____ _____    ______ ____
ROOT
ATOM      1  N   UNL     1       2.712   6.410  19.207  0.00  0.00    +0.000 N 
ATOM      2  C   UNL     1       2.277   5.269  18.554  0.00  0.00    +0.000 C 
ATOM      3  O   UNL     1       1.325   5.191  17.786  0.00  0.00    +0.000 OA
ATOM      4  H   UNL     1       3.557   6.321  19.771  0.00  0.00    +0.000 HD
ENDROOT
BRANCH   1  14
ATOM      5  N   UNL     1       0.645  11.546  19.611  0.00  0.00    +0.000 N 
ATOM      6  C   UNL     1      -0.014  11.515  20.826  0.00  0.00    +0.000 A 
ATOM      7  C   UNL     1      -0.666  12.525  21.554  0.00  0.00    +0.000 A 
ATOM      8  C   UNL     1      -1.233  12.191  22.788  0.00  0.00    +0.000 A 
ATOM      9  C   UNL     1      -1.154  10.892  23.282  0.00  0.00    +0.000 A 
ATOM     10  C   UNL     1      -0.499   9.896  22.553  0.00  0.00    +0.000 A 
ATOM     11  C   UNL     1       0.081  10.207  21.304  0.00  0.00    +0.000 A 
ATOM     12  C   UNL     1       0.826   9.451  20.345  0.00  0.00    +0.000 A 
ATOM     13  C   UNL     1       1.302   8.121  20.312  0.00  0.00    +0.000 A 
ATOM     14  C   UNL     1       2.066   7.667  19.230  0.00  0.00    +0.000 A 
ATOM     15  C   UNL     1       2.253   8.507  18.130  0.00  0.00    +0.000 A 
ATOM     16  C   UNL     1       1.777   9.825  18.126  0.00  0.00    +0.000 A 
ATOM     17  C   UNL     1       1.109  10.290  19.269  0.00  0.00    +0.000 A 
BRANCH   5  19
ATOM     18  C   UNL     1      -0.312  13.272  18.127  0.00  0.00    +0.000 C 
ATOM     19  C   UNL     1       0.917  12.754  18.849  0.00  0.00    +0.000 C 
ENDBRANCH   5  19
ENDBRANCH   1  14
BRANCH   2  20
ATOM     20  C   UNL     1       3.057   4.034  18.799  0.00  0.00    +0.000 A 
ATOM     21  C   UNL     1       2.979   3.364  20.023  0.00  0.00    +0.000 A 
ATOM     22  C   UNL     1       2.257   3.877  21.239  0.00  0.00    +0.000 C 
ATOM     23  N   UNL     1       3.613   2.186  20.233  0.00  0.00    +0.000 NA
ATOM     24  C   UNL     1       4.303   1.707  19.205  0.00  0.00    +0.000 A 
ATOM     25  N   UNL     1       4.457   2.260  18.004  0.00  0.00    +0.000 NA
ATOM     26  C   UNL     1       3.812   3.425  17.788  0.00  0.00    +0.000 A 
BRANCH  24  27
ATOM     27  O   UNL     1       4.907   0.517  19.442  0.00  0.00    +0.000 OA
ATOM     28  H   UNL     1       5.077   0.253  18.522  0.00  0.00    +0.000 HD
ENDBRANCH  24  27
BRANCH  26  29
ATOM     29  N   UNL     1       3.985   4.062  16.532  0.00  0.00    +0.000 N 
ATOM     30  H   UNL     1       4.162   3.342  15.824  0.00  0.00    +0.000 HD
BRANCH  29  31
ATOM     31  C   UNL     1       5.118   5.006  16.474  0.00  0.00    +0.000 C 
BRANCH  31  32
ATOM     32  C   UNL     1       6.377   4.328  15.882  0.00  0.00    +0.000 C 
BRANCH  32  33
ATOM     33  N   UNL     1       7.603   4.843  16.530  0.00  0.00    +0.000 NA
ATOM     34  H   UNL     1       7.882   5.689  16.037  0.00  0.00    +0.000 HD
BRANCH  33  35
ATOM     35  C   UNL     1       7.325   5.219  17.931  0.00  0.00    +0.000 C 
BRANCH  35  36
ATOM     36  C   UNL     1       7.748   6.669  18.192  0.00  0.00    +0.000 C 
BRANCH  36  37
ATOM     37  O   UNL     1       7.668   7.430  16.989  0.00  0.00    +0.000 OA
ATOM     38  H   UNL     1       8.370   7.085  16.411  0.00  0.00    +0.000 HD
ENDBRANCH  36  37
ENDBRANCH  35  36
ENDBRANCH  33  35
ENDBRANCH  32  33
ENDBRANCH  31  32
ENDBRANCH  29  31
ENDBRANCH  26  29
ENDBRANCH   2  20
TORSDOF 11
ENDMDL
MODEL 9
REMARK VINA RESULT:      -7.4      2.040      3.843
REMARK  Name = 
REMARK  13 active torsions:
REMARK  status: ('A' for Active; 'I' for Inactive)
REMARK    1  A    between atoms: C_1  and  C_2
REMARK    2  A    between atoms: C_2  and  N_3
REMARK    3  A    between atoms: C_12  and  N_13
REMARK    4  A    between atoms: C_14  and  C_16
REMARK    5  A    between atoms: C_17  and  C_18
REMARK    6  A    between atoms: C_20  and  O_21
REMARK    7  A    between atoms: C_23  and  N_24
REMARK    8  A    between atoms: N_24  and  C_25
REMARK    9  A    between atoms: C_25  and  C_26
REMARK   10  A    between atoms: C_26  and  N_27
REMARK   11  A    between atoms: N_27  and  C_28
REMARK   12  A    between atoms: C_28  and  C_29
REMARK   13  A    between atoms: C_29  and  O_30
REMARK                            x       y       z     vdW  Elec       q    Type
REMARK                         _______ _______ _______ _____ _____    ______ ____
ROOT
ATOM      1  N   UNL     1       2.451   6.747  19.355  0.00  0.00    +0.000 N 
ATOM      2  C   UNL     1       3.325   6.163  18.455  0.00  0.00    +0.000 C 
ATOM      3  O   UNL     1       3.862   6.714  17.500  0.00  0.00    +0.000 OA
ATOM      4  H   UNL     1       2.133   6.166  20.129  0.00  0.00    +0.000 HD
ENDROOT
BRANCH   1  14
ATOM      5  N   UNL     1       0.757  12.034  19.331  0.00  0.00    +0.000 N 
ATOM      6  C   UNL     1       0.078  12.142  20.531  0.00  0.00    +0.000 A 
ATOM      7  C   UNL     1      -0.509  13.249  21.167  0.00  0.00    +0.000 A 
ATOM      8  C   UNL     1      -1.118  13.051  22.411  0.00  0.00    +0.000 A 
ATOM      9  C   UNL     1      -1.141  11.791  23.002  0.00  0.00    +0.000 A 
ATOM     10  C   UNL     1      -0.549  10.698  22.364  0.00  0.00    +0.000 A 
ATOM     11  C   UNL     1       0.071  10.871  21.107  0.00  0.00    +0.000 A 
ATOM     12  C   UNL     1       0.774   9.993  20.223  0.00  0.00    +0.000 A 
ATOM     13  C   UNL     1       1.151   8.634  20.299  0.00  0.00    +0.000 A 
ATOM     14  C   UNL     1       1.897   8.046  19.270  0.00  0.00    +0.000 A 
ATOM     15  C   UNL     1       2.161   8.785  18.114  0.00  0.00    +0.000 A 
ATOM     16  C   UNL     1       1.783  10.129  18.002  0.00  0.00    +0.000 A 
ATOM     17  C   UNL     1       1.133  10.725  19.094  0.00  0.00    +0.000 A 
BRANCH   5  19
ATOM     18  C   UNL     1       2.499  13.708  18.823  0.00  0.00    +0.000 C 
ATOM     19  C   UNL     1       1.127  13.158  18.486  0.00  0.00    +0.000 C 
ENDBRANCH   5  19
ENDBRANCH   1  14
BRANCH   2  20
ATOM     20  C   UNL     1       3.652   4.737  18.688  0.00  0.00    +0.000 A 
ATOM     21  C   UNL     1       2.716   3.732  18.431  0.00  0.00    +0.000 A 
ATOM     22  C   UNL     1       1.279   3.971  18.059  0.00  0.00    +0.000 C 
ATOM     23  N   UNL     1       3.027   2.419  18.552  0.00  0.00    +0.000 NA
ATOM     24  C   UNL     1       4.273   2.151  18.921  0.00  0.00    +0.000 A 
ATOM     25  N   UNL     1       5.241   3.020  19.202  0.00  0.00    +0.000 NA
ATOM     26  C   UNL     1       4.938   4.327  19.065  0.00  0.00    +0.000 A 
BRANCH  24  27
ATOM     27  O   UNL     1       4.557   0.827  19.011  0.00  0.00    +0.000 OA
ATOM     28  H   UNL     1       5.448   0.895  19.392  0.00  0.00    +0.000 HD
ENDBRANCH  24  27
BRANCH  26  29
ATOM     29  N   UNL     1       5.934   5.282  19.394  0.00  0.00    +0.000 N 
ATOM     30  H   UNL     1       5.563   6.218  19.201  0.00  0.00    +0.000 HD
BRANCH  29  31
ATOM     31  C   UNL     1       7.186   5.152  18.624  0.00  0.00    +0.000 C 
BRANCH  31  32
ATOM     32  C   UNL     1       6.973   5.555  17.145  0.00  0.00    +0.000 C 
BRANCH  32  33
ATOM     33  N   UNL     1       7.719   4.649  16.244  0.00  0.00    +0.000 NA
ATOM     34  H   UNL     1       7.484   3.692  16.503  0.00  0.00    +0.000 HD
BRANCH  33  35
ATOM     35  C   UNL     1       7.289   4.846  14.845  0.00  0.00    +0.000 C 
BRANCH  35  36
ATOM     36  C   UNL     1       6.026   4.028  14.551  0.00  0.00    +0.000 C 
BRANCH  36  37
ATOM     37  O   UNL     1       6.209   3.245  13.373  0.00  0.00    +0.000 OA
ATOM     38  H   UNL     1       7.113   3.436  13.068  0.00  0.00    +0.000 HD
ENDBRANCH  36  37
ENDBRANCH  35  36
ENDBRANCH  33  35
ENDBRANCH  32  33
ENDBRANCH  31  32
ENDBRANCH  29  31
ENDBRANCH  26  29
ENDBRANCH   2  20
TORSDOF 11
ENDMDL
