MODEL 1
REMARK VINA RESULT:      -6.5      0.000      0.000
REMARK  Name = 
REMARK  3 active torsions:
REMARK  status: ('A' for Active; 'I' for Inactive)
REMARK    1  A    between atoms: C_2  and  C_3
REMARK    2  A    between atoms: N_6  and  O_7
REMARK    3  A    between atoms: N_6  and  C_8
REMARK                            x       y       z     vdW  Elec       q    Type
REMARK                         _______ _______ _______ _____ _____    ______ ____
ROOT
ATOM      1  O   UNL     1       8.068   4.470  16.885  0.00  0.00    +0.000 OA
ATOM      2  C   UNL     1       6.859   4.395  17.129  0.00  0.00    +0.000 C 
ATOM      3  N   UNL     1       6.396   4.588  18.427  0.00  0.00    +0.000 N 
ENDROOT
BRANCH   3   4
ATOM      4  C   UNL     1       5.112   4.451  19.003  0.00  0.00    +0.000 A 
ATOM      5  C   UNL     1       4.579   3.210  19.374  0.00  0.00    +0.000 A 
ATOM      6  C   UNL     1       3.259   3.100  19.826  0.00  0.00    +0.000 A 
ATOM      7  C   UNL     1       2.472   4.241  19.949  0.00  0.00    +0.000 A 
ATOM      8 CL   UNL     1       0.831   4.099  20.444  0.00  0.00    +0.000 Cl
ATOM      9  C   UNL     1       3.008   5.492  19.671  0.00  0.00    +0.000 A 
ATOM     10  C   UNL     1       4.327   5.596  19.215  0.00  0.00    +0.000 A 
ENDBRANCH   3   4
BRANCH   2  11
ATOM     11  C   UNL     1       5.892   4.212  16.006  0.00  0.00    +0.000 C 
ATOM     12  C   UNL     1       5.497   5.383  15.133  0.00  0.00    +0.000 C 
ATOM     13  C   UNL     1       6.378   4.303  14.577  0.00  0.00    +0.000 C 
ENDBRANCH   2  11
BRANCH   3  14
ATOM     14  O   UNL     1       7.403   5.074  19.311  0.00  0.00    +0.000 OA
ATOM     15  H   UNL     1       8.058   5.442  18.679  0.00  0.00    +0.000 HD
ENDBRANCH   3  14
TORSDOF 3
ENDMDL
MODEL 2
REMARK VINA RESULT:      -6.5      1.899      2.464
REMARK  Name = 
REMARK  3 active torsions:
REMARK  status: ('A' for Active; 'I' for Inactive)
REMARK    1  A    between atoms: C_2  and  C_3
REMARK    2  A    between atoms: N_6  and  O_7
REMARK    3  A    between atoms: N_6  and  C_8
REMARK                            x       y       z     vdW  Elec       q    Type
REMARK                         _______ _______ _______ _____ _____    ______ ____
ROOT
ATOM      1  O   UNL     1       7.386   5.449  15.668  0.00  0.00    +0.000 OA
ATOM      2  C   UNL     1       6.598   5.489  16.617  0.00  0.00    +0.000 C 
ATOM      3  N   UNL     1       5.698   4.447  16.823  0.00  0.00    +0.000 N 
ENDROOT
BRANCH   3   4
ATOM      4  C   UNL     1       4.631   4.284  17.735  0.00  0.00    +0.000 A 
ATOM      5  C   UNL     1       4.785   3.639  18.969  0.00  0.00    +0.000 A 
ATOM      6  C   UNL     1       3.681   3.388  19.792  0.00  0.00    +0.000 A 
ATOM      7  C   UNL     1       2.415   3.818  19.404  0.00  0.00    +0.000 A 
ATOM      8 CL   UNL     1       1.050   3.456  20.384  0.00  0.00    +0.000 Cl
ATOM      9  C   UNL     1       2.255   4.538  18.226  0.00  0.00    +0.000 A 
ATOM     10  C   UNL     1       3.360   4.782  17.405  0.00  0.00    +0.000 A 
ENDBRANCH   3   4
BRANCH   2  11
ATOM     11  C   UNL     1       6.693   6.604  17.607  0.00  0.00    +0.000 C 
ATOM     12  C   UNL     1       7.850   6.671  18.580  0.00  0.00    +0.000 C 
ATOM     13  C   UNL     1       7.769   7.655  17.450  0.00  0.00    +0.000 C 
ENDBRANCH   2  11
BRANCH   3  14
ATOM     14  O   UNL     1       5.956   3.318  15.992  0.00  0.00    +0.000 OA
ATOM     15  H   UNL     1       6.856   3.523  15.657  0.00  0.00    +0.000 HD
ENDBRANCH   3  14
TORSDOF 3
ENDMDL
MODEL 3
REMARK VINA RESULT:      -6.5      0.318      1.313
REMARK  Name = 
REMARK  3 active torsions:
REMARK  status: ('A' for Active; 'I' for Inactive)
REMARK    1  A    between atoms: C_2  and  C_3
REMARK    2  A    between atoms: N_6  and  O_7
REMARK    3  A    between atoms: N_6  and  C_8
REMARK                            x       y       z     vdW  Elec       q    Type
REMARK                         _______ _______ _______ _____ _____    ______ ____
ROOT
ATOM      1  O   UNL     1       8.115   4.471  17.062  0.00  0.00    +0.000 OA
ATOM      2  C   UNL     1       6.885   4.397  17.136  0.00  0.00    +0.000 C 
ATOM      3  N   UNL     1       6.245   4.607  18.354  0.00  0.00    +0.000 N 
ENDROOT
BRANCH   3   4
ATOM      4  C   UNL     1       4.893   4.476  18.746  0.00  0.00    +0.000 A 
ATOM      5  C   UNL     1       3.978   5.533  18.668  0.00  0.00    +0.000 A 
ATOM      6  C   UNL     1       2.682   5.403  19.180  0.00  0.00    +0.000 A 
ATOM      7  C   UNL     1       2.277   4.195  19.741  0.00  0.00    +0.000 A 
ATOM      8 CL   UNL     1       0.707   4.053  20.426  0.00  0.00    +0.000 Cl
ATOM      9  C   UNL     1       3.140   3.106  19.748  0.00  0.00    +0.000 A 
ATOM     10  C   UNL     1       4.436   3.243  19.240  0.00  0.00    +0.000 A 
ENDBRANCH   3   4
BRANCH   2  11
ATOM     11  C   UNL     1       6.083   4.196  15.892  0.00  0.00    +0.000 C 
ATOM     12  C   UNL     1       5.547   5.384  15.123  0.00  0.00    +0.000 C 
ATOM     13  C   UNL     1       6.674   4.574  14.551  0.00  0.00    +0.000 C 
ENDBRANCH   2  11
BRANCH   3  14
ATOM     14  O   UNL     1       7.119   5.108  19.363  0.00  0.00    +0.000 OA
ATOM     15  H   UNL     1       7.056   6.076  19.213  0.00  0.00    +0.000 HD
ENDBRANCH   3  14
TORSDOF 3
ENDMDL
MODEL 4
REMARK VINA RESULT:      -6.4      1.901      2.677
REMARK  Name = 
REMARK  3 active torsions:
REMARK  status: ('A' for Active; 'I' for Inactive)
REMARK    1  A    between atoms: C_2  and  C_3
REMARK    2  A    between atoms: N_6  and  O_7
REMARK    3  A    between atoms: N_6  and  C_8
REMARK                            x       y       z     vdW  Elec       q    Type
REMARK                         _______ _______ _______ _____ _____    ______ ____
ROOT
ATOM      1  O   UNL     1       7.387   5.507  15.683  0.00  0.00    +0.000 OA
ATOM      2  C   UNL     1       6.583   5.516  16.620  0.00  0.00    +0.000 C 
ATOM      3  N   UNL     1       5.669   4.476  16.766  0.00  0.00    +0.000 N 
ENDROOT
BRANCH   3   4
ATOM      4  C   UNL     1       4.585   4.287  17.653  0.00  0.00    +0.000 A 
ATOM      5  C   UNL     1       3.310   4.813  17.411  0.00  0.00    +0.000 A 
ATOM      6  C   UNL     1       2.295   4.711  18.369  0.00  0.00    +0.000 A 
ATOM      7  C   UNL     1       2.537   4.045  19.566  0.00  0.00    +0.000 A 
ATOM      8 CL   UNL     1       1.312   3.974  20.770  0.00  0.00    +0.000 Cl
ATOM      9  C   UNL     1       3.767   3.440  19.791  0.00  0.00    +0.000 A 
ATOM     10  C   UNL     1       4.781   3.548  18.832  0.00  0.00    +0.000 A 
ENDBRANCH   3   4
BRANCH   2  11
ATOM     11  C   UNL     1       6.673   6.587  17.657  0.00  0.00    +0.000 C 
ATOM     12  C   UNL     1       7.834   6.622  18.627  0.00  0.00    +0.000 C 
ATOM     13  C   UNL     1       7.739   7.654  17.541  0.00  0.00    +0.000 C 
ENDBRANCH   2  11
BRANCH   3  14
ATOM     14  O   UNL     1       5.929   3.380  15.892  0.00  0.00    +0.000 OA
ATOM     15  H   UNL     1       6.359   3.832  15.134  0.00  0.00    +0.000 HD
ENDBRANCH   3  14
TORSDOF 3
ENDMDL
MODEL 5
REMARK VINA RESULT:      -6.3      1.303      1.817
REMARK  Name = 
REMARK  3 active torsions:
REMARK  status: ('A' for Active; 'I' for Inactive)
REMARK    1  A    between atoms: C_2  and  C_3
REMARK    2  A    between atoms: N_6  and  O_7
REMARK    3  A    between atoms: N_6  and  C_8
REMARK                            x       y       z     vdW  Elec       q    Type
REMARK                         _______ _______ _______ _____ _____    ______ ____
ROOT
ATOM      1  O   UNL     1       7.909   4.729  17.285  0.00  0.00    +0.000 OA
ATOM      2  C   UNL     1       6.741   4.387  17.080  0.00  0.00    +0.000 C 
ATOM      3  N   UNL     1       5.828   4.354  18.130  0.00  0.00    +0.000 N 
ENDROOT
BRANCH   3   4
ATOM      4  C   UNL     1       4.491   3.903  18.207  0.00  0.00    +0.000 A 
ATOM      5  C   UNL     1       3.401   4.708  17.852  0.00  0.00    +0.000 A 
ATOM      6  C   UNL     1       2.087   4.273  18.057  0.00  0.00    +0.000 A 
ATOM      7  C   UNL     1       1.852   3.006  18.585  0.00  0.00    +0.000 A 
ATOM      8 CL   UNL     1       0.240   2.495  18.896  0.00  0.00    +0.000 Cl
ATOM      9  C   UNL     1       2.916   2.157  18.861  0.00  0.00    +0.000 A 
ATOM     10  C   UNL     1       4.228   2.600  18.659  0.00  0.00    +0.000 A 
ENDBRANCH   3   4
BRANCH   2  11
ATOM     11  C   UNL     1       6.285   4.121  15.682  0.00  0.00    +0.000 C 
ATOM     12  C   UNL     1       5.600   5.204  14.878  0.00  0.00    +0.000 C 
ATOM     13  C   UNL     1       6.997   4.785  14.524  0.00  0.00    +0.000 C 
ENDBRANCH   2  11
BRANCH   3  14
ATOM     14  O   UNL     1       6.333   4.946  19.325  0.00  0.00    +0.000 OA
ATOM     15  H   UNL     1       5.538   5.412  19.664  0.00  0.00    +0.000 HD
ENDBRANCH   3  14
TORSDOF 3
ENDMDL
MODEL 6
REMARK VINA RESULT:      -6.2      2.162      3.173
REMARK  Name = 
REMARK  3 active torsions:
REMARK  status: ('A' for Active; 'I' for Inactive)
REMARK    1  A    between atoms: C_2  and  C_3
REMARK    2  A    between atoms: N_6  and  O_7
REMARK    3  A    between atoms: N_6  and  C_8
REMARK                            x       y       z     vdW  Elec       q    Type
REMARK                         _______ _______ _______ _____ _____    ______ ____
ROOT
ATOM      1  O   UNL     1       7.694   6.563  16.226  0.00  0.00    +0.000 OA
ATOM      2  C   UNL     1       6.869   5.894  16.854  0.00  0.00    +0.000 C 
ATOM      3  N   UNL     1       5.560   5.787  16.393  0.00  0.00    +0.000 N 
ENDROOT
BRANCH   3   4
ATOM      4  C   UNL     1       4.404   5.198  16.955  0.00  0.00    +0.000 A 
ATOM      5  C   UNL     1       3.462   5.933  17.686  0.00  0.00    +0.000 A 
ATOM      6  C   UNL     1       2.396   5.296  18.331  0.00  0.00    +0.000 A 
ATOM      7  C   UNL     1       2.241   3.918  18.217  0.00  0.00    +0.000 A 
ATOM      8 CL   UNL     1       0.969   3.126  19.061  0.00  0.00    +0.000 Cl
ATOM      9  C   UNL     1       3.114   3.182  17.425  0.00  0.00    +0.000 A 
ATOM     10  C   UNL     1       4.181   3.822  16.786  0.00  0.00    +0.000 A 
ENDBRANCH   3   4
BRANCH   2  11
ATOM     11  C   UNL     1       7.311   5.108  18.045  0.00  0.00    +0.000 C 
ATOM     12  C   UNL     1       7.982   5.796  19.214  0.00  0.00    +0.000 C 
ATOM     13  C   UNL     1       6.583   5.271  19.362  0.00  0.00    +0.000 C 
ENDBRANCH   2  11
BRANCH   3  14
ATOM     14  O   UNL     1       5.386   6.321  15.083  0.00  0.00    +0.000 OA
ATOM     15  H   UNL     1       6.100   6.994  15.049  0.00  0.00    +0.000 HD
ENDBRANCH   3  14
TORSDOF 3
ENDMDL
MODEL 7
REMARK VINA RESULT:      -6.2      3.915      5.615
REMARK  Name = 
REMARK  3 active torsions:
REMARK  status: ('A' for Active; 'I' for Inactive)
REMARK    1  A    between atoms: C_2  and  C_3
REMARK    2  A    between atoms: N_6  and  O_7
REMARK    3  A    between atoms: N_6  and  C_8
REMARK                            x       y       z     vdW  Elec       q    Type
REMARK                         _______ _______ _______ _____ _____    ______ ____
ROOT
ATOM      1  O   UNL     1       0.282   2.597  19.015  0.00  0.00    +0.000 OA
ATOM      2  C   UNL     1       1.412   3.093  19.058  0.00  0.00    +0.000 C 
ATOM      3  N   UNL     1       1.859   3.902  18.018  0.00  0.00    +0.000 N 
ENDROOT
BRANCH   3   4
ATOM      4  C   UNL     1       3.116   4.494  17.754  0.00  0.00    +0.000 A 
ATOM      5  C   UNL     1       4.213   3.759  17.287  0.00  0.00    +0.000 A 
ATOM      6  C   UNL     1       5.473   4.353  17.153  0.00  0.00    +0.000 A 
ATOM      7  C   UNL     1       5.637   5.703  17.450  0.00  0.00    +0.000 A 
ATOM      8 CL   UNL     1       7.197   6.419  17.348  0.00  0.00    +0.000 Cl
ATOM      9  C   UNL     1       4.543   6.471  17.830  0.00  0.00    +0.000 A 
ATOM     10  C   UNL     1       3.287   5.871  17.966  0.00  0.00    +0.000 A 
ENDBRANCH   3   4
BRANCH   2  11
ATOM     11  C   UNL     1       2.248   2.914  20.283  0.00  0.00    +0.000 C 
ATOM     12  C   UNL     1       2.229   3.951  21.384  0.00  0.00    +0.000 C 
ATOM     13  C   UNL     1       1.582   2.615  21.607  0.00  0.00    +0.000 C 
ENDBRANCH   2  11
BRANCH   3  14
ATOM     14  O   UNL     1       0.830   4.237  17.091  0.00  0.00    +0.000 OA
ATOM     15  H   UNL     1       1.158   3.810  16.270  0.00  0.00    +0.000 HD
ENDBRANCH   3  14
TORSDOF 3
ENDMDL
MODEL 8
REMARK VINA RESULT:      -6.2      3.926      5.779
REMARK  Name = 
REMARK  3 active torsions:
REMARK  status: ('A' for Active; 'I' for Inactive)
REMARK    1  A    between atoms: C_2  and  C_3
REMARK    2  A    between atoms: N_6  and  O_7
REMARK    3  A    between atoms: N_6  and  C_8
REMARK                            x       y       z     vdW  Elec       q    Type
REMARK                         _______ _______ _______ _____ _____    ______ ____
ROOT
ATOM      1  O   UNL     1       0.252   2.516  18.979  0.00  0.00    +0.000 OA
ATOM      2  C   UNL     1       1.387   2.994  19.074  0.00  0.00    +0.000 C 
ATOM      3  N   UNL     1       1.885   3.816  18.068  0.00  0.00    +0.000 N 
ENDROOT
BRANCH   3   4
ATOM      4  C   UNL     1       3.158   4.394  17.863  0.00  0.00    +0.000 A 
ATOM      5  C   UNL     1       3.460   5.710  18.237  0.00  0.00    +0.000 A 
ATOM      6  C   UNL     1       4.691   6.287  17.908  0.00  0.00    +0.000 A 
ATOM      7  C   UNL     1       5.650   5.537  17.233  0.00  0.00    +0.000 A 
ATOM      8 CL   UNL     1       7.138   6.265  16.773  0.00  0.00    +0.000 Cl
ATOM      9  C   UNL     1       5.405   4.203  16.931  0.00  0.00    +0.000 A 
ATOM     10  C   UNL     1       4.171   3.632  17.258  0.00  0.00    +0.000 A 
ENDBRANCH   3   4
BRANCH   2  11
ATOM     11  C   UNL     1       2.173   2.779  20.326  0.00  0.00    +0.000 C 
ATOM     12  C   UNL     1       2.221   3.847  21.396  0.00  0.00    +0.000 C 
ATOM     13  C   UNL     1       1.451   2.582  21.640  0.00  0.00    +0.000 C 
ENDBRANCH   2  11
BRANCH   3  14
ATOM     14  O   UNL     1       0.896   4.184  17.110  0.00  0.00    +0.000 OA
ATOM     15  H   UNL     1       1.404   4.787  16.524  0.00  0.00    +0.000 HD
ENDBRANCH   3  14
TORSDOF 3
ENDMDL
MODEL 9
REMARK VINA RESULT:      -6.1      3.048      5.108
REMARK  Name = 
REMARK  3 active torsions:
REMARK  status: ('A' for Active; 'I' for Inactive)
REMARK    1  A    between atoms: C_2  and  C_3
REMARK    2  A    between atoms: N_6  and  O_7
REMARK    3  A    between atoms: N_6  and  C_8
REMARK                            x       y       z     vdW  Elec       q    Type
REMARK                         _______ _______ _______ _____ _____    ______ ____
ROOT
ATOM      1  O   UNL     1       3.219   2.162  21.706  0.00  0.00    +0.000 OA
ATOM      2  C   UNL     1       3.230   2.936  20.744  0.00  0.00    +0.000 C 
ATOM      3  N   UNL     1       4.324   2.965  19.884  0.00  0.00    +0.000 N 
ENDROOT
BRANCH   3   4
ATOM      4  C   UNL     1       4.650   3.808  18.797  0.00  0.00    +0.000 A 
ATOM      5  C   UNL     1       5.236   5.069  18.969  0.00  0.00    +0.000 A 
ATOM      6  C   UNL     1       5.431   5.926  17.880  0.00  0.00    +0.000 A 
ATOM      7  C   UNL     1       5.078   5.511  16.600  0.00  0.00    +0.000 A 
ATOM      8 CL   UNL     1       5.259   6.587  15.271  0.00  0.00    +0.000 Cl
ATOM      9  C   UNL     1       4.577   4.231  16.395  0.00  0.00    +0.000 A 
ATOM     10  C   UNL     1       4.379   3.380  17.488  0.00  0.00    +0.000 A 
ENDBRANCH   3   4
BRANCH   2  11
ATOM     11  C   UNL     1       2.017   3.754  20.442  0.00  0.00    +0.000 C 
ATOM     12  C   UNL     1       1.173   3.456  19.223  0.00  0.00    +0.000 C 
ATOM     13  C   UNL     1       0.643   3.138  20.590  0.00  0.00    +0.000 C 
ENDBRANCH   2  11
BRANCH   3  14
ATOM     14  O   UNL     1       5.244   1.902  20.118  0.00  0.00    +0.000 OA
ATOM     15  H   UNL     1       6.102   2.337  19.917  0.00  0.00    +0.000 HD
ENDBRANCH   3  14
TORSDOF 3
ENDMDL
