MODEL 1
REMARK VINA RESULT:      -6.8      0.000      0.000
REMARK  Name = 
REMARK  11 active torsions:
REMARK  status: ('A' for Active; 'I' for Inactive)
REMARK    1  A    between atoms: C_1  and  O_2
REMARK    2  A    between atoms: O_2  and  C_3
REMARK    3  A    between atoms: C_5  and  O_6
REMARK    4  A    between atoms: O_6  and  C_7
REMARK    5  A    between atoms: C_7  and  C_8
REMARK    6  A    between atoms: N_11  and  C_12
REMARK    7  A    between atoms: C_12  and  C_13
REMARK    8  A    between atoms: C_19  and  O_20
REMARK    9  A    between atoms: O_20  and  C_21
REMARK   10  A    between atoms: C_22  and  O_23
REMARK   11  A    between atoms: O_23  and  C_24
REMARK                            x       y       z     vdW  Elec       q    Type
REMARK                         _______ _______ _______ _____ _____    ______ ____
ROOT
ATOM      1  C   UNL     1       6.986   5.441  16.185  0.00  0.00    +0.000 A 
ATOM      2  C   UNL     1       6.001   4.812  16.971  0.00  0.00    +0.000 A 
ATOM      3  C   UNL     1       5.182   3.804  16.443  0.00  0.00    +0.000 A 
ATOM      4  C   UNL     1       5.347   3.427  15.118  0.00  0.00    +0.000 A 
ATOM      5  C   UNL     1       6.324   4.004  14.305  0.00  0.00    +0.000 A 
ATOM      6  C   UNL     1       7.167   5.032  14.828  0.00  0.00    +0.000 A 
ENDROOT
BRANCH   1   8
ATOM      7  C   UNL     1       7.282   7.481  17.503  0.00  0.00    +0.000 C 
ATOM      8  O   UNL     1       7.739   6.444  16.714  0.00  0.00    +0.000 OA
ENDBRANCH   1   8
BRANCH   5   9
ATOM      9  O   UNL     1       6.403   3.513  13.039  0.00  0.00    +0.000 OA
ATOM     10  C   UNL     1       5.380   3.221  12.162  0.00  0.00    +0.000 C 
ENDBRANCH   5   9
BRANCH   6  11
ATOM     11  O   UNL     1       8.089   5.590  13.994  0.00  0.00    +0.000 OA
ATOM     12  C   UNL     1       8.121   5.693  12.614  0.00  0.00    +0.000 C 
ENDBRANCH   6  11
BRANCH   3  13
ATOM     13  O   UNL     1       4.233   3.176  17.189  0.00  0.00    +0.000 OA
BRANCH  13  14
ATOM     14  C   UNL     1       4.114   3.258  18.564  0.00  0.00    +0.000 C 
BRANCH  14  15
ATOM     15  C   UNL     1       2.632   3.387  18.969  0.00  0.00    +0.000 C 
ATOM     16  C   UNL     1       1.816   4.152  17.909  0.00  0.00    +0.000 C 
ATOM     17  C   UNL     1       2.197   5.644  17.867  0.00  0.00    +0.000 C 
ATOM     18  N   UNL     1       1.997   6.268  19.195  0.00  0.00    +0.000 NA
ATOM     19  C   UNL     1       2.799   5.582  20.236  0.00  0.00    +0.000 C 
ATOM     20  C   UNL     1       2.436   4.092  20.324  0.00  0.00    +0.000 C 
BRANCH  18  21
ATOM     21  C   UNL     1       2.340   7.708  19.198  0.00  0.00    +0.000 C 
BRANCH  21  22
ATOM     22  C   UNL     1       1.919   8.438  17.904  0.00  0.00    +0.000 C 
ATOM     23  C   UNL     1       0.731   9.383  17.931  0.00  0.00    +0.000 C 
ATOM     24  C   UNL     1       2.155   9.938  18.003  0.00  0.00    +0.000 C 
ENDBRANCH  21  22
ENDBRANCH  18  21
ENDBRANCH  14  15
ENDBRANCH  13  14
ENDBRANCH   3  13
TORSDOF 8
ENDMDL
MODEL 2
REMARK VINA RESULT:      -6.8      1.604      3.492
REMARK  Name = 
REMARK  11 active torsions:
REMARK  status: ('A' for Active; 'I' for Inactive)
REMARK    1  A    between atoms: C_1  and  O_2
REMARK    2  A    between atoms: O_2  and  C_3
REMARK    3  A    between atoms: C_5  and  O_6
REMARK    4  A    between atoms: O_6  and  C_7
REMARK    5  A    between atoms: C_7  and  C_8
REMARK    6  A    between atoms: N_11  and  C_12
REMARK    7  A    between atoms: C_12  and  C_13
REMARK    8  A    between atoms: C_19  and  O_20
REMARK    9  A    between atoms: O_20  and  C_21
REMARK   10  A    between atoms: C_22  and  O_23
REMARK   11  A    between atoms: O_23  and  C_24
REMARK                            x       y       z     vdW  Elec       q    Type
REMARK                         _______ _______ _______ _____ _____    ______ ____
ROOT
ATOM      1  C   UNL     1       5.843   5.077  16.241  0.00  0.00    +0.000 A 
ATOM      2  C   UNL     1       4.814   4.142  16.466  0.00  0.00    +0.000 A 
ATOM      3  C   UNL     1       4.517   3.682  17.757  0.00  0.00    +0.000 A 
ATOM      4  C   UNL     1       5.260   4.156  18.828  0.00  0.00    +0.000 A 
ATOM      5  C   UNL     1       6.275   5.101  18.660  0.00  0.00    +0.000 A 
ATOM      6  C   UNL     1       6.588   5.580  17.351  0.00  0.00    +0.000 A 
ENDROOT
BRANCH   1   8
ATOM      7  C   UNL     1       6.497   4.658  13.921  0.00  0.00    +0.000 C 
ATOM      8  O   UNL     1       6.132   5.476  14.972  0.00  0.00    +0.000 OA
ENDBRANCH   1   8
BRANCH   5   9
ATOM      9  O   UNL     1       6.895   5.510  19.799  0.00  0.00    +0.000 OA
ATOM     10  C   UNL     1       8.223   5.386  20.150  0.00  0.00    +0.000 C 
ENDBRANCH   5   9
BRANCH   6  11
ATOM     11  O   UNL     1       7.604   6.480  17.225  0.00  0.00    +0.000 OA
ATOM     12  C   UNL     1       7.629   7.852  17.402  0.00  0.00    +0.000 C 
ENDBRANCH   6  11
BRANCH   3  13
ATOM     13  O   UNL     1       3.521   2.788  17.997  0.00  0.00    +0.000 OA
BRANCH  13  14
ATOM     14  C   UNL     1       3.462   1.928  19.078  0.00  0.00    +0.000 C 
BRANCH  14  15
ATOM     15  C   UNL     1       2.039   1.908  19.673  0.00  0.00    +0.000 C 
ATOM     16  C   UNL     1       1.053   2.727  18.818  0.00  0.00    +0.000 C 
ATOM     17  C   UNL     1       1.342   4.237  18.909  0.00  0.00    +0.000 C 
ATOM     18  N   UNL     1       1.279   4.693  20.317  0.00  0.00    +0.000 NA
ATOM     19  C   UNL     1       2.245   3.954  21.163  0.00  0.00    +0.000 C 
ATOM     20  C   UNL     1       1.980   2.442  21.115  0.00  0.00    +0.000 C 
BRANCH  18  21
ATOM     21  C   UNL     1       1.538   6.144  20.450  0.00  0.00    +0.000 C 
BRANCH  21  22
ATOM     22  C   UNL     1       2.685   6.646  19.544  0.00  0.00    +0.000 C 
ATOM     23  C   UNL     1       2.476   6.709  18.042  0.00  0.00    +0.000 C 
ATOM     24  C   UNL     1       2.342   7.976  18.889  0.00  0.00    +0.000 C 
ENDBRANCH  21  22
ENDBRANCH  18  21
ENDBRANCH  14  15
ENDBRANCH  13  14
ENDBRANCH   3  13
TORSDOF 8
ENDMDL
MODEL 3
REMARK VINA RESULT:      -6.7      0.893      1.110
REMARK  Name = 
REMARK  11 active torsions:
REMARK  status: ('A' for Active; 'I' for Inactive)
REMARK    1  A    between atoms: C_1  and  O_2
REMARK    2  A    between atoms: O_2  and  C_3
REMARK    3  A    between atoms: C_5  and  O_6
REMARK    4  A    between atoms: O_6  and  C_7
REMARK    5  A    between atoms: C_7  and  C_8
REMARK    6  A    between atoms: N_11  and  C_12
REMARK    7  A    between atoms: C_12  and  C_13
REMARK    8  A    between atoms: C_19  and  O_20
REMARK    9  A    between atoms: O_20  and  C_21
REMARK   10  A    between atoms: C_22  and  O_23
REMARK   11  A    between atoms: O_23  and  C_24
REMARK                            x       y       z     vdW  Elec       q    Type
REMARK                         _______ _______ _______ _____ _____    ______ ____
ROOT
ATOM      1  C   UNL     1       6.859   5.623  16.099  0.00  0.00    +0.000 A 
ATOM      2  C   UNL     1       5.769   5.161  16.862  0.00  0.00    +0.000 A 
ATOM      3  C   UNL     1       4.921   4.153  16.385  0.00  0.00    +0.000 A 
ATOM      4  C   UNL     1       5.160   3.608  15.131  0.00  0.00    +0.000 A 
ATOM      5  C   UNL     1       6.241   4.016  14.346  0.00  0.00    +0.000 A 
ATOM      6  C   UNL     1       7.116   5.041  14.820  0.00  0.00    +0.000 A 
ENDROOT
BRANCH   1   8
ATOM      7  C   UNL     1       7.552   7.220  17.819  0.00  0.00    +0.000 C 
ATOM      8  O   UNL     1       7.643   6.629  16.574  0.00  0.00    +0.000 OA
ENDBRANCH   1   8
BRANCH   5   9
ATOM      9  O   UNL     1       6.383   3.370  13.158  0.00  0.00    +0.000 OA
ATOM     10  C   UNL     1       5.454   3.203  12.151  0.00  0.00    +0.000 C 
ENDBRANCH   5   9
BRANCH   6  11
ATOM     11  O   UNL     1       8.142   5.431  14.011  0.00  0.00    +0.000 OA
ATOM     12  C   UNL     1       8.156   5.802  12.678  0.00  0.00    +0.000 C 
ENDBRANCH   6  11
BRANCH   3  13
ATOM     13  O   UNL     1       3.870   3.685  17.110  0.00  0.00    +0.000 OA
BRANCH  13  14
ATOM     14  C   UNL     1       3.668   2.365  17.466  0.00  0.00    +0.000 C 
BRANCH  14  15
ATOM     15  C   UNL     1       2.933   2.277  18.818  0.00  0.00    +0.000 C 
ATOM     16  C   UNL     1       1.522   2.892  18.740  0.00  0.00    +0.000 C 
ATOM     17  C   UNL     1       1.578   4.423  18.582  0.00  0.00    +0.000 C 
ATOM     18  N   UNL     1       2.325   5.033  19.706  0.00  0.00    +0.000 NA
ATOM     19  C   UNL     1       3.703   4.494  19.788  0.00  0.00    +0.000 C 
ATOM     20  C   UNL     1       3.693   2.968  19.965  0.00  0.00    +0.000 C 
BRANCH  18  21
ATOM     21  C   UNL     1       2.394   6.508  19.603  0.00  0.00    +0.000 C 
BRANCH  21  22
ATOM     22  C   UNL     1       2.207   7.028  18.160  0.00  0.00    +0.000 C 
ATOM     23  C   UNL     1       2.133   8.523  17.909  0.00  0.00    +0.000 C 
ATOM     24  C   UNL     1       3.441   7.768  17.666  0.00  0.00    +0.000 C 
ENDBRANCH  21  22
ENDBRANCH  18  21
ENDBRANCH  14  15
ENDBRANCH  13  14
ENDBRANCH   3  13
TORSDOF 8
ENDMDL
MODEL 4
REMARK VINA RESULT:      -6.6      0.845      2.867
REMARK  Name = 
REMARK  11 active torsions:
REMARK  status: ('A' for Active; 'I' for Inactive)
REMARK    1  A    between atoms: C_1  and  O_2
REMARK    2  A    between atoms: O_2  and  C_3
REMARK    3  A    between atoms: C_5  and  O_6
REMARK    4  A    between atoms: O_6  and  C_7
REMARK    5  A    between atoms: C_7  and  C_8
REMARK    6  A    between atoms: N_11  and  C_12
REMARK    7  A    between atoms: C_12  and  C_13
REMARK    8  A    between atoms: C_19  and  O_20
REMARK    9  A    between atoms: O_20  and  C_21
REMARK   10  A    between atoms: C_22  and  O_23
REMARK   11  A    between atoms: O_23  and  C_24
REMARK                            x       y       z     vdW  Elec       q    Type
REMARK                         _______ _______ _______ _____ _____    ______ ____
ROOT
ATOM      1  C   UNL     1       6.273   3.907  14.505  0.00  0.00    +0.000 A 
ATOM      2  C   UNL     1       5.352   3.451  15.468  0.00  0.00    +0.000 A 
ATOM      3  C   UNL     1       5.259   4.054  16.730  0.00  0.00    +0.000 A 
ATOM      4  C   UNL     1       6.097   5.118  17.031  0.00  0.00    +0.000 A 
ATOM      5  C   UNL     1       7.010   5.622  16.102  0.00  0.00    +0.000 A 
ATOM      6  C   UNL     1       7.116   5.018  14.812  0.00  0.00    +0.000 A 
ENDROOT
BRANCH   1   8
ATOM      7  C   UNL     1       5.459   3.353  12.265  0.00  0.00    +0.000 C 
ATOM      8  O   UNL     1       6.367   3.276  13.302  0.00  0.00    +0.000 OA
ENDBRANCH   1   8
BRANCH   5   9
ATOM      9  O   UNL     1       7.740   6.693  16.515  0.00  0.00    +0.000 OA
ATOM     10  C   UNL     1       7.552   7.488  17.626  0.00  0.00    +0.000 C 
ENDBRANCH   5   9
BRANCH   6  11
ATOM     11  O   UNL     1       8.040   5.521  13.944  0.00  0.00    +0.000 OA
ATOM     12  C   UNL     1       7.959   5.793  12.590  0.00  0.00    +0.000 C 
ENDBRANCH   6  11
BRANCH   3  13
ATOM     13  O   UNL     1       4.369   3.636  17.670  0.00  0.00    +0.000 OA
BRANCH  13  14
ATOM     14  C   UNL     1       3.738   2.406  17.680  0.00  0.00    +0.000 C 
BRANCH  14  15
ATOM     15  C   UNL     1       2.697   2.345  18.816  0.00  0.00    +0.000 C 
ATOM     16  C   UNL     1       1.384   3.050  18.425  0.00  0.00    +0.000 C 
ATOM     17  C   UNL     1       1.566   4.577  18.330  0.00  0.00    +0.000 C 
ATOM     18  N   UNL     1       2.058   5.121  19.617  0.00  0.00    +0.000 NA
ATOM     19  C   UNL     1       3.342   4.494  20.007  0.00  0.00    +0.000 C 
ATOM     20  C   UNL     1       3.201   2.970  20.131  0.00  0.00    +0.000 C 
BRANCH  18  21
ATOM     21  C   UNL     1       2.235   6.590  19.576  0.00  0.00    +0.000 C 
BRANCH  21  22
ATOM     22  C   UNL     1       2.153   7.176  18.149  0.00  0.00    +0.000 C 
ATOM     23  C   UNL     1       2.412   8.656  17.934  0.00  0.00    +0.000 C 
ATOM     24  C   UNL     1       3.515   7.635  17.651  0.00  0.00    +0.000 C 
ENDBRANCH  21  22
ENDBRANCH  18  21
ENDBRANCH  14  15
ENDBRANCH  13  14
ENDBRANCH   3  13
TORSDOF 8
ENDMDL
MODEL 5
REMARK VINA RESULT:      -6.5      1.702      2.517
REMARK  Name = 
REMARK  11 active torsions:
REMARK  status: ('A' for Active; 'I' for Inactive)
REMARK    1  A    between atoms: C_1  and  O_2
REMARK    2  A    between atoms: O_2  and  C_3
REMARK    3  A    between atoms: C_5  and  O_6
REMARK    4  A    between atoms: O_6  and  C_7
REMARK    5  A    between atoms: C_7  and  C_8
REMARK    6  A    between atoms: N_11  and  C_12
REMARK    7  A    between atoms: C_12  and  C_13
REMARK    8  A    between atoms: C_19  and  O_20
REMARK    9  A    between atoms: O_20  and  C_21
REMARK   10  A    between atoms: C_22  and  O_23
REMARK   11  A    between atoms: O_23  and  C_24
REMARK                            x       y       z     vdW  Elec       q    Type
REMARK                         _______ _______ _______ _____ _____    ______ ____
ROOT
ATOM      1  C   UNL     1       6.430   5.354  18.623  0.00  0.00    +0.000 A 
ATOM      2  C   UNL     1       5.435   4.376  18.813  0.00  0.00    +0.000 A 
ATOM      3  C   UNL     1       4.709   3.855  17.733  0.00  0.00    +0.000 A 
ATOM      4  C   UNL     1       4.976   4.322  16.454  0.00  0.00    +0.000 A 
ATOM      5  C   UNL     1       5.968   5.275  16.211  0.00  0.00    +0.000 A 
ATOM      6  C   UNL     1       6.718   5.813  17.301  0.00  0.00    +0.000 A 
ENDROOT
BRANCH   1   8
ATOM      7  C   UNL     1       8.345   5.493  20.140  0.00  0.00    +0.000 C 
ATOM      8  O   UNL     1       7.092   5.868  19.696  0.00  0.00    +0.000 OA
ENDBRANCH   1   8
BRANCH   5   9
ATOM      9  O   UNL     1       6.153   5.613  14.906  0.00  0.00    +0.000 OA
ATOM     10  C   UNL     1       6.795   4.901  13.914  0.00  0.00    +0.000 C 
ENDBRANCH   5   9
BRANCH   6  11
ATOM     11  O   UNL     1       7.658   6.761  17.025  0.00  0.00    +0.000 OA
ATOM     12  C   UNL     1       7.756   8.084  17.420  0.00  0.00    +0.000 C 
ENDBRANCH   6  11
BRANCH   3  13
ATOM     13  O   UNL     1       3.752   2.903  17.895  0.00  0.00    +0.000 OA
BRANCH  13  14
ATOM     14  C   UNL     1       3.165   2.555  19.097  0.00  0.00    +0.000 C 
BRANCH  14  15
ATOM     15  C   UNL     1       1.696   3.023  19.135  0.00  0.00    +0.000 C 
ATOM     16  C   UNL     1       1.429   4.143  18.112  0.00  0.00    +0.000 C 
ATOM     17  C   UNL     1       2.123   5.458  18.516  0.00  0.00    +0.000 C 
ATOM     18  N   UNL     1       1.671   5.892  19.858  0.00  0.00    +0.000 NA
ATOM     19  C   UNL     1       1.949   4.853  20.878  0.00  0.00    +0.000 C 
ATOM     20  C   UNL     1       1.259   3.528  20.522  0.00  0.00    +0.000 C 
BRANCH  18  21
ATOM     21  C   UNL     1       2.304   7.161  20.283  0.00  0.00    +0.000 C 
BRANCH  21  22
ATOM     22  C   UNL     1       1.292   8.313  20.475  0.00  0.00    +0.000 C 
ATOM     23  C   UNL     1       0.062   8.090  21.336  0.00  0.00    +0.000 C 
ATOM     24  C   UNL     1       1.280   8.815  21.911  0.00  0.00    +0.000 C 
ENDBRANCH  21  22
ENDBRANCH  18  21
ENDBRANCH  14  15
ENDBRANCH  13  14
ENDBRANCH   3  13
TORSDOF 8
ENDMDL
MODEL 6
REMARK VINA RESULT:      -6.4      3.128      6.412
REMARK  Name = 
REMARK  11 active torsions:
REMARK  status: ('A' for Active; 'I' for Inactive)
REMARK    1  A    between atoms: C_1  and  O_2
REMARK    2  A    between atoms: O_2  and  C_3
REMARK    3  A    between atoms: C_5  and  O_6
REMARK    4  A    between atoms: O_6  and  C_7
REMARK    5  A    between atoms: C_7  and  C_8
REMARK    6  A    between atoms: N_11  and  C_12
REMARK    7  A    between atoms: C_12  and  C_13
REMARK    8  A    between atoms: C_19  and  O_20
REMARK    9  A    between atoms: O_20  and  C_21
REMARK   10  A    between atoms: C_22  and  O_23
REMARK   11  A    between atoms: O_23  and  C_24
REMARK                            x       y       z     vdW  Elec       q    Type
REMARK                         _______ _______ _______ _____ _____    ______ ____
ROOT
ATOM      1  C   UNL     1       1.708   4.288  19.913  0.00  0.00    +0.000 A 
ATOM      2  C   UNL     1       1.556   5.597  20.412  0.00  0.00    +0.000 A 
ATOM      3  C   UNL     1       2.227   6.681  19.830  0.00  0.00    +0.000 A 
ATOM      4  C   UNL     1       3.061   6.454  18.745  0.00  0.00    +0.000 A 
ATOM      5  C   UNL     1       3.227   5.179  18.198  0.00  0.00    +0.000 A 
ATOM      6  C   UNL     1       2.548   4.064  18.780  0.00  0.00    +0.000 A 
ENDROOT
BRANCH   1   8
ATOM      7  C   UNL     1       1.470   2.617  21.684  0.00  0.00    +0.000 C 
ATOM      8  O   UNL     1       1.073   3.250  20.523  0.00  0.00    +0.000 OA
ENDBRANCH   1   8
BRANCH   5   9
ATOM      9  O   UNL     1       4.040   5.105  17.111  0.00  0.00    +0.000 OA
ATOM     10  C   UNL     1       4.852   6.082  16.574  0.00  0.00    +0.000 C 
ENDBRANCH   5   9
BRANCH   6  11
ATOM     11  O   UNL     1       2.759   2.832  18.235  0.00  0.00    +0.000 OA
ATOM     12  C   UNL     1       3.598   1.801  18.621  0.00  0.00    +0.000 C 
ENDBRANCH   6  11
BRANCH   3  13
ATOM     13  O   UNL     1       2.086   7.953  20.291  0.00  0.00    +0.000 OA
BRANCH  13  14
ATOM     14  C   UNL     1       1.603   9.020  19.556  0.00  0.00    +0.000 C 
BRANCH  14  15
ATOM     15  C   UNL     1       0.872  10.020  20.475  0.00  0.00    +0.000 C 
ATOM     16  C   UNL     1      -0.639   9.728  20.547  0.00  0.00    +0.000 C 
ATOM     17  C   UNL     1      -1.343  10.048  19.215  0.00  0.00    +0.000 C 
ATOM     18  N   UNL     1      -1.127  11.465  18.842  0.00  0.00    +0.000 NA
ATOM     19  C   UNL     1       0.317  11.773  18.724  0.00  0.00    +0.000 C 
ATOM     20  C   UNL     1       1.056  11.485  20.039  0.00  0.00    +0.000 C 
BRANCH  18  21
ATOM     21  C   UNL     1      -1.798  11.822  17.572  0.00  0.00    +0.000 C 
BRANCH  21  22
ATOM     22  C   UNL     1      -2.672  10.682  17.002  0.00  0.00    +0.000 C 
ATOM     23  C   UNL     1      -4.068  10.994  16.495  0.00  0.00    +0.000 C 
ATOM     24  C   UNL     1      -2.908  10.849  15.508  0.00  0.00    +0.000 C 
ENDBRANCH  21  22
ENDBRANCH  18  21
ENDBRANCH  14  15
ENDBRANCH  13  14
ENDBRANCH   3  13
TORSDOF 8
ENDMDL
MODEL 7
REMARK VINA RESULT:      -6.4      1.714      3.510
REMARK  Name = 
REMARK  11 active torsions:
REMARK  status: ('A' for Active; 'I' for Inactive)
REMARK    1  A    between atoms: C_1  and  O_2
REMARK    2  A    between atoms: O_2  and  C_3
REMARK    3  A    between atoms: C_5  and  O_6
REMARK    4  A    between atoms: O_6  and  C_7
REMARK    5  A    between atoms: C_7  and  C_8
REMARK    6  A    between atoms: N_11  and  C_12
REMARK    7  A    between atoms: C_12  and  C_13
REMARK    8  A    between atoms: C_19  and  O_20
REMARK    9  A    between atoms: O_20  and  C_21
REMARK   10  A    between atoms: C_22  and  O_23
REMARK   11  A    between atoms: O_23  and  C_24
REMARK                            x       y       z     vdW  Elec       q    Type
REMARK                         _______ _______ _______ _____ _____    ______ ____
ROOT
ATOM      1  C   UNL     1       5.993   4.755  16.089  0.00  0.00    +0.000 A 
ATOM      2  C   UNL     1       5.006   3.783  16.342  0.00  0.00    +0.000 A 
ATOM      3  C   UNL     1       4.675   3.403  17.650  0.00  0.00    +0.000 A 
ATOM      4  C   UNL     1       5.342   3.996  18.712  0.00  0.00    +0.000 A 
ATOM      5  C   UNL     1       6.312   4.982  18.515  0.00  0.00    +0.000 A 
ATOM      6  C   UNL     1       6.658   5.380  17.187  0.00  0.00    +0.000 A 
ENDROOT
BRANCH   1   8
ATOM      7  C   UNL     1       6.216   4.248  13.705  0.00  0.00    +0.000 C 
ATOM      8  O   UNL     1       6.318   5.076  14.806  0.00  0.00    +0.000 OA
ENDBRANCH   1   8
BRANCH   5   9
ATOM      9  O   UNL     1       6.856   5.508  19.644  0.00  0.00    +0.000 OA
ATOM     10  C   UNL     1       8.146   5.384  20.119  0.00  0.00    +0.000 C 
ENDBRANCH   5   9
BRANCH   6  11
ATOM     11  O   UNL     1       7.630   6.324  17.036  0.00  0.00    +0.000 OA
ATOM     12  C   UNL     1       7.606   7.693  17.241  0.00  0.00    +0.000 C 
ENDBRANCH   6  11
BRANCH   3  13
ATOM     13  O   UNL     1       3.718   2.474  17.915  0.00  0.00    +0.000 OA
BRANCH  13  14
ATOM     14  C   UNL     1       3.022   2.361  19.104  0.00  0.00    +0.000 C 
BRANCH  14  15
ATOM     15  C   UNL     1       1.560   2.813  18.917  0.00  0.00    +0.000 C 
ATOM     16  C   UNL     1       1.440   3.935  17.868  0.00  0.00    +0.000 C 
ATOM     17  C   UNL     1       2.048   5.255  18.378  0.00  0.00    +0.000 C 
ATOM     18  N   UNL     1       1.390   5.677  19.636  0.00  0.00    +0.000 NA
ATOM     19  C   UNL     1       1.519   4.636  20.683  0.00  0.00    +0.000 C 
ATOM     20  C   UNL     1       0.908   3.305  20.222  0.00  0.00    +0.000 C 
BRANCH  18  21
ATOM     21  C   UNL     1       1.935   6.951  20.157  0.00  0.00    +0.000 C 
BRANCH  21  22
ATOM     22  C   UNL     1       1.197   7.462  21.416  0.00  0.00    +0.000 C 
ATOM     23  C   UNL     1       1.410   8.892  21.876  0.00  0.00    +0.000 C 
ATOM     24  C   UNL     1       0.164   8.523  21.069  0.00  0.00    +0.000 C 
ENDBRANCH  21  22
ENDBRANCH  18  21
ENDBRANCH  14  15
ENDBRANCH  13  14
ENDBRANCH   3  13
TORSDOF 8
ENDMDL
MODEL 8
REMARK VINA RESULT:      -6.3      1.339      3.045
REMARK  Name = 
REMARK  11 active torsions:
REMARK  status: ('A' for Active; 'I' for Inactive)
REMARK    1  A    between atoms: C_1  and  O_2
REMARK    2  A    between atoms: O_2  and  C_3
REMARK    3  A    between atoms: C_5  and  O_6
REMARK    4  A    between atoms: O_6  and  C_7
REMARK    5  A    between atoms: C_7  and  C_8
REMARK    6  A    between atoms: N_11  and  C_12
REMARK    7  A    between atoms: C_12  and  C_13
REMARK    8  A    between atoms: C_19  and  O_20
REMARK    9  A    between atoms: O_20  and  C_21
REMARK   10  A    between atoms: C_22  and  O_23
REMARK   11  A    between atoms: O_23  and  C_24
REMARK                            x       y       z     vdW  Elec       q    Type
REMARK                         _______ _______ _______ _____ _____    ______ ____
ROOT
ATOM      1  C   UNL     1       6.105   3.935  14.664  0.00  0.00    +0.000 A 
ATOM      2  C   UNL     1       5.231   3.308  15.573  0.00  0.00    +0.000 A 
ATOM      3  C   UNL     1       5.219   3.656  16.930  0.00  0.00    +0.000 A 
ATOM      4  C   UNL     1       6.092   4.635  17.383  0.00  0.00    +0.000 A 
ATOM      5  C   UNL     1       6.962   5.302  16.517  0.00  0.00    +0.000 A 
ATOM      6  C   UNL     1       6.985   4.959  15.130  0.00  0.00    +0.000 A 
ENDROOT
BRANCH   1   8
ATOM      7  C   UNL     1       5.043   3.544  12.495  0.00  0.00    +0.000 C 
ATOM      8  O   UNL     1       6.120   3.548  13.359  0.00  0.00    +0.000 OA
ENDBRANCH   1   8
BRANCH   5   9
ATOM      9  O   UNL     1       7.734   6.267  17.085  0.00  0.00    +0.000 OA
ATOM     10  C   UNL     1       7.403   7.573  17.381  0.00  0.00    +0.000 C 
ENDBRANCH   5   9
BRANCH   6  11
ATOM     11  O   UNL     1       7.868   5.613  14.324  0.00  0.00    +0.000 OA
ATOM     12  C   UNL     1       8.216   5.404  13.001  0.00  0.00    +0.000 C 
ENDBRANCH   6  11
BRANCH   3  13
ATOM     13  O   UNL     1       4.376   3.070  17.822  0.00  0.00    +0.000 OA
BRANCH  13  14
ATOM     14  C   UNL     1       3.816   3.694  18.922  0.00  0.00    +0.000 C 
BRANCH  14  15
ATOM     15  C   UNL     1       2.306   3.918  18.703  0.00  0.00    +0.000 C 
ATOM     16  C   UNL     1       2.031   5.202  17.898  0.00  0.00    +0.000 C 
ATOM     17  C   UNL     1       2.358   6.466  18.716  0.00  0.00    +0.000 C 
ATOM     18  N   UNL     1       1.573   6.488  19.971  0.00  0.00    +0.000 NA
ATOM     19  C   UNL     1       1.842   5.285  20.793  0.00  0.00    +0.000 C 
ATOM     20  C   UNL     1       1.512   4.000  20.019  0.00  0.00    +0.000 C 
BRANCH  18  21
ATOM     21  C   UNL     1       1.846   7.695  20.785  0.00  0.00    +0.000 C 
BRANCH  21  22
ATOM     22  C   UNL     1       0.575   8.309  21.412  0.00  0.00    +0.000 C 
ATOM     23  C   UNL     1       0.681   9.603  22.197  0.00  0.00    +0.000 C 
ATOM     24  C   UNL     1       0.198   9.624  20.746  0.00  0.00    +0.000 C 
ENDBRANCH  21  22
ENDBRANCH  18  21
ENDBRANCH  14  15
ENDBRANCH  13  14
ENDBRANCH   3  13
TORSDOF 8
ENDMDL
MODEL 9
REMARK VINA RESULT:      -6.3      2.928      5.437
REMARK  Name = 
REMARK  11 active torsions:
REMARK  status: ('A' for Active; 'I' for Inactive)
REMARK    1  A    between atoms: C_1  and  O_2
REMARK    2  A    between atoms: O_2  and  C_3
REMARK    3  A    between atoms: C_5  and  O_6
REMARK    4  A    between atoms: O_6  and  C_7
REMARK    5  A    between atoms: C_7  and  C_8
REMARK    6  A    between atoms: N_11  and  C_12
REMARK    7  A    between atoms: C_12  and  C_13
REMARK    8  A    between atoms: C_19  and  O_20
REMARK    9  A    between atoms: O_20  and  C_21
REMARK   10  A    between atoms: C_22  and  O_23
REMARK   11  A    between atoms: O_23  and  C_24
REMARK                            x       y       z     vdW  Elec       q    Type
REMARK                         _______ _______ _______ _____ _____    ______ ____
ROOT
ATOM      1  C   UNL     1       3.439   4.296  17.402  0.00  0.00    +0.000 A 
ATOM      2  C   UNL     1       2.475   5.158  17.959  0.00  0.00    +0.000 A 
ATOM      3  C   UNL     1       2.707   6.536  18.071  0.00  0.00    +0.000 A 
ATOM      4  C   UNL     1       3.915   7.053  17.628  0.00  0.00    +0.000 A 
ATOM      5  C   UNL     1       4.894   6.244  17.046  0.00  0.00    +0.000 A 
ATOM      6  C   UNL     1       4.672   4.838  16.924  0.00  0.00    +0.000 A 
ENDROOT
BRANCH   1   8
ATOM      7  C   UNL     1       3.375   2.048  18.366  0.00  0.00    +0.000 C 
ATOM      8  O   UNL     1       3.200   2.957  17.341  0.00  0.00    +0.000 OA
ENDBRANCH   1   8
BRANCH   5   9
ATOM      9  O   UNL     1       6.013   6.887  16.618  0.00  0.00    +0.000 OA
ATOM     10  C   UNL     1       7.078   7.354  17.362  0.00  0.00    +0.000 C 
ENDBRANCH   5   9
BRANCH   6  11
ATOM     11  O   UNL     1       5.663   4.079  16.378  0.00  0.00    +0.000 OA
ATOM     12  C   UNL     1       6.070   3.926  15.064  0.00  0.00    +0.000 C 
ENDBRANCH   6  11
BRANCH   3  13
ATOM     13  O   UNL     1       1.785   7.386  18.597  0.00  0.00    +0.000 OA
BRANCH  13  14
ATOM     14  C   UNL     1       2.042   8.673  19.033  0.00  0.00    +0.000 C 
BRANCH  14  15
ATOM     15  C   UNL     1       1.560   9.701  17.990  0.00  0.00    +0.000 C 
ATOM     16  C   UNL     1       1.905  11.143  18.410  0.00  0.00    +0.000 C 
ATOM     17  C   UNL     1       1.066  11.598  19.619  0.00  0.00    +0.000 C 
ATOM     18  N   UNL     1      -0.380  11.501  19.313  0.00  0.00    +0.000 NA
ATOM     19  C   UNL     1      -0.757  10.117  18.943  0.00  0.00    +0.000 C 
ATOM     20  C   UNL     1       0.044   9.629  17.727  0.00  0.00    +0.000 C 
BRANCH  18  21
ATOM     21  C   UNL     1      -1.226  11.941  20.445  0.00  0.00    +0.000 C 
BRANCH  21  22
ATOM     22  C   UNL     1      -0.473  11.974  21.794  0.00  0.00    +0.000 C 
ATOM     23  C   UNL     1      -1.191  12.465  23.038  0.00  0.00    +0.000 C 
ATOM     24  C   UNL     1      -1.041  10.964  22.780  0.00  0.00    +0.000 C 
ENDBRANCH  21  22
ENDBRANCH  18  21
ENDBRANCH  14  15
ENDBRANCH  13  14
ENDBRANCH   3  13
TORSDOF 8
ENDMDL
