MODEL 1
REMARK VINA RESULT:      -6.5      0.000      0.000
REMARK  Name = 
REMARK  10 active torsions:
REMARK  status: ('A' for Active; 'I' for Inactive)
REMARK    1  A    between atoms: C_1  and  C_2
REMARK    2  A    between atoms: C_4  and  C_5
REMARK    3  A    between atoms: N_6  and  C_7
REMARK    4  A    between atoms: C_12  and  C_14
REMARK    5  A    between atoms: C_14  and  C_15
REMARK    6  A    between atoms: C_15  and  O_16
REMARK    7  A    between atoms: O_16  and  C_17
REMARK    8  A    between atoms: C_17  and  C_18
REMARK    9  A    between atoms: C_18  and  C_19
REMARK   10  A    between atoms: C_18  and  C_20
REMARK                            x       y       z     vdW  Elec       q    Type
REMARK                         _______ _______ _______ _____ _____    ______ ____
ROOT
ATOM      1  C   UNL     1       2.817   5.884  19.923  0.00  0.00    +0.000 C 
ATOM      2  C   UNL     1       2.225   7.116  19.189  0.00  0.00    +0.000 C 
ATOM      3  C   UNL     1       2.679   7.251  17.725  0.00  0.00    +0.000 C 
ATOM      4  C   UNL     1       4.187   7.081  17.564  0.00  0.00    +0.000 C 
ATOM      5  N   UNL     1       4.660   5.880  18.238  0.00  0.00    +0.000 N 
ATOM      6  C   UNL     1       5.211   4.758  17.619  0.00  0.00    +0.000 C 
ATOM      7  O   UNL     1       5.614   3.796  18.265  0.00  0.00    +0.000 OA
ATOM      8  C   UNL     1       4.340   5.815  19.670  0.00  0.00    +0.000 C 
ENDROOT
BRANCH   1  14
ATOM      9  C   UNL     1       2.546   2.246  17.054  0.00  0.00    +0.000 C 
ATOM     10  C   UNL     1       2.219   2.985  18.288  0.00  0.00    +0.000 A 
ATOM     11  N   UNL     1       2.279   2.424  19.532  0.00  0.00    +0.000 NA
ATOM     12  C   UNL     1       2.188   3.461  20.341  0.00  0.00    +0.000 A 
ATOM     13  C   UNL     1       2.203   3.425  21.822  0.00  0.00    +0.000 C 
ATOM     14  N   UNL     1       2.201   4.606  19.573  0.00  0.00    +0.000 N 
ATOM     15  N   UNL     1       1.995   4.299  18.279  0.00  0.00    +0.000 NA
ENDBRANCH   1  14
BRANCH   6  16
ATOM     16  C   UNL     1       5.298   4.769  16.099  0.00  0.00    +0.000 C 
BRANCH  16  17
ATOM     17  C   UNL     1       6.518   4.001  15.608  0.00  0.00    +0.000 C 
BRANCH  17  18
ATOM     18  O   UNL     1       6.641   4.139  14.185  0.00  0.00    +0.000 OA
BRANCH  18  19
ATOM     19  C   UNL     1       5.378   3.939  13.536  0.00  0.00    +0.000 C 
BRANCH  19  20
ATOM     20  C   UNL     1       5.549   3.041  12.302  0.00  0.00    +0.000 C 
ATOM     21  C   UNL     1       4.412   3.245  11.299  0.00  0.00    +0.000 C 
ATOM     22  C   UNL     1       6.896   3.303  11.628  0.00  0.00    +0.000 C 
ENDBRANCH  19  20
ENDBRANCH  18  19
ENDBRANCH  17  18
ENDBRANCH  16  17
ENDBRANCH   6  16
TORSDOF 6
ENDMDL
MODEL 2
REMARK VINA RESULT:      -6.4      1.179      1.285
REMARK  Name = 
REMARK  10 active torsions:
REMARK  status: ('A' for Active; 'I' for Inactive)
REMARK    1  A    between atoms: C_1  and  C_2
REMARK    2  A    between atoms: C_4  and  C_5
REMARK    3  A    between atoms: N_6  and  C_7
REMARK    4  A    between atoms: C_12  and  C_14
REMARK    5  A    between atoms: C_14  and  C_15
REMARK    6  A    between atoms: C_15  and  O_16
REMARK    7  A    between atoms: O_16  and  C_17
REMARK    8  A    between atoms: C_17  and  C_18
REMARK    9  A    between atoms: C_18  and  C_19
REMARK   10  A    between atoms: C_18  and  C_20
REMARK                            x       y       z     vdW  Elec       q    Type
REMARK                         _______ _______ _______ _____ _____    ______ ____
ROOT
ATOM      1  C   UNL     1       3.756   5.433  19.512  0.00  0.00    +0.000 C 
ATOM      2  C   UNL     1       3.032   6.762  19.172  0.00  0.00    +0.000 C 
ATOM      3  C   UNL     1       3.169   7.192  17.701  0.00  0.00    +0.000 C 
ATOM      4  C   UNL     1       4.608   7.109  17.201  0.00  0.00    +0.000 C 
ATOM      5  N   UNL     1       5.204   5.817  17.513  0.00  0.00    +0.000 N 
ATOM      6  C   UNL     1       5.604   4.855  16.586  0.00  0.00    +0.000 C 
ATOM      7  O   UNL     1       6.128   3.802  16.934  0.00  0.00    +0.000 OA
ATOM      8  C   UNL     1       5.191   5.466  18.939  0.00  0.00    +0.000 C 
ENDROOT
BRANCH   1  14
ATOM      9  C   UNL     1       3.935   0.928  18.410  0.00  0.00    +0.000 C 
ATOM     10  C   UNL     1       3.234   2.198  18.673  0.00  0.00    +0.000 A 
ATOM     11  N   UNL     1       2.151   2.296  19.501  0.00  0.00    +0.000 NA
ATOM     12  C   UNL     1       2.012   3.596  19.672  0.00  0.00    +0.000 A 
ATOM     13  C   UNL     1       0.979   4.269  20.493  0.00  0.00    +0.000 C 
ATOM     14  N   UNL     1       3.072   4.226  19.054  0.00  0.00    +0.000 N 
ATOM     15  N   UNL     1       3.712   3.365  18.242  0.00  0.00    +0.000 NA
ENDBRANCH   1  14
BRANCH   6  16
ATOM     16  C   UNL     1       5.370   5.162  15.113  0.00  0.00    +0.000 C 
BRANCH  16  17
ATOM     17  C   UNL     1       6.649   4.999  14.303  0.00  0.00    +0.000 C 
BRANCH  17  18
ATOM     18  O   UNL     1       6.700   3.683  13.733  0.00  0.00    +0.000 OA
BRANCH  18  19
ATOM     19  C   UNL     1       6.427   3.720  12.326  0.00  0.00    +0.000 C 
BRANCH  19  20
ATOM     20  C   UNL     1       5.343   2.693  11.966  0.00  0.00    +0.000 C 
ATOM     21  C   UNL     1       4.197   3.339  11.186  0.00  0.00    +0.000 C 
ATOM     22  C   UNL     1       5.942   1.539  11.160  0.00  0.00    +0.000 C 
ENDBRANCH  19  20
ENDBRANCH  18  19
ENDBRANCH  17  18
ENDBRANCH  16  17
ENDBRANCH   6  16
TORSDOF 6
ENDMDL
MODEL 3
REMARK VINA RESULT:      -6.4      2.526      6.244
REMARK  Name = 
REMARK  10 active torsions:
REMARK  status: ('A' for Active; 'I' for Inactive)
REMARK    1  A    between atoms: C_1  and  C_2
REMARK    2  A    between atoms: C_4  and  C_5
REMARK    3  A    between atoms: N_6  and  C_7
REMARK    4  A    between atoms: C_12  and  C_14
REMARK    5  A    between atoms: C_14  and  C_15
REMARK    6  A    between atoms: C_15  and  O_16
REMARK    7  A    between atoms: O_16  and  C_17
REMARK    8  A    between atoms: C_17  and  C_18
REMARK    9  A    between atoms: C_18  and  C_19
REMARK   10  A    between atoms: C_18  and  C_20
REMARK                            x       y       z     vdW  Elec       q    Type
REMARK                         _______ _______ _______ _____ _____    ______ ____
ROOT
ATOM      1  C   UNL     1       7.188   5.406  15.939  0.00  0.00    +0.000 C 
ATOM      2  C   UNL     1       6.912   4.947  14.483  0.00  0.00    +0.000 C 
ATOM      3  C   UNL     1       5.576   4.206  14.303  0.00  0.00    +0.000 C 
ATOM      4  C   UNL     1       5.359   3.127  15.360  0.00  0.00    +0.000 C 
ATOM      5  N   UNL     1       5.589   3.646  16.701  0.00  0.00    +0.000 N 
ATOM      6  C   UNL     1       4.628   3.781  17.702  0.00  0.00    +0.000 C 
ATOM      7  O   UNL     1       4.912   4.200  18.819  0.00  0.00    +0.000 OA
ATOM      8  C   UNL     1       6.918   4.235  16.910  0.00  0.00    +0.000 C 
ENDROOT
BRANCH   1  14
ATOM      9  C   UNL     1       3.173   7.276  17.324  0.00  0.00    +0.000 C 
ATOM     10  C   UNL     1       4.624   7.304  17.062  0.00  0.00    +0.000 A 
ATOM     11  N   UNL     1       5.538   7.771  17.964  0.00  0.00    +0.000 NA
ATOM     12  C   UNL     1       6.692   7.371  17.467  0.00  0.00    +0.000 A 
ATOM     13  C   UNL     1       8.031   7.608  18.053  0.00  0.00    +0.000 C 
ATOM     14  N   UNL     1       6.434   6.583  16.365  0.00  0.00    +0.000 N 
ATOM     15  N   UNL     1       5.152   6.726  15.983  0.00  0.00    +0.000 NA
ENDBRANCH   1  14
BRANCH   6  16
ATOM     16  C   UNL     1       3.198   3.384  17.358  0.00  0.00    +0.000 C 
BRANCH  16  17
ATOM     17  C   UNL     1       2.878   1.982  17.857  0.00  0.00    +0.000 C 
BRANCH  17  18
ATOM     18  O   UNL     1       2.250   2.054  19.146  0.00  0.00    +0.000 OA
BRANCH  18  19
ATOM     19  C   UNL     1       1.164   2.990  19.139  0.00  0.00    +0.000 C 
BRANCH  19  20
ATOM     20  C   UNL     1       1.045   3.680  20.505  0.00  0.00    +0.000 C 
ATOM     21  C   UNL     1       1.620   2.810  21.624  0.00  0.00    +0.000 C 
ATOM     22  C   UNL     1       1.747   5.039  20.484  0.00  0.00    +0.000 C 
ENDBRANCH  19  20
ENDBRANCH  18  19
ENDBRANCH  17  18
ENDBRANCH  16  17
ENDBRANCH   6  16
TORSDOF 6
ENDMDL
MODEL 4
REMARK VINA RESULT:      -6.4      1.706      2.092
REMARK  Name = 
REMARK  10 active torsions:
REMARK  status: ('A' for Active; 'I' for Inactive)
REMARK    1  A    between atoms: C_1  and  C_2
REMARK    2  A    between atoms: C_4  and  C_5
REMARK    3  A    between atoms: N_6  and  C_7
REMARK    4  A    between atoms: C_12  and  C_14
REMARK    5  A    between atoms: C_14  and  C_15
REMARK    6  A    between atoms: C_15  and  O_16
REMARK    7  A    between atoms: O_16  and  C_17
REMARK    8  A    between atoms: C_17  and  C_18
REMARK    9  A    between atoms: C_18  and  C_19
REMARK   10  A    between atoms: C_18  and  C_20
REMARK                            x       y       z     vdW  Elec       q    Type
REMARK                         _______ _______ _______ _____ _____    ______ ____
ROOT
ATOM      1  C   UNL     1       4.503   5.500  19.345  0.00  0.00    +0.000 C 
ATOM      2  C   UNL     1       3.570   6.526  18.650  0.00  0.00    +0.000 C 
ATOM      3  C   UNL     1       3.926   6.802  17.179  0.00  0.00    +0.000 C 
ATOM      4  C   UNL     1       5.416   7.063  16.979  0.00  0.00    +0.000 C 
ATOM      5  N   UNL     1       6.226   6.034  17.617  0.00  0.00    +0.000 N 
ATOM      6  C   UNL     1       7.050   5.119  16.962  0.00  0.00    +0.000 C 
ATOM      7  O   UNL     1       7.724   4.301  17.579  0.00  0.00    +0.000 OA
ATOM      8  C   UNL     1       5.977   5.863  19.054  0.00  0.00    +0.000 C 
ENDROOT
BRANCH   1  14
ATOM      9  C   UNL     1       4.884   0.992  20.382  0.00  0.00    +0.000 C 
ATOM     10  C   UNL     1       4.396   2.127  19.577  0.00  0.00    +0.000 A 
ATOM     11  N   UNL     1       3.089   2.276  19.210  0.00  0.00    +0.000 NA
ATOM     12  C   UNL     1       3.034   3.514  18.761  0.00  0.00    +0.000 A 
ATOM     13  C   UNL     1       1.836   4.205  18.231  0.00  0.00    +0.000 C 
ATOM     14  N   UNL     1       4.260   4.105  18.984  0.00  0.00    +0.000 N 
ATOM     15  N   UNL     1       5.177   3.169  19.290  0.00  0.00    +0.000 NA
ENDBRANCH   1  14
BRANCH   6  16
ATOM     16  C   UNL     1       7.088   5.174  15.441  0.00  0.00    +0.000 C 
BRANCH  16  17
ATOM     17  C   UNL     1       5.885   4.467  14.832  0.00  0.00    +0.000 C 
BRANCH  17  18
ATOM     18  O   UNL     1       6.322   3.339  14.059  0.00  0.00    +0.000 OA
BRANCH  18  19
ATOM     19  C   UNL     1       6.217   3.604  12.654  0.00  0.00    +0.000 C 
BRANCH  19  20
ATOM     20  C   UNL     1       5.339   2.543  11.975  0.00  0.00    +0.000 C 
ATOM     21  C   UNL     1       4.205   3.184  11.173  0.00  0.00    +0.000 C 
ATOM     22  C   UNL     1       6.183   1.647  11.068  0.00  0.00    +0.000 C 
ENDBRANCH  19  20
ENDBRANCH  18  19
ENDBRANCH  17  18
ENDBRANCH  16  17
ENDBRANCH   6  16
TORSDOF 6
ENDMDL
MODEL 5
REMARK VINA RESULT:      -6.2      1.577      3.027
REMARK  Name = 
REMARK  10 active torsions:
REMARK  status: ('A' for Active; 'I' for Inactive)
REMARK    1  A    between atoms: C_1  and  C_2
REMARK    2  A    between atoms: C_4  and  C_5
REMARK    3  A    between atoms: N_6  and  C_7
REMARK    4  A    between atoms: C_12  and  C_14
REMARK    5  A    between atoms: C_14  and  C_15
REMARK    6  A    between atoms: C_15  and  O_16
REMARK    7  A    between atoms: O_16  and  C_17
REMARK    8  A    between atoms: C_17  and  C_18
REMARK    9  A    between atoms: C_18  and  C_19
REMARK   10  A    between atoms: C_18  and  C_20
REMARK                            x       y       z     vdW  Elec       q    Type
REMARK                         _______ _______ _______ _____ _____    ______ ____
ROOT
ATOM      1  C   UNL     1       1.669   3.787  18.548  0.00  0.00    +0.000 C 
ATOM      2  C   UNL     1       1.961   2.296  18.856  0.00  0.00    +0.000 C 
ATOM      3  C   UNL     1       3.424   1.881  18.619  0.00  0.00    +0.000 C 
ATOM      4  C   UNL     1       3.957   2.367  17.274  0.00  0.00    +0.000 C 
ATOM      5  N   UNL     1       3.689   3.784  17.078  0.00  0.00    +0.000 N 
ATOM      6  C   UNL     1       4.647   4.794  16.989  0.00  0.00    +0.000 C 
ATOM      7  O   UNL     1       4.336   5.964  16.792  0.00  0.00    +0.000 OA
ATOM      8  C   UNL     1       2.272   4.158  17.173  0.00  0.00    +0.000 C 
ENDROOT
BRANCH   1  14
ATOM      9  C   UNL     1       1.595   8.060  20.358  0.00  0.00    +0.000 C 
ATOM     10  C   UNL     1       1.970   6.634  20.349  0.00  0.00    +0.000 A 
ATOM     11  N   UNL     1       1.808   5.812  21.428  0.00  0.00    +0.000 NA
ATOM     12  C   UNL     1       1.997   4.607  20.927  0.00  0.00    +0.000 A 
ATOM     13  C   UNL     1       1.935   3.327  21.669  0.00  0.00    +0.000 C 
ATOM     14  N   UNL     1       2.141   4.728  19.561  0.00  0.00    +0.000 N 
ATOM     15  N   UNL     1       2.347   6.016  19.230  0.00  0.00    +0.000 NA
ENDBRANCH   1  14
BRANCH   6  16
ATOM     16  C   UNL     1       6.107   4.389  17.144  0.00  0.00    +0.000 C 
BRANCH  16  17
ATOM     17  C   UNL     1       6.880   4.599  15.849  0.00  0.00    +0.000 C 
BRANCH  17  18
ATOM     18  O   UNL     1       6.541   3.571  14.906  0.00  0.00    +0.000 OA
BRANCH  18  19
ATOM     19  C   UNL     1       5.623   4.058  13.919  0.00  0.00    +0.000 C 
BRANCH  19  20
ATOM     20  C   UNL     1       5.864   3.355  12.575  0.00  0.00    +0.000 C 
ATOM     21  C   UNL     1       4.625   3.422  11.679  0.00  0.00    +0.000 C 
ATOM     22  C   UNL     1       7.066   3.969  11.855  0.00  0.00    +0.000 C 
ENDBRANCH  19  20
ENDBRANCH  18  19
ENDBRANCH  17  18
ENDBRANCH  16  17
ENDBRANCH   6  16
TORSDOF 6
ENDMDL
MODEL 6
REMARK VINA RESULT:      -6.2      1.059      1.405
REMARK  Name = 
REMARK  10 active torsions:
REMARK  status: ('A' for Active; 'I' for Inactive)
REMARK    1  A    between atoms: C_1  and  C_2
REMARK    2  A    between atoms: C_4  and  C_5
REMARK    3  A    between atoms: N_6  and  C_7
REMARK    4  A    between atoms: C_12  and  C_14
REMARK    5  A    between atoms: C_14  and  C_15
REMARK    6  A    between atoms: C_15  and  O_16
REMARK    7  A    between atoms: O_16  and  C_17
REMARK    8  A    between atoms: C_17  and  C_18
REMARK    9  A    between atoms: C_18  and  C_19
REMARK   10  A    between atoms: C_18  and  C_20
REMARK                            x       y       z     vdW  Elec       q    Type
REMARK                         _______ _______ _______ _____ _____    ______ ____
ROOT
ATOM      1  C   UNL     1       2.240   5.778  19.698  0.00  0.00    +0.000 C 
ATOM      2  C   UNL     1       1.894   6.934  18.724  0.00  0.00    +0.000 C 
ATOM      3  C   UNL     1       2.797   6.998  17.479  0.00  0.00    +0.000 C 
ATOM      4  C   UNL     1       4.278   6.884  17.827  0.00  0.00    +0.000 C 
ATOM      5  N   UNL     1       4.532   5.749  18.704  0.00  0.00    +0.000 N 
ATOM      6  C   UNL     1       5.277   4.616  18.380  0.00  0.00    +0.000 C 
ATOM      7  O   UNL     1       5.468   3.716  19.191  0.00  0.00    +0.000 OA
ATOM      8  C   UNL     1       3.764   5.760  19.956  0.00  0.00    +0.000 C 
ENDROOT
BRANCH   1  14
ATOM      9  C   UNL     1       2.791   2.118  16.898  0.00  0.00    +0.000 C 
ATOM     10  C   UNL     1       2.182   2.834  18.034  0.00  0.00    +0.000 A 
ATOM     11  N   UNL     1       2.047   2.285  19.278  0.00  0.00    +0.000 NA
ATOM     12  C   UNL     1       1.727   3.315  20.036  0.00  0.00    +0.000 A 
ATOM     13  C   UNL     1       1.465   3.287  21.493  0.00  0.00    +0.000 C 
ATOM     14  N   UNL     1       1.799   4.455  19.262  0.00  0.00    +0.000 N 
ATOM     15  N   UNL     1       1.865   4.126  17.959  0.00  0.00    +0.000 NA
ENDBRANCH   1  14
BRANCH   6  16
ATOM     16  C   UNL     1       5.854   4.536  16.974  0.00  0.00    +0.000 C 
BRANCH  16  17
ATOM     17  C   UNL     1       7.140   5.343  16.855  0.00  0.00    +0.000 C 
BRANCH  17  18
ATOM     18  O   UNL     1       7.548   5.411  15.480  0.00  0.00    +0.000 OA
BRANCH  18  19
ATOM     19  C   UNL     1       7.046   4.294  14.737  0.00  0.00    +0.000 C 
BRANCH  19  20
ATOM     20  C   UNL     1       6.749   4.706  13.288  0.00  0.00    +0.000 C 
ATOM     21  C   UNL     1       7.952   5.396  12.644  0.00  0.00    +0.000 C 
ATOM     22  C   UNL     1       6.334   3.491  12.457  0.00  0.00    +0.000 C 
ENDBRANCH  19  20
ENDBRANCH  18  19
ENDBRANCH  17  18
ENDBRANCH  16  17
ENDBRANCH   6  16
TORSDOF 6
ENDMDL
MODEL 7
REMARK VINA RESULT:      -6.1      1.556      1.956
REMARK  Name = 
REMARK  10 active torsions:
REMARK  status: ('A' for Active; 'I' for Inactive)
REMARK    1  A    between atoms: C_1  and  C_2
REMARK    2  A    between atoms: C_4  and  C_5
REMARK    3  A    between atoms: N_6  and  C_7
REMARK    4  A    between atoms: C_12  and  C_14
REMARK    5  A    between atoms: C_14  and  C_15
REMARK    6  A    between atoms: C_15  and  O_16
REMARK    7  A    between atoms: O_16  and  C_17
REMARK    8  A    between atoms: C_17  and  C_18
REMARK    9  A    between atoms: C_18  and  C_19
REMARK   10  A    between atoms: C_18  and  C_20
REMARK                            x       y       z     vdW  Elec       q    Type
REMARK                         _______ _______ _______ _____ _____    ______ ____
ROOT
ATOM      1  C   UNL     1       4.063   5.490  19.773  0.00  0.00    +0.000 C 
ATOM      2  C   UNL     1       2.887   6.414  19.361  0.00  0.00    +0.000 C 
ATOM      3  C   UNL     1       2.795   6.674  17.847  0.00  0.00    +0.000 C 
ATOM      4  C   UNL     1       4.142   7.052  17.237  0.00  0.00    +0.000 C 
ATOM      5  N   UNL     1       5.184   6.113  17.630  0.00  0.00    +0.000 N 
ATOM      6  C   UNL     1       5.871   5.250  16.777  0.00  0.00    +0.000 C 
ATOM      7  O   UNL     1       6.760   4.509  17.185  0.00  0.00    +0.000 OA
ATOM      8  C   UNL     1       5.360   5.965  19.081  0.00  0.00    +0.000 C 
ENDROOT
BRANCH   1  14
ATOM      9  C   UNL     1       5.108   1.063  20.692  0.00  0.00    +0.000 C 
ATOM     10  C   UNL     1       4.320   2.129  20.047  0.00  0.00    +0.000 A 
ATOM     11  N   UNL     1       2.954   2.158  20.056  0.00  0.00    +0.000 NA
ATOM     12  C   UNL     1       2.669   3.374  19.633  0.00  0.00    +0.000 A 
ATOM     13  C   UNL     1       1.316   3.947  19.452  0.00  0.00    +0.000 C 
ATOM     14  N   UNL     1       3.852   4.070  19.503  0.00  0.00    +0.000 N 
ATOM     15  N   UNL     1       4.896   3.222  19.547  0.00  0.00    +0.000 NA
ENDBRANCH   1  14
BRANCH   6  16
ATOM     16  C   UNL     1       5.480   5.262  15.305  0.00  0.00    +0.000 C 
BRANCH  16  17
ATOM     17  C   UNL     1       6.168   4.140  14.540  0.00  0.00    +0.000 C 
BRANCH  17  18
ATOM     18  O   UNL     1       5.576   4.002  13.240  0.00  0.00    +0.000 OA
BRANCH  18  19
ATOM     19  C   UNL     1       6.480   3.366  12.327  0.00  0.00    +0.000 C 
BRANCH  19  20
ATOM     20  C   UNL     1       5.700   2.672  11.200  0.00  0.00    +0.000 C 
ATOM     21  C   UNL     1       5.924   1.159  11.214  0.00  0.00    +0.000 C 
ATOM     22  C   UNL     1       4.206   2.982  11.310  0.00  0.00    +0.000 C 
ENDBRANCH  19  20
ENDBRANCH  18  19
ENDBRANCH  17  18
ENDBRANCH  16  17
ENDBRANCH   6  16
TORSDOF 6
ENDMDL
MODEL 8
REMARK VINA RESULT:      -6.0      2.455      4.570
REMARK  Name = 
REMARK  10 active torsions:
REMARK  status: ('A' for Active; 'I' for Inactive)
REMARK    1  A    between atoms: C_1  and  C_2
REMARK    2  A    between atoms: C_4  and  C_5
REMARK    3  A    between atoms: N_6  and  C_7
REMARK    4  A    between atoms: C_12  and  C_14
REMARK    5  A    between atoms: C_14  and  C_15
REMARK    6  A    between atoms: C_15  and  O_16
REMARK    7  A    between atoms: O_16  and  C_17
REMARK    8  A    between atoms: C_17  and  C_18
REMARK    9  A    between atoms: C_18  and  C_19
REMARK   10  A    between atoms: C_18  and  C_20
REMARK                            x       y       z     vdW  Elec       q    Type
REMARK                         _______ _______ _______ _____ _____    ______ ____
ROOT
ATOM      1  C   UNL     1       1.453   4.577  20.967  0.00  0.00    +0.000 C 
ATOM      2  C   UNL     1       2.329   3.563  21.747  0.00  0.00    +0.000 C 
ATOM      3  C   UNL     1       3.292   2.754  20.860  0.00  0.00    +0.000 C 
ATOM      4  C   UNL     1       2.604   2.179  19.626  0.00  0.00    +0.000 C 
ATOM      5  N   UNL     1       1.841   3.200  18.920  0.00  0.00    +0.000 N 
ATOM      6  C   UNL     1       2.109   3.681  17.639  0.00  0.00    +0.000 C 
ATOM      7  O   UNL     1       1.396   4.524  17.104  0.00  0.00    +0.000 OA
ATOM      8  C   UNL     1       0.828   3.880  19.737  0.00  0.00    +0.000 C 
ENDROOT
BRANCH   1  14
ATOM      9  C   UNL     1       3.655   6.957  17.646  0.00  0.00    +0.000 C 
ATOM     10  C   UNL     1       3.032   6.808  18.975  0.00  0.00    +0.000 A 
ATOM     11  N   UNL     1       2.131   7.700  19.482  0.00  0.00    +0.000 NA
ATOM     12  C   UNL     1       1.630   7.070  20.527  0.00  0.00    +0.000 A 
ATOM     13  C   UNL     1       0.595   7.587  21.452  0.00  0.00    +0.000 C 
ATOM     14  N   UNL     1       2.146   5.792  20.545  0.00  0.00    +0.000 N 
ATOM     15  N   UNL     1       3.192   5.703  19.703  0.00  0.00    +0.000 NA
ENDBRANCH   1  14
BRANCH   6  16
ATOM     16  C   UNL     1       3.327   3.118  16.919  0.00  0.00    +0.000 C 
BRANCH  16  17
ATOM     17  C   UNL     1       4.369   4.198  16.665  0.00  0.00    +0.000 C 
BRANCH  17  18
ATOM     18  O   UNL     1       5.459   4.051  17.588  0.00  0.00    +0.000 OA
BRANCH  18  19
ATOM     19  C   UNL     1       6.694   4.481  17.001  0.00  0.00    +0.000 C 
BRANCH  19  20
ATOM     20  C   UNL     1       7.405   5.480  17.926  0.00  0.00    +0.000 C 
ATOM     21  C   UNL     1       7.358   6.900  17.360  0.00  0.00    +0.000 C 
ATOM     22  C   UNL     1       6.787   5.452  19.325  0.00  0.00    +0.000 C 
ENDBRANCH  19  20
ENDBRANCH  18  19
ENDBRANCH  17  18
ENDBRANCH  16  17
ENDBRANCH   6  16
TORSDOF 6
ENDMDL
MODEL 9
REMARK VINA RESULT:      -6.0      1.722      3.289
REMARK  Name = 
REMARK  10 active torsions:
REMARK  status: ('A' for Active; 'I' for Inactive)
REMARK    1  A    between atoms: C_1  and  C_2
REMARK    2  A    between atoms: C_4  and  C_5
REMARK    3  A    between atoms: N_6  and  C_7
REMARK    4  A    between atoms: C_12  and  C_14
REMARK    5  A    between atoms: C_14  and  C_15
REMARK    6  A    between atoms: C_15  and  O_16
REMARK    7  A    between atoms: O_16  and  C_17
REMARK    8  A    between atoms: C_17  and  C_18
REMARK    9  A    between atoms: C_18  and  C_19
REMARK   10  A    between atoms: C_18  and  C_20
REMARK                            x       y       z     vdW  Elec       q    Type
REMARK                         _______ _______ _______ _____ _____    ______ ____
ROOT
ATOM      1  C   UNL     1       1.631   3.662  18.560  0.00  0.00    +0.000 C 
ATOM      2  C   UNL     1       1.923   2.169  18.860  0.00  0.00    +0.000 C 
ATOM      3  C   UNL     1       3.384   1.753  18.614  0.00  0.00    +0.000 C 
ATOM      4  C   UNL     1       3.911   2.244  17.269  0.00  0.00    +0.000 C 
ATOM      5  N   UNL     1       3.643   3.663  17.080  0.00  0.00    +0.000 N 
ATOM      6  C   UNL     1       4.602   4.672  16.991  0.00  0.00    +0.000 C 
ATOM      7  O   UNL     1       4.292   5.843  16.801  0.00  0.00    +0.000 OA
ATOM      8  C   UNL     1       2.227   4.037  17.184  0.00  0.00    +0.000 C 
ENDROOT
BRANCH   1  14
ATOM      9  C   UNL     1       1.636   7.949  20.338  0.00  0.00    +0.000 C 
ATOM     10  C   UNL     1       1.974   6.514  20.346  0.00  0.00    +0.000 A 
ATOM     11  N   UNL     1       1.771   5.704  21.427  0.00  0.00    +0.000 NA
ATOM     12  C   UNL     1       1.937   4.491  20.939  0.00  0.00    +0.000 A 
ATOM     13  C   UNL     1       1.827   3.218  21.689  0.00  0.00    +0.000 C 
ATOM     14  N   UNL     1       2.109   4.598  19.575  0.00  0.00    +0.000 N 
ATOM     15  N   UNL     1       2.354   5.877  19.238  0.00  0.00    +0.000 NA
ENDBRANCH   1  14
BRANCH   6  16
ATOM     16  C   UNL     1       6.062   4.265  17.136  0.00  0.00    +0.000 C 
BRANCH  16  17
ATOM     17  C   UNL     1       6.992   5.449  16.909  0.00  0.00    +0.000 C 
BRANCH  17  18
ATOM     18  O   UNL     1       7.364   5.519  15.524  0.00  0.00    +0.000 OA
BRANCH  18  19
ATOM     19  C   UNL     1       6.910   4.362  14.810  0.00  0.00    +0.000 C 
BRANCH  19  20
ATOM     20  C   UNL     1       6.682   4.704  13.330  0.00  0.00    +0.000 C 
ATOM     21  C   UNL     1       7.944   5.285  12.689  0.00  0.00    +0.000 C 
ATOM     22  C   UNL     1       6.222   3.467  12.557  0.00  0.00    +0.000 C 
ENDBRANCH  19  20
ENDBRANCH  18  19
ENDBRANCH  17  18
ENDBRANCH  16  17
ENDBRANCH   6  16
TORSDOF 6
ENDMDL
