MODEL 1
REMARK VINA RESULT:      -8.8      0.000      0.000
REMARK  Name = 
REMARK  15 active torsions:
REMARK  status: ('A' for Active; 'I' for Inactive)
REMARK    1  A    between atoms: C_1  and  C_2
REMARK    2  A    between atoms: C_2  and  C_3
REMARK    3  A    between atoms: C_2  and  C_4
REMARK    4  A    between atoms: C_7  and  N_8
REMARK    5  A    between atoms: C_9  and  C_11
REMARK    6  A    between atoms: C_11  and  C_12
REMARK    7  A    between atoms: C_11  and  N_27
REMARK    8  A    between atoms: C_12  and  C_13
REMARK    9  A    between atoms: C_13  and  C_15
REMARK   10  A    between atoms: C_18  and  C_19
REMARK   11  A    between atoms: C_19  and  C_20
REMARK   12  A    between atoms: C_19  and  C_21
REMARK   13  A    between atoms: C_23  and  C_24
REMARK   14  A    between atoms: C_24  and  C_25
REMARK   15  A    between atoms: C_24  and  C_26
REMARK                            x       y       z     vdW  Elec       q    Type
REMARK                         _______ _______ _______ _____ _____    ______ ____
ROOT
ATOM      1  C   UNL     1       2.768   5.835  19.028  0.00  0.00    +0.000 C 
ENDROOT
BRANCH   1   2
ATOM      2  N   UNL     1       1.802   4.763  19.440  0.00  0.00    +0.000 NA
ATOM      3  C   UNL     1       1.673   3.744  18.369  0.00  0.00    +0.000 C 
ATOM      4  C   UNL     1       0.667   2.649  18.732  0.00  0.00    +0.000 C 
ATOM      5  C   UNL     1       1.024   1.982  20.052  0.00  0.00    +0.000 C 
ATOM      6  C   UNL     1       1.203   3.039  21.131  0.00  0.00    +0.000 C 
ATOM      7  C   UNL     1       2.208   4.109  20.698  0.00  0.00    +0.000 C 
ENDBRANCH   1   2
BRANCH   1   9
ATOM      8  N   UNL     1       1.557   7.348  20.530  0.00  0.00    +0.000 N 
ATOM      9  C   UNL     1       2.228   7.251  19.331  0.00  0.00    +0.000 C 
ATOM     10  O   UNL     1       2.480   8.175  18.560  0.00  0.00    +0.000 OA
ATOM     11  H   UNL     1       1.641   6.524  21.130  0.00  0.00    +0.000 HD
BRANCH   8  15
ATOM     12  C   UNL     1      -0.252  10.862  22.019  0.00  0.00    +0.000 A 
ATOM     13  C   UNL     1       0.103   9.830  22.898  0.00  0.00    +0.000 A 
ATOM     14  C   UNL     1       0.686   8.652  22.424  0.00  0.00    +0.000 A 
ATOM     15  C   UNL     1       0.925   8.481  21.061  0.00  0.00    +0.000 A 
ATOM     16  C   UNL     1       0.552   9.494  20.174  0.00  0.00    +0.000 A 
ATOM     17  C   UNL     1      -0.039  10.669  20.647  0.00  0.00    +0.000 A 
BRANCH  12  19
ATOM     18  C   UNL     1      -0.431  13.298  21.587  0.00  0.00    +0.000 C 
ATOM     19  C   UNL     1      -0.737  12.182  22.592  0.00  0.00    +0.000 C 
ATOM     20  C   UNL     1      -2.218  12.203  22.974  0.00  0.00    +0.000 C 
ENDBRANCH  12  19
ENDBRANCH   8  15
ENDBRANCH   1   9
BRANCH   1  21
ATOM     21  C   UNL     1       4.213   5.741  19.564  0.00  0.00    +0.000 C 
BRANCH  21  22
ATOM     22  C   UNL     1       5.121   4.665  18.947  0.00  0.00    +0.000 C 
ATOM     23  O   UNL     1       5.495   3.678  19.582  0.00  0.00    +0.000 OA
BRANCH  22  24
ATOM     24  C   UNL     1       5.566   4.824  17.518  0.00  0.00    +0.000 A 
ATOM     25  C   UNL     1       5.063   3.891  16.591  0.00  0.00    +0.000 A 
ATOM     26  C   UNL     1       5.439   3.910  15.247  0.00  0.00    +0.000 A 
ATOM     27  C   UNL     1       6.348   4.855  14.791  0.00  0.00    +0.000 A 
ATOM     28  C   UNL     1       6.884   5.763  15.716  0.00  0.00    +0.000 A 
ATOM     29  C   UNL     1       6.499   5.796  17.075  0.00  0.00    +0.000 A 
BRANCH  27  30
ATOM     30  C   UNL     1       6.720   4.922  13.322  0.00  0.00    +0.000 C 
ATOM     31  C   UNL     1       8.184   5.345  13.160  0.00  0.00    +0.000 C 
ATOM     32  C   UNL     1       6.453   3.602  12.598  0.00  0.00    +0.000 C 
ENDBRANCH  27  30
BRANCH  29  33
ATOM     33  C   UNL     1       7.132   6.884  17.954  0.00  0.00    +0.000 C 
ATOM     34  C   UNL     1       8.159   6.260  18.907  0.00  0.00    +0.000 C 
ATOM     35  C   UNL     1       7.851   8.003  17.160  0.00  0.00    +0.000 C 
ENDBRANCH  29  33
ENDBRANCH  22  24
ENDBRANCH  21  22
ENDBRANCH   1  21
TORSDOF 9
ENDMDL
MODEL 2
REMARK VINA RESULT:      -8.8      0.555      1.033
REMARK  Name = 
REMARK  15 active torsions:
REMARK  status: ('A' for Active; 'I' for Inactive)
REMARK    1  A    between atoms: C_1  and  C_2
REMARK    2  A    between atoms: C_2  and  C_3
REMARK    3  A    between atoms: C_2  and  C_4
REMARK    4  A    between atoms: C_7  and  N_8
REMARK    5  A    between atoms: C_9  and  C_11
REMARK    6  A    between atoms: C_11  and  C_12
REMARK    7  A    between atoms: C_11  and  N_27
REMARK    8  A    between atoms: C_12  and  C_13
REMARK    9  A    between atoms: C_13  and  C_15
REMARK   10  A    between atoms: C_18  and  C_19
REMARK   11  A    between atoms: C_19  and  C_20
REMARK   12  A    between atoms: C_19  and  C_21
REMARK   13  A    between atoms: C_23  and  C_24
REMARK   14  A    between atoms: C_24  and  C_25
REMARK   15  A    between atoms: C_24  and  C_26
REMARK                            x       y       z     vdW  Elec       q    Type
REMARK                         _______ _______ _______ _____ _____    ______ ____
ROOT
ATOM      1  C   UNL     1       2.962   5.933  18.762  0.00  0.00    +0.000 C 
ENDROOT
BRANCH   1   2
ATOM      2  N   UNL     1       1.992   4.919  19.297  0.00  0.00    +0.000 NA
ATOM      3  C   UNL     1       1.808   3.816  18.323  0.00  0.00    +0.000 C 
ATOM      4  C   UNL     1       0.796   2.776  18.811  0.00  0.00    +0.000 C 
ATOM      5  C   UNL     1       1.188   2.217  20.171  0.00  0.00    +0.000 C 
ATOM      6  C   UNL     1       1.424   3.358  21.148  0.00  0.00    +0.000 C 
ATOM      7  C   UNL     1       2.431   4.367  20.592  0.00  0.00    +0.000 C 
ENDBRANCH   1   2
BRANCH   1   9
ATOM      8  N   UNL     1       1.685   7.569  20.068  0.00  0.00    +0.000 N 
ATOM      9  C   UNL     1       2.445   7.378  18.935  0.00  0.00    +0.000 C 
ATOM     10  O   UNL     1       2.785   8.245  18.132  0.00  0.00    +0.000 OA
ATOM     11  H   UNL     1       1.696   6.783  20.722  0.00  0.00    +0.000 HD
BRANCH   8  15
ATOM     12  C   UNL     1      -0.131  11.215  21.183  0.00  0.00    +0.000 A 
ATOM     13  C   UNL     1       0.188  10.264  22.161  0.00  0.00    +0.000 A 
ATOM     14  C   UNL     1       0.773   9.043  21.812  0.00  0.00    +0.000 A 
ATOM     15  C   UNL     1       1.049   8.750  20.477  0.00  0.00    +0.000 A 
ATOM     16  C   UNL     1       0.712   9.681  19.492  0.00  0.00    +0.000 A 
ATOM     17  C   UNL     1       0.120  10.899  19.841  0.00  0.00    +0.000 A 
BRANCH  12  19
ATOM     18  C   UNL     1      -1.248  12.464  23.013  0.00  0.00    +0.000 C 
ATOM     19  C   UNL     1      -0.619  12.585  21.621  0.00  0.00    +0.000 C 
ATOM     20  C   UNL     1       0.457  13.673  21.618  0.00  0.00    +0.000 C 
ENDBRANCH  12  19
ENDBRANCH   8  15
ENDBRANCH   1   9
BRANCH   1  21
ATOM     21  C   UNL     1       4.417   5.873  19.277  0.00  0.00    +0.000 C 
BRANCH  21  22
ATOM     22  C   UNL     1       5.317   4.765  18.706  0.00  0.00    +0.000 C 
ATOM     23  O   UNL     1       5.739   3.839  19.400  0.00  0.00    +0.000 OA
BRANCH  22  24
ATOM     24  C   UNL     1       5.692   4.815  17.249  0.00  0.00    +0.000 A 
ATOM     25  C   UNL     1       4.942   4.006  16.373  0.00  0.00    +0.000 A 
ATOM     26  C   UNL     1       5.227   3.936  15.009  0.00  0.00    +0.000 A 
ATOM     27  C   UNL     1       6.287   4.660  14.479  0.00  0.00    +0.000 A 
ATOM     28  C   UNL     1       7.063   5.437  15.351  0.00  0.00    +0.000 A 
ATOM     29  C   UNL     1       6.782   5.561  16.730  0.00  0.00    +0.000 A 
BRANCH  27  30
ATOM     30  C   UNL     1       6.569   4.636  12.989  0.00  0.00    +0.000 C 
ATOM     31  C   UNL     1       7.979   5.162  12.704  0.00  0.00    +0.000 C 
ATOM     32  C   UNL     1       6.377   3.243  12.387  0.00  0.00    +0.000 C 
ENDBRANCH  27  30
BRANCH  29  33
ATOM     33  C   UNL     1       7.689   6.492  17.547  0.00  0.00    +0.000 C 
ATOM     34  C   UNL     1       7.059   7.888  17.645  0.00  0.00    +0.000 C 
ATOM     35  C   UNL     1       7.968   6.002  18.989  0.00  0.00    +0.000 C 
ENDBRANCH  29  33
ENDBRANCH  22  24
ENDBRANCH  21  22
ENDBRANCH   1  21
TORSDOF 9
ENDMDL
MODEL 3
REMARK VINA RESULT:      -8.8      1.090      1.706
REMARK  Name = 
REMARK  15 active torsions:
REMARK  status: ('A' for Active; 'I' for Inactive)
REMARK    1  A    between atoms: C_1  and  C_2
REMARK    2  A    between atoms: C_2  and  C_3
REMARK    3  A    between atoms: C_2  and  C_4
REMARK    4  A    between atoms: C_7  and  N_8
REMARK    5  A    between atoms: C_9  and  C_11
REMARK    6  A    between atoms: C_11  and  C_12
REMARK    7  A    between atoms: C_11  and  N_27
REMARK    8  A    between atoms: C_12  and  C_13
REMARK    9  A    between atoms: C_13  and  C_15
REMARK   10  A    between atoms: C_18  and  C_19
REMARK   11  A    between atoms: C_19  and  C_20
REMARK   12  A    between atoms: C_19  and  C_21
REMARK   13  A    between atoms: C_23  and  C_24
REMARK   14  A    between atoms: C_24  and  C_25
REMARK   15  A    between atoms: C_24  and  C_26
REMARK                            x       y       z     vdW  Elec       q    Type
REMARK                         _______ _______ _______ _____ _____    ______ ____
ROOT
ATOM      1  C   UNL     1       2.944   6.104  18.329  0.00  0.00    +0.000 C 
ENDROOT
BRANCH   1   2
ATOM      2  N   UNL     1       1.928   5.169  18.918  0.00  0.00    +0.000 NA
ATOM      3  C   UNL     1       1.795   3.954  18.077  0.00  0.00    +0.000 C 
ATOM      4  C   UNL     1       0.739   2.988  18.621  0.00  0.00    +0.000 C 
ATOM      5  C   UNL     1       1.031   2.601  20.063  0.00  0.00    +0.000 C 
ATOM      6  C   UNL     1       1.216   3.854  20.905  0.00  0.00    +0.000 C 
ATOM      7  C   UNL     1       2.271   4.781  20.298  0.00  0.00    +0.000 C 
ENDBRANCH   1   2
BRANCH   1   9
ATOM      8  N   UNL     1       1.663   7.923  19.360  0.00  0.00    +0.000 N 
ATOM      9  C   UNL     1       2.432   7.560  18.275  0.00  0.00    +0.000 C 
ATOM     10  O   UNL     1       2.783   8.295  17.353  0.00  0.00    +0.000 OA
ATOM     11  H   UNL     1       1.664   7.244  20.125  0.00  0.00    +0.000 HD
BRANCH   8  15
ATOM     12  C   UNL     1      -0.322  11.562  20.166  0.00  0.00    +0.000 A 
ATOM     13  C   UNL     1      -0.251  11.079  18.853  0.00  0.00    +0.000 A 
ATOM     14  C   UNL     1       0.417   9.887  18.562  0.00  0.00    +0.000 A 
ATOM     15  C   UNL     1       1.028   9.153  19.578  0.00  0.00    +0.000 A 
ATOM     16  C   UNL     1       0.984   9.639  20.887  0.00  0.00    +0.000 A 
ATOM     17  C   UNL     1       0.323  10.836  21.177  0.00  0.00    +0.000 A 
BRANCH  12  19
ATOM     18  C   UNL     1      -0.591  13.992  19.741  0.00  0.00    +0.000 C 
ATOM     19  C   UNL     1      -1.187  12.776  20.458  0.00  0.00    +0.000 C 
ATOM     20  C   UNL     1      -2.661  12.609  20.084  0.00  0.00    +0.000 C 
ENDBRANCH  12  19
ENDBRANCH   8  15
ENDBRANCH   1   9
BRANCH   1  21
ATOM     21  C   UNL     1       4.358   6.109  18.952  0.00  0.00    +0.000 C 
BRANCH  21  22
ATOM     22  C   UNL     1       5.277   4.925  18.612  0.00  0.00    +0.000 C 
ATOM     23  O   UNL     1       5.625   4.100  19.459  0.00  0.00    +0.000 OA
BRANCH  22  24
ATOM     24  C   UNL     1       5.766   4.769  17.198  0.00  0.00    +0.000 A 
ATOM     25  C   UNL     1       5.090   3.831  16.394  0.00  0.00    +0.000 A 
ATOM     26  C   UNL     1       5.482   3.568  15.081  0.00  0.00    +0.000 A 
ATOM     27  C   UNL     1       6.578   4.222  14.534  0.00  0.00    +0.000 A 
ATOM     28  C   UNL     1       7.280   5.129  15.341  0.00  0.00    +0.000 A 
ATOM     29  C   UNL     1       6.891   5.447  16.662  0.00  0.00    +0.000 A 
BRANCH  27  30
ATOM     30  C   UNL     1       6.977   3.987  13.090  0.00  0.00    +0.000 C 
ATOM     31  C   UNL     1       5.778   3.485  12.279  0.00  0.00    +0.000 C 
ATOM     32  C   UNL     1       7.582   5.237  12.447  0.00  0.00    +0.000 C 
ENDBRANCH  27  30
BRANCH  29  33
ATOM     33  C   UNL     1       7.728   6.500  17.402  0.00  0.00    +0.000 C 
ATOM     34  C   UNL     1       7.002   7.852  17.392  0.00  0.00    +0.000 C 
ATOM     35  C   UNL     1       8.034   6.145  18.878  0.00  0.00    +0.000 C 
ENDBRANCH  29  33
ENDBRANCH  22  24
ENDBRANCH  21  22
ENDBRANCH   1  21
TORSDOF 9
ENDMDL
MODEL 4
REMARK VINA RESULT:      -8.5      1.491      1.831
REMARK  Name = 
REMARK  15 active torsions:
REMARK  status: ('A' for Active; 'I' for Inactive)
REMARK    1  A    between atoms: C_1  and  C_2
REMARK    2  A    between atoms: C_2  and  C_3
REMARK    3  A    between atoms: C_2  and  C_4
REMARK    4  A    between atoms: C_7  and  N_8
REMARK    5  A    between atoms: C_9  and  C_11
REMARK    6  A    between atoms: C_11  and  C_12
REMARK    7  A    between atoms: C_11  and  N_27
REMARK    8  A    between atoms: C_12  and  C_13
REMARK    9  A    between atoms: C_13  and  C_15
REMARK   10  A    between atoms: C_18  and  C_19
REMARK   11  A    between atoms: C_19  and  C_20
REMARK   12  A    between atoms: C_19  and  C_21
REMARK   13  A    between atoms: C_23  and  C_24
REMARK   14  A    between atoms: C_24  and  C_25
REMARK   15  A    between atoms: C_24  and  C_26
REMARK                            x       y       z     vdW  Elec       q    Type
REMARK                         _______ _______ _______ _____ _____    ______ ____
ROOT
ATOM      1  C   UNL     1       2.699   5.878  19.108  0.00  0.00    +0.000 C 
ENDROOT
BRANCH   1   2
ATOM      2  N   UNL     1       1.755   4.759  19.440  0.00  0.00    +0.000 NA
ATOM      3  C   UNL     1       1.703   3.780  18.328  0.00  0.00    +0.000 C 
ATOM      4  C   UNL     1       0.721   2.639  18.607  0.00  0.00    +0.000 C 
ATOM      5  C   UNL     1       1.048   1.933  19.915  0.00  0.00    +0.000 C 
ATOM      6  C   UNL     1       1.149   2.953  21.039  0.00  0.00    +0.000 C 
ATOM      7  C   UNL     1       2.132   4.071  20.688  0.00  0.00    +0.000 C 
ENDBRANCH   1   2
BRANCH   1   9
ATOM      8  N   UNL     1       1.951   8.167  18.644  0.00  0.00    +0.000 N 
ATOM      9  C   UNL     1       2.193   7.240  19.634  0.00  0.00    +0.000 C 
ATOM     10  O   UNL     1       1.977   7.385  20.836  0.00  0.00    +0.000 OA
ATOM     11  H   UNL     1       1.982   7.789  17.694  0.00  0.00    +0.000 HD
BRANCH   8  15
ATOM     12  C   UNL     1       0.842  12.210  19.154  0.00  0.00    +0.000 A 
ATOM     13  C   UNL     1       0.066  11.193  19.726  0.00  0.00    +0.000 A 
ATOM     14  C   UNL     1       0.405   9.848  19.554  0.00  0.00    +0.000 A 
ATOM     15  C   UNL     1       1.527   9.493  18.805  0.00  0.00    +0.000 A 
ATOM     16  C   UNL     1       2.292  10.499  18.211  0.00  0.00    +0.000 A 
ATOM     17  C   UNL     1       1.949  11.843  18.376  0.00  0.00    +0.000 A 
BRANCH  12  19
ATOM     18  C   UNL     1       1.407  14.569  18.636  0.00  0.00    +0.000 C 
ATOM     19  C   UNL     1       0.527  13.656  19.496  0.00  0.00    +0.000 C 
ATOM     20  C   UNL     1      -0.946  14.039  19.341  0.00  0.00    +0.000 C 
ENDBRANCH  12  19
ENDBRANCH   8  15
ENDBRANCH   1   9
BRANCH   1  21
ATOM     21  C   UNL     1       4.177   5.715  19.526  0.00  0.00    +0.000 C 
BRANCH  21  22
ATOM     22  C   UNL     1       4.968   4.574  18.867  0.00  0.00    +0.000 C 
ATOM     23  O   UNL     1       5.220   3.523  19.459  0.00  0.00    +0.000 OA
BRANCH  22  24
ATOM     24  C   UNL     1       5.450   4.747  17.452  0.00  0.00    +0.000 A 
ATOM     25  C   UNL     1       4.939   3.850  16.495  0.00  0.00    +0.000 A 
ATOM     26  C   UNL     1       5.346   3.885  15.160  0.00  0.00    +0.000 A 
ATOM     27  C   UNL     1       6.295   4.809  14.744  0.00  0.00    +0.000 A 
ATOM     28  C   UNL     1       6.838   5.680  15.700  0.00  0.00    +0.000 A 
ATOM     29  C   UNL     1       6.423   5.697  17.050  0.00  0.00    +0.000 A 
BRANCH  27  30
ATOM     30  C   UNL     1       6.701   4.894  13.286  0.00  0.00    +0.000 C 
ATOM     31  C   UNL     1       8.161   5.344  13.163  0.00  0.00    +0.000 C 
ATOM     32  C   UNL     1       6.477   3.574  12.545  0.00  0.00    +0.000 C 
ENDBRANCH  27  30
BRANCH  29  33
ATOM     33  C   UNL     1       7.071   6.746  17.966  0.00  0.00    +0.000 C 
ATOM     34  C   UNL     1       8.076   6.073  18.909  0.00  0.00    +0.000 C 
ATOM     35  C   UNL     1       7.820   7.872  17.210  0.00  0.00    +0.000 C 
ENDBRANCH  29  33
ENDBRANCH  22  24
ENDBRANCH  21  22
ENDBRANCH   1  21
TORSDOF 9
ENDMDL
MODEL 5
REMARK VINA RESULT:      -8.4      1.600      2.171
REMARK  Name = 
REMARK  15 active torsions:
REMARK  status: ('A' for Active; 'I' for Inactive)
REMARK    1  A    between atoms: C_1  and  C_2
REMARK    2  A    between atoms: C_2  and  C_3
REMARK    3  A    between atoms: C_2  and  C_4
REMARK    4  A    between atoms: C_7  and  N_8
REMARK    5  A    between atoms: C_9  and  C_11
REMARK    6  A    between atoms: C_11  and  C_12
REMARK    7  A    between atoms: C_11  and  N_27
REMARK    8  A    between atoms: C_12  and  C_13
REMARK    9  A    between atoms: C_13  and  C_15
REMARK   10  A    between atoms: C_18  and  C_19
REMARK   11  A    between atoms: C_19  and  C_20
REMARK   12  A    between atoms: C_19  and  C_21
REMARK   13  A    between atoms: C_23  and  C_24
REMARK   14  A    between atoms: C_24  and  C_25
REMARK   15  A    between atoms: C_24  and  C_26
REMARK                            x       y       z     vdW  Elec       q    Type
REMARK                         _______ _______ _______ _____ _____    ______ ____
ROOT
ATOM      1  C   UNL     1       2.673   5.986  18.994  0.00  0.00    +0.000 C 
ENDROOT
BRANCH   1   2
ATOM      2  N   UNL     1       1.750   4.865  19.375  0.00  0.00    +0.000 NA
ATOM      3  C   UNL     1       1.729   3.830  18.312  0.00  0.00    +0.000 C 
ATOM      4  C   UNL     1       0.770   2.683  18.642  0.00  0.00    +0.000 C 
ATOM      5  C   UNL     1       1.101   2.051  19.985  0.00  0.00    +0.000 C 
ATOM      6  C   UNL     1       1.171   3.128  21.058  0.00  0.00    +0.000 C 
ATOM      7  C   UNL     1       2.133   4.248  20.658  0.00  0.00    +0.000 C 
ENDBRANCH   1   2
BRANCH   1   9
ATOM      8  N   UNL     1       1.971   8.274  18.457  0.00  0.00    +0.000 N 
ATOM      9  C   UNL     1       2.147   7.359  19.472  0.00  0.00    +0.000 C 
ATOM     10  O   UNL     1       1.860   7.521  20.657  0.00  0.00    +0.000 OA
ATOM     11  H   UNL     1       2.056   7.884  17.516  0.00  0.00    +0.000 HD
BRANCH   8  15
ATOM     12  C   UNL     1       0.536  12.234  18.758  0.00  0.00    +0.000 A 
ATOM     13  C   UNL     1       1.829  11.993  18.275  0.00  0.00    +0.000 A 
ATOM     14  C   UNL     1       2.330  10.691  18.185  0.00  0.00    +0.000 A 
ATOM     15  C   UNL     1       1.548   9.605  18.577  0.00  0.00    +0.000 A 
ATOM     16  C   UNL     1       0.267   9.838  19.083  0.00  0.00    +0.000 A 
ATOM     17  C   UNL     1      -0.231  11.140  19.181  0.00  0.00    +0.000 A 
BRANCH  12  19
ATOM     18  C   UNL     1      -1.148  13.779  19.722  0.00  0.00    +0.000 C 
ATOM     19  C   UNL     1      -0.022  13.645  18.693  0.00  0.00    +0.000 C 
ATOM     20  C   UNL     1       1.018  14.749  18.897  0.00  0.00    +0.000 C 
ENDBRANCH  12  19
ENDBRANCH   8  15
ENDBRANCH   1   9
BRANCH   1  21
ATOM     21  C   UNL     1       4.156   5.865  19.407  0.00  0.00    +0.000 C 
BRANCH  21  22
ATOM     22  C   UNL     1       4.914   4.615  18.934  0.00  0.00    +0.000 C 
ATOM     23  O   UNL     1       5.036   3.613  19.641  0.00  0.00    +0.000 OA
BRANCH  22  24
ATOM     24  C   UNL     1       5.527   4.615  17.559  0.00  0.00    +0.000 A 
ATOM     25  C   UNL     1       5.099   3.606  16.674  0.00  0.00    +0.000 A 
ATOM     26  C   UNL     1       5.628   3.479  15.389  0.00  0.00    +0.000 A 
ATOM     27  C   UNL     1       6.619   4.348  14.953  0.00  0.00    +0.000 A 
ATOM     28  C   UNL     1       7.078   5.331  15.842  0.00  0.00    +0.000 A 
ATOM     29  C   UNL     1       6.541   5.512  17.136  0.00  0.00    +0.000 A 
BRANCH  27  30
ATOM     30  C   UNL     1       7.160   4.255  13.540  0.00  0.00    +0.000 C 
ATOM     31  C   UNL     1       6.063   3.785  12.578  0.00  0.00    +0.000 C 
ATOM     32  C   UNL     1       7.767   5.577  13.066  0.00  0.00    +0.000 C 
ENDBRANCH  27  30
BRANCH  29  33
ATOM     33  C   UNL     1       7.110   6.666  17.973  0.00  0.00    +0.000 C 
ATOM     34  C   UNL     1       8.118   6.128  18.997  0.00  0.00    +0.000 C 
ATOM     35  C   UNL     1       7.826   7.760  17.142  0.00  0.00    +0.000 C 
ENDBRANCH  29  33
ENDBRANCH  22  24
ENDBRANCH  21  22
ENDBRANCH   1  21
TORSDOF 9
ENDMDL
MODEL 6
REMARK VINA RESULT:      -8.2      3.658      6.433
REMARK  Name = 
REMARK  15 active torsions:
REMARK  status: ('A' for Active; 'I' for Inactive)
REMARK    1  A    between atoms: C_1  and  C_2
REMARK    2  A    between atoms: C_2  and  C_3
REMARK    3  A    between atoms: C_2  and  C_4
REMARK    4  A    between atoms: C_7  and  N_8
REMARK    5  A    between atoms: C_9  and  C_11
REMARK    6  A    between atoms: C_11  and  C_12
REMARK    7  A    between atoms: C_11  and  N_27
REMARK    8  A    between atoms: C_12  and  C_13
REMARK    9  A    between atoms: C_13  and  C_15
REMARK   10  A    between atoms: C_18  and  C_19
REMARK   11  A    between atoms: C_19  and  C_20
REMARK   12  A    between atoms: C_19  and  C_21
REMARK   13  A    between atoms: C_23  and  C_24
REMARK   14  A    between atoms: C_24  and  C_25
REMARK   15  A    between atoms: C_24  and  C_26
REMARK                            x       y       z     vdW  Elec       q    Type
REMARK                         _______ _______ _______ _____ _____    ______ ____
ROOT
ATOM      1  C   UNL     1       0.824  10.444  18.803  0.00  0.00    +0.000 C 
ENDROOT
BRANCH   1   2
ATOM      2  N   UNL     1       1.390  11.833  18.770  0.00  0.00    +0.000 NA
ATOM      3  C   UNL     1       1.669  12.311  20.147  0.00  0.00    +0.000 C 
ATOM      4  C   UNL     1       2.213  13.742  20.163  0.00  0.00    +0.000 C 
ATOM      5  C   UNL     1       3.459  13.871  19.299  0.00  0.00    +0.000 C 
ATOM      6  C   UNL     1       3.178  13.331  17.905  0.00  0.00    +0.000 C 
ATOM      7  C   UNL     1       2.622  11.907  17.962  0.00  0.00    +0.000 C 
ENDBRANCH   1   2
BRANCH   1   9
ATOM      8  N   UNL     1      -1.438  11.384  18.912  0.00  0.00    +0.000 N 
ATOM      9  C   UNL     1      -0.651  10.407  18.344  0.00  0.00    +0.000 C 
ATOM     10  O   UNL     1      -1.000   9.597  17.487  0.00  0.00    +0.000 OA
ATOM     11  H   UNL     1      -0.920  12.097  19.431  0.00  0.00    +0.000 HD
BRANCH   8  15
ATOM     12  C   UNL     1      -5.604  11.959  18.525  0.00  0.00    +0.000 A 
ATOM     13  C   UNL     1      -4.906  11.225  17.558  0.00  0.00    +0.000 A 
ATOM     14  C   UNL     1      -3.524  11.039  17.657  0.00  0.00    +0.000 A 
ATOM     15  C   UNL     1      -2.813  11.583  18.726  0.00  0.00    +0.000 A 
ATOM     16  C   UNL     1      -3.497  12.338  19.682  0.00  0.00    +0.000 A 
ATOM     17  C   UNL     1      -4.878  12.531  19.579  0.00  0.00    +0.000 A 
BRANCH  12  19
ATOM     18  C   UNL     1      -7.684  11.660  19.844  0.00  0.00    +0.000 C 
ATOM     19  C   UNL     1      -7.121  12.004  18.461  0.00  0.00    +0.000 C 
ATOM     20  C   UNL     1      -7.697  13.333  17.969  0.00  0.00    +0.000 C 
ENDBRANCH  12  19
ENDBRANCH   8  15
ENDBRANCH   1   9
BRANCH   1  21
ATOM     21  C   UNL     1       1.595   9.338  18.050  0.00  0.00    +0.000 C 
BRANCH  21  22
ATOM     22  C   UNL     1       2.102   8.148  18.880  0.00  0.00    +0.000 C 
ATOM     23  O   UNL     1       1.818   8.010  20.071  0.00  0.00    +0.000 OA
BRANCH  22  24
ATOM     24  C   UNL     1       2.972   7.117  18.214  0.00  0.00    +0.000 A 
ATOM     25  C   UNL     1       4.003   7.598  17.384  0.00  0.00    +0.000 A 
ATOM     26  C   UNL     1       4.845   6.737  16.680  0.00  0.00    +0.000 A 
ATOM     27  C   UNL     1       4.671   5.363  16.768  0.00  0.00    +0.000 A 
ATOM     28  C   UNL     1       3.621   4.876  17.561  0.00  0.00    +0.000 A 
ATOM     29  C   UNL     1       2.772   5.716  18.316  0.00  0.00    +0.000 A 
BRANCH  27  30
ATOM     30  C   UNL     1       5.616   4.417  16.053  0.00  0.00    +0.000 C 
ATOM     31  C   UNL     1       5.488   4.580  14.535  0.00  0.00    +0.000 C 
ATOM     32  C   UNL     1       7.067   4.605  16.498  0.00  0.00    +0.000 C 
ENDBRANCH  27  30
BRANCH  29  33
ATOM     33  C   UNL     1       1.703   5.033  19.180  0.00  0.00    +0.000 C 
ATOM     34  C   UNL     1       1.274   3.707  18.537  0.00  0.00    +0.000 C 
ATOM     35  C   UNL     1       2.158   4.724  20.628  0.00  0.00    +0.000 C 
ENDBRANCH  29  33
ENDBRANCH  22  24
ENDBRANCH  21  22
ENDBRANCH   1  21
TORSDOF 9
ENDMDL
MODEL 7
REMARK VINA RESULT:      -8.2      2.447      7.961
REMARK  Name = 
REMARK  15 active torsions:
REMARK  status: ('A' for Active; 'I' for Inactive)
REMARK    1  A    between atoms: C_1  and  C_2
REMARK    2  A    between atoms: C_2  and  C_3
REMARK    3  A    between atoms: C_2  and  C_4
REMARK    4  A    between atoms: C_7  and  N_8
REMARK    5  A    between atoms: C_9  and  C_11
REMARK    6  A    between atoms: C_11  and  C_12
REMARK    7  A    between atoms: C_11  and  N_27
REMARK    8  A    between atoms: C_12  and  C_13
REMARK    9  A    between atoms: C_13  and  C_15
REMARK   10  A    between atoms: C_18  and  C_19
REMARK   11  A    between atoms: C_19  and  C_20
REMARK   12  A    between atoms: C_19  and  C_21
REMARK   13  A    between atoms: C_23  and  C_24
REMARK   14  A    between atoms: C_24  and  C_25
REMARK   15  A    between atoms: C_24  and  C_26
REMARK                            x       y       z     vdW  Elec       q    Type
REMARK                         _______ _______ _______ _____ _____    ______ ____
ROOT
ATOM      1  C   UNL     1       5.725   4.346  15.762  0.00  0.00    +0.000 C 
ENDROOT
BRANCH   1   2
ATOM      2  N   UNL     1       5.974   4.537  14.294  0.00  0.00    +0.000 NA
ATOM      3  C   UNL     1       7.413   4.799  14.044  0.00  0.00    +0.000 C 
ATOM      4  C   UNL     1       7.707   5.039  12.561  0.00  0.00    +0.000 C 
ATOM      5  C   UNL     1       7.228   3.875  11.705  0.00  0.00    +0.000 C 
ATOM      6  C   UNL     1       5.766   3.582  12.007  0.00  0.00    +0.000 C 
ATOM      7  C   UNL     1       5.540   3.370  13.505  0.00  0.00    +0.000 C 
ENDBRANCH   1   2
BRANCH   1   9
ATOM      8  N   UNL     1       6.455   6.439  16.811  0.00  0.00    +0.000 N 
ATOM      9  C   UNL     1       6.753   5.106  16.630  0.00  0.00    +0.000 C 
ATOM     10  O   UNL     1       7.687   4.492  17.142  0.00  0.00    +0.000 OA
ATOM     11  H   UNL     1       5.524   6.712  16.488  0.00  0.00    +0.000 HD
BRANCH   8  15
ATOM     12  C   UNL     1       8.768   9.385  18.762  0.00  0.00    +0.000 A 
ATOM     13  C   UNL     1       8.823   8.053  19.192  0.00  0.00    +0.000 A 
ATOM     14  C   UNL     1       8.053   7.066  18.572  0.00  0.00    +0.000 A 
ATOM     15  C   UNL     1       7.209   7.391  17.510  0.00  0.00    +0.000 A 
ATOM     16  C   UNL     1       7.128   8.721  17.091  0.00  0.00    +0.000 A 
ATOM     17  C   UNL     1       7.893   9.710  17.716  0.00  0.00    +0.000 A 
BRANCH  12  19
ATOM     18  C   UNL     1      10.021  11.479  18.319  0.00  0.00    +0.000 C 
ATOM     19  C   UNL     1       9.735  10.392  19.359  0.00  0.00    +0.000 C 
ATOM     20  C   UNL     1       9.265  11.023  20.671  0.00  0.00    +0.000 C 
ENDBRANCH  12  19
ENDBRANCH   8  15
ENDBRANCH   1   9
BRANCH   1  21
ATOM     21  C   UNL     1       4.310   4.664  16.296  0.00  0.00    +0.000 C 
BRANCH  21  22
ATOM     22  C   UNL     1       4.032   4.346  17.773  0.00  0.00    +0.000 C 
ATOM     23  O   UNL     1       4.437   3.313  18.311  0.00  0.00    +0.000 OA
BRANCH  22  24
ATOM     24  C   UNL     1       3.238   5.330  18.590  0.00  0.00    +0.000 A 
ATOM     25  C   UNL     1       3.341   6.686  18.224  0.00  0.00    +0.000 A 
ATOM     26  C   UNL     1       2.687   7.693  18.934  0.00  0.00    +0.000 A 
ATOM     27  C   UNL     1       1.922   7.377  20.049  0.00  0.00    +0.000 A 
ATOM     28  C   UNL     1       1.845   6.033  20.443  0.00  0.00    +0.000 A 
ATOM     29  C   UNL     1       2.465   4.983  19.727  0.00  0.00    +0.000 A 
BRANCH  27  30
ATOM     30  C   UNL     1       1.160   8.456  20.793  0.00  0.00    +0.000 C 
ATOM     31  C   UNL     1       0.825   9.619  19.854  0.00  0.00    +0.000 C 
ATOM     32  C   UNL     1      -0.107   7.914  21.458  0.00  0.00    +0.000 C 
ENDBRANCH  27  30
BRANCH  29  33
ATOM     33  C   UNL     1       2.246   3.557  20.251  0.00  0.00    +0.000 C 
ATOM     34  C   UNL     1       2.105   3.573  21.779  0.00  0.00    +0.000 C 
ATOM     35  C   UNL     1       0.992   2.854  19.674  0.00  0.00    +0.000 C 
ENDBRANCH  29  33
ENDBRANCH  22  24
ENDBRANCH  21  22
ENDBRANCH   1  21
TORSDOF 9
ENDMDL
MODEL 8
REMARK VINA RESULT:      -8.0      1.555      2.126
REMARK  Name = 
REMARK  15 active torsions:
REMARK  status: ('A' for Active; 'I' for Inactive)
REMARK    1  A    between atoms: C_1  and  C_2
REMARK    2  A    between atoms: C_2  and  C_3
REMARK    3  A    between atoms: C_2  and  C_4
REMARK    4  A    between atoms: C_7  and  N_8
REMARK    5  A    between atoms: C_9  and  C_11
REMARK    6  A    between atoms: C_11  and  C_12
REMARK    7  A    between atoms: C_11  and  N_27
REMARK    8  A    between atoms: C_12  and  C_13
REMARK    9  A    between atoms: C_13  and  C_15
REMARK   10  A    between atoms: C_18  and  C_19
REMARK   11  A    between atoms: C_19  and  C_20
REMARK   12  A    between atoms: C_19  and  C_21
REMARK   13  A    between atoms: C_23  and  C_24
REMARK   14  A    between atoms: C_24  and  C_25
REMARK   15  A    between atoms: C_24  and  C_26
REMARK                            x       y       z     vdW  Elec       q    Type
REMARK                         _______ _______ _______ _____ _____    ______ ____
ROOT
ATOM      1  C   UNL     1       2.682   6.254  18.738  0.00  0.00    +0.000 C 
ENDROOT
BRANCH   1   2
ATOM      2  N   UNL     1       1.881   5.080  19.220  0.00  0.00    +0.000 NA
ATOM      3  C   UNL     1       1.872   4.006  18.197  0.00  0.00    +0.000 C 
ATOM      4  C   UNL     1       1.033   2.801  18.632  0.00  0.00    +0.000 C 
ATOM      5  C   UNL     1       1.505   2.250  19.970  0.00  0.00    +0.000 C 
ATOM      6  C   UNL     1       1.560   3.370  20.997  0.00  0.00    +0.000 C 
ATOM      7  C   UNL     1       2.399   4.546  20.494  0.00  0.00    +0.000 C 
ENDBRANCH   1   2
BRANCH   1   9
ATOM      8  N   UNL     1       1.975   8.576  18.384  0.00  0.00    +0.000 N 
ATOM      9  C   UNL     1       2.168   7.588  19.325  0.00  0.00    +0.000 C 
ATOM     10  O   UNL     1       1.904   7.663  20.524  0.00  0.00    +0.000 OA
ATOM     11  H   UNL     1       2.042   8.256  17.415  0.00  0.00    +0.000 HD
BRANCH   8  15
ATOM     12  C   UNL     1       0.883  12.592  19.098  0.00  0.00    +0.000 A 
ATOM     13  C   UNL     1       0.061  11.552  19.549  0.00  0.00    +0.000 A 
ATOM     14  C   UNL     1       0.394  10.217  19.307  0.00  0.00    +0.000 A 
ATOM     15  C   UNL     1       1.557   9.895  18.608  0.00  0.00    +0.000 A 
ATOM     16  C   UNL     1       2.371  10.925  18.133  0.00  0.00    +0.000 A 
ATOM     17  C   UNL     1       2.034  12.261  18.368  0.00  0.00    +0.000 A 
BRANCH  12  19
ATOM     18  C   UNL     1      -0.345  14.651  18.460  0.00  0.00    +0.000 C 
ATOM     19  C   UNL     1       0.565  14.017  19.517  0.00  0.00    +0.000 C 
ATOM     20  C   UNL     1      -0.065  14.144  20.906  0.00  0.00    +0.000 C 
ENDBRANCH  12  19
ENDBRANCH   8  15
ENDBRANCH   1   9
BRANCH   1  21
ATOM     21  C   UNL     1       4.214   6.201  18.923  0.00  0.00    +0.000 C 
BRANCH  21  22
ATOM     22  C   UNL     1       4.917   4.883  18.562  0.00  0.00    +0.000 C 
ATOM     23  O   UNL     1       5.034   3.959  19.369  0.00  0.00    +0.000 OA
BRANCH  22  24
ATOM     24  C   UNL     1       5.480   4.716  17.177  0.00  0.00    +0.000 A 
ATOM     25  C   UNL     1       4.736   3.923  16.282  0.00  0.00    +0.000 A 
ATOM     26  C   UNL     1       5.180   3.661  14.985  0.00  0.00    +0.000 A 
ATOM     27  C   UNL     1       6.395   4.170  14.546  0.00  0.00    +0.000 A 
ATOM     28  C   UNL     1       7.161   4.928  15.445  0.00  0.00    +0.000 A 
ATOM     29  C   UNL     1       6.727   5.244  16.752  0.00  0.00    +0.000 A 
BRANCH  27  30
ATOM     30  C   UNL     1       6.860   3.940  13.122  0.00  0.00    +0.000 C 
ATOM     31  C   UNL     1       5.692   3.471  12.248  0.00  0.00    +0.000 C 
ATOM     32  C   UNL     1       7.521   5.182  12.522  0.00  0.00    +0.000 C 
ENDBRANCH  27  30
BRANCH  29  33
ATOM     33  C   UNL     1       7.651   6.130  17.599  0.00  0.00    +0.000 C 
ATOM     34  C   UNL     1       7.181   7.589  17.541  0.00  0.00    +0.000 C 
ATOM     35  C   UNL     1       7.727   5.723  19.092  0.00  0.00    +0.000 C 
ENDBRANCH  29  33
ENDBRANCH  22  24
ENDBRANCH  21  22
ENDBRANCH   1  21
TORSDOF 9
ENDMDL
MODEL 9
REMARK VINA RESULT:      -8.0      3.892      9.800
REMARK  Name = 
REMARK  15 active torsions:
REMARK  status: ('A' for Active; 'I' for Inactive)
REMARK    1  A    between atoms: C_1  and  C_2
REMARK    2  A    between atoms: C_2  and  C_3
REMARK    3  A    between atoms: C_2  and  C_4
REMARK    4  A    between atoms: C_7  and  N_8
REMARK    5  A    between atoms: C_9  and  C_11
REMARK    6  A    between atoms: C_11  and  C_12
REMARK    7  A    between atoms: C_11  and  N_27
REMARK    8  A    between atoms: C_12  and  C_13
REMARK    9  A    between atoms: C_13  and  C_15
REMARK   10  A    between atoms: C_18  and  C_19
REMARK   11  A    between atoms: C_19  and  C_20
REMARK   12  A    between atoms: C_19  and  C_21
REMARK   13  A    between atoms: C_23  and  C_24
REMARK   14  A    between atoms: C_24  and  C_25
REMARK   15  A    between atoms: C_24  and  C_26
REMARK                            x       y       z     vdW  Elec       q    Type
REMARK                         _______ _______ _______ _____ _____    ______ ____
ROOT
ATOM      1  C   UNL     1       0.233  10.623  19.669  0.00  0.00    +0.000 C 
ENDROOT
BRANCH   1   2
ATOM      2  N   UNL     1      -1.152  10.506  19.102  0.00  0.00    +0.000 NA
ATOM      3  C   UNL     1      -1.897  11.774  19.293  0.00  0.00    +0.000 C 
ATOM      4  C   UNL     1      -3.331  11.687  18.763  0.00  0.00    +0.000 C 
ATOM      5  C   UNL     1      -3.356  11.277  17.297  0.00  0.00    +0.000 C 
ATOM      6  C   UNL     1      -2.546  10.004  17.105  0.00  0.00    +0.000 C 
ATOM      7  C   UNL     1      -1.133  10.154  17.671  0.00  0.00    +0.000 C 
ENDBRANCH   1   2
BRANCH   1   9
ATOM      8  N   UNL     1       1.609   8.968  18.494  0.00  0.00    +0.000 N 
ATOM      9  C   UNL     1       0.974   9.267  19.680  0.00  0.00    +0.000 C 
ATOM     10  O   UNL     1       1.013   8.604  20.715  0.00  0.00    +0.000 OA
ATOM     11  H   UNL     1       1.644   9.742  17.826  0.00  0.00    +0.000 HD
BRANCH   8  15
ATOM     12  C   UNL     1       3.816   5.536  17.406  0.00  0.00    +0.000 A 
ATOM     13  C   UNL     1       2.559   5.398  18.009  0.00  0.00    +0.000 A 
ATOM     14  C   UNL     1       1.821   6.521  18.394  0.00  0.00    +0.000 A 
ATOM     15  C   UNL     1       2.325   7.804  18.183  0.00  0.00    +0.000 A 
ATOM     16  C   UNL     1       3.588   7.951  17.606  0.00  0.00    +0.000 A 
ATOM     17  C   UNL     1       4.330   6.828  17.228  0.00  0.00    +0.000 A 
BRANCH  12  19
ATOM     18  C   UNL     1       6.015   4.582  16.766  0.00  0.00    +0.000 C 
ATOM     19  C   UNL     1       4.512   4.300  16.865  0.00  0.00    +0.000 C 
ATOM     20  C   UNL     1       4.263   3.026  17.674  0.00  0.00    +0.000 C 
ENDBRANCH  12  19
ENDBRANCH   8  15
ENDBRANCH   1   9
BRANCH   1  21
ATOM     21  C   UNL     1       1.172  11.684  19.054  0.00  0.00    +0.000 C 
BRANCH  21  22
ATOM     22  C   UNL     1       1.526  12.897  19.928  0.00  0.00    +0.000 C 
ATOM     23  O   UNL     1       1.957  12.776  21.076  0.00  0.00    +0.000 OA
BRANCH  22  24
ATOM     24  C   UNL     1       1.342  14.279  19.361  0.00  0.00    +0.000 A 
ATOM     25  C   UNL     1       0.023  14.768  19.300  0.00  0.00    +0.000 A 
ATOM     26  C   UNL     1      -0.276  16.017  18.754  0.00  0.00    +0.000 A 
ATOM     27  C   UNL     1       0.736  16.811  18.232  0.00  0.00    +0.000 A 
ATOM     28  C   UNL     1       2.048  16.315  18.254  0.00  0.00    +0.000 A 
ATOM     29  C   UNL     1       2.392  15.072  18.831  0.00  0.00    +0.000 A 
BRANCH  27  30
ATOM     30  C   UNL     1       0.430  18.194  17.689  0.00  0.00    +0.000 C 
ATOM     31  C   UNL     1       0.954  18.333  16.256  0.00  0.00    +0.000 C 
ATOM     32  C   UNL     1      -1.062  18.523  17.756  0.00  0.00    +0.000 C 
ENDBRANCH  27  30
BRANCH  29  33
ATOM     33  C   UNL     1       3.879  14.689  18.828  0.00  0.00    +0.000 C 
ATOM     34  C   UNL     1       4.585  15.327  17.624  0.00  0.00    +0.000 C 
ATOM     35  C   UNL     1       4.648  15.118  20.102  0.00  0.00    +0.000 C 
ENDBRANCH  29  33
ENDBRANCH  22  24
ENDBRANCH  21  22
ENDBRANCH   1  21
TORSDOF 9
ENDMDL
