MODEL 1
REMARK VINA RESULT:      -7.2      0.000      0.000
REMARK  Name = 
REMARK  6 active torsions:
REMARK  status: ('A' for Active; 'I' for Inactive)
REMARK    1  A    between atoms: C_1  and  O_2
REMARK    2  A    between atoms: O_2  and  C_3
REMARK    3  A    between atoms: N_10  and  C_11
REMARK    4  A    between atoms: C_20  and  O_21
REMARK    5  A    between atoms: O_21  and  C_22
REMARK    6  A    between atoms: C_22  and  C_23
REMARK                            x       y       z     vdW  Elec       q    Type
REMARK                         _______ _______ _______ _____ _____    ______ ____
ROOT
ATOM      1  C   UNL     1       6.022   4.964  16.282  0.00  0.00    +0.000 A 
ATOM      2  C   UNL     1       4.834   4.262  16.519  0.00  0.00    +0.000 A 
ATOM      3  C   UNL     1       3.767   4.817  17.220  0.00  0.00    +0.000 A 
ATOM      4  N   UNL     1       2.702   4.045  17.446  0.00  0.00    +0.000 NA
ATOM      5  C   UNL     1       1.703   4.592  18.144  0.00  0.00    +0.000 A 
ATOM      6  N   UNL     1       1.663   5.843  18.600  0.00  0.00    +0.000 NA
ATOM      7  C   UNL     1       2.728   6.625  18.346  0.00  0.00    +0.000 A 
ATOM      8  N   UNL     1       2.686   7.987  18.765  0.00  0.00    +0.000 N 
ATOM      9  C   UNL     1       3.862   6.141  17.666  0.00  0.00    +0.000 A 
ATOM     10  C   UNL     1       5.051   6.870  17.415  0.00  0.00    +0.000 A 
ATOM     11  C   UNL     1       6.111   6.294  16.710  0.00  0.00    +0.000 A 
ATOM     12  H   UNL     1       2.860   8.582  17.962  0.00  0.00    +0.000 HD
ENDROOT
BRANCH   8  13
ATOM     13  C   UNL     1       1.676   8.514  19.604  0.00  0.00    +0.000 A 
ATOM     14  C   UNL     1       1.476   7.998  20.893  0.00  0.00    +0.000 A 
ATOM     15  C   UNL     1       0.438   8.461  21.703  0.00  0.00    +0.000 A 
ATOM     16  C   UNL     1      -0.414   9.455  21.233  0.00  0.00    +0.000 A 
ATOM     17  C   UNL     1      -0.209   9.992  19.962  0.00  0.00    +0.000 A 
ATOM     18 BR   UNL     1      -1.378  11.332  19.319  0.00  0.00    +0.000 Br
ATOM     19  C   UNL     1       0.834   9.536  19.151  0.00  0.00    +0.000 A 
ENDBRANCH   8  13
BRANCH   1  21
ATOM     20  C   UNL     1       7.204   4.480  14.257  0.00  0.00    +0.000 C 
ATOM     21  O   UNL     1       7.119   4.418  15.676  0.00  0.00    +0.000 OA
ENDBRANCH   1  21
BRANCH  11  22
ATOM     22  O   UNL     1       7.223   7.088  16.581  0.00  0.00    +0.000 OA
BRANCH  22  23
ATOM     23  C   UNL     1       7.842   7.434  17.829  0.00  0.00    +0.000 C 
BRANCH  23  24
ATOM     24  C   UNL     1       8.122   8.929  17.841  0.00  0.00    +0.000 C 
ATOM     25  F   UNL     1       8.919   9.232  18.904  0.00  0.00    +0.000 F 
ENDBRANCH  23  24
ENDBRANCH  22  23
ENDBRANCH  11  22
TORSDOF 5
ENDMDL
MODEL 2
REMARK VINA RESULT:      -7.0      1.124      1.162
REMARK  Name = 
REMARK  6 active torsions:
REMARK  status: ('A' for Active; 'I' for Inactive)
REMARK    1  A    between atoms: C_1  and  O_2
REMARK    2  A    between atoms: O_2  and  C_3
REMARK    3  A    between atoms: N_10  and  C_11
REMARK    4  A    between atoms: C_20  and  O_21
REMARK    5  A    between atoms: O_21  and  C_22
REMARK    6  A    between atoms: C_22  and  C_23
REMARK                            x       y       z     vdW  Elec       q    Type
REMARK                         _______ _______ _______ _____ _____    ______ ____
ROOT
ATOM      1  C   UNL     1       5.242   4.587  17.079  0.00  0.00    +0.000 A 
ATOM      2  C   UNL     1       4.238   3.938  17.809  0.00  0.00    +0.000 A 
ATOM      3  C   UNL     1       3.303   4.633  18.571  0.00  0.00    +0.000 A 
ATOM      4  N   UNL     1       2.425   3.921  19.279  0.00  0.00    +0.000 NA
ATOM      5  C   UNL     1       1.556   4.611  20.023  0.00  0.00    +0.000 A 
ATOM      6  N   UNL     1       1.467   5.938  20.090  0.00  0.00    +0.000 NA
ATOM      7  C   UNL     1       2.338   6.651  19.353  0.00  0.00    +0.000 A 
ATOM      8  N   UNL     1       2.225   8.072  19.355  0.00  0.00    +0.000 N 
ATOM      9  C   UNL     1       3.334   6.033  18.573  0.00  0.00    +0.000 A 
ATOM     10  C   UNL     1       4.332   6.703  17.822  0.00  0.00    +0.000 A 
ATOM     11  C   UNL     1       5.262   5.987  17.064  0.00  0.00    +0.000 A 
ATOM     12  H   UNL     1       2.133   8.395  18.398  0.00  0.00    +0.000 HD
ENDROOT
BRANCH   8  13
ATOM     13  C   UNL     1       1.380   8.787  20.237  0.00  0.00    +0.000 A 
ATOM     14  C   UNL     1       1.367   8.492  21.609  0.00  0.00    +0.000 A 
ATOM     15  C   UNL     1       0.487   9.141  22.477  0.00  0.00    +0.000 A 
ATOM     16  C   UNL     1      -0.391  10.100  21.982  0.00  0.00    +0.000 A 
ATOM     17  C   UNL     1      -0.368  10.417  20.625  0.00  0.00    +0.000 A 
ATOM     18 BR   UNL     1      -1.572  11.710  19.951  0.00  0.00    +0.000 Br
ATOM     19  C   UNL     1       0.517   9.776  19.753  0.00  0.00    +0.000 A 
ENDBRANCH   8  13
BRANCH   1  21
ATOM     20  C   UNL     1       6.071   3.759  14.990  0.00  0.00    +0.000 C 
ATOM     21  O   UNL     1       6.227   3.932  16.394  0.00  0.00    +0.000 OA
ENDBRANCH   1  21
BRANCH  11  22
ATOM     22  O   UNL     1       6.206   6.753  16.427  0.00  0.00    +0.000 OA
BRANCH  22  23
ATOM     23  C   UNL     1       7.462   6.826  17.118  0.00  0.00    +0.000 C 
BRANCH  23  24
ATOM     24  C   UNL     1       7.684   8.258  17.581  0.00  0.00    +0.000 C 
ATOM     25  F   UNL     1       8.576   8.267  18.611  0.00  0.00    +0.000 F 
ENDBRANCH  23  24
ENDBRANCH  22  23
ENDBRANCH  11  22
TORSDOF 5
ENDMDL
MODEL 3
REMARK VINA RESULT:      -6.9      3.375      4.650
REMARK  Name = 
REMARK  6 active torsions:
REMARK  status: ('A' for Active; 'I' for Inactive)
REMARK    1  A    between atoms: C_1  and  O_2
REMARK    2  A    between atoms: O_2  and  C_3
REMARK    3  A    between atoms: N_10  and  C_11
REMARK    4  A    between atoms: C_20  and  O_21
REMARK    5  A    between atoms: O_21  and  C_22
REMARK    6  A    between atoms: C_22  and  C_23
REMARK                            x       y       z     vdW  Elec       q    Type
REMARK                         _______ _______ _______ _____ _____    ______ ____
ROOT
ATOM      1  C   UNL     1       3.639   4.867  18.291  0.00  0.00    +0.000 A 
ATOM      2  C   UNL     1       3.573   6.079  17.593  0.00  0.00    +0.000 A 
ATOM      3  C   UNL     1       2.892   7.188  18.087  0.00  0.00    +0.000 A 
ATOM      4  N   UNL     1       2.836   8.277  17.319  0.00  0.00    +0.000 NA
ATOM      5  C   UNL     1       2.154   9.318  17.804  0.00  0.00    +0.000 A 
ATOM      6  N   UNL     1       1.560   9.375  18.995  0.00  0.00    +0.000 NA
ATOM      7  C   UNL     1       1.643   8.283  19.777  0.00  0.00    +0.000 A 
ATOM      8  N   UNL     1       1.073   8.339  21.082  0.00  0.00    +0.000 N 
ATOM      9  C   UNL     1       2.289   7.108  19.349  0.00  0.00    +0.000 A 
ATOM     10  C   UNL     1       2.367   5.894  20.075  0.00  0.00    +0.000 A 
ATOM     11  C   UNL     1       3.054   4.792  19.561  0.00  0.00    +0.000 A 
ATOM     12  H   UNL     1       1.786   8.096  21.762  0.00  0.00    +0.000 HD
ENDROOT
BRANCH   8  13
ATOM     13  C   UNL     1       0.254   9.402  21.533  0.00  0.00    +0.000 A 
ATOM     14  C   UNL     1      -0.143   9.477  22.876  0.00  0.00    +0.000 A 
ATOM     15  C   UNL     1      -1.008  10.480  23.317  0.00  0.00    +0.000 A 
ATOM     16  C   UNL     1      -1.485  11.427  22.416  0.00  0.00    +0.000 A 
ATOM     17  C   UNL     1      -1.077  11.374  21.084  0.00  0.00    +0.000 A 
ATOM     18 BR   UNL     1      -1.737  12.653  19.858  0.00  0.00    +0.000 Br
ATOM     19  C   UNL     1      -0.204  10.377  20.640  0.00  0.00    +0.000 A 
ENDBRANCH   8  13
BRANCH   1  21
ATOM     20  C   UNL     1       4.988   3.841  16.600  0.00  0.00    +0.000 C 
ATOM     21  O   UNL     1       4.223   3.735  17.794  0.00  0.00    +0.000 OA
ENDBRANCH   1  21
BRANCH  11  22
ATOM     22  O   UNL     1       3.008   3.662  20.339  0.00  0.00    +0.000 OA
BRANCH  22  23
ATOM     23  C   UNL     1       1.701   3.079  20.445  0.00  0.00    +0.000 C 
BRANCH  23  24
ATOM     24  C   UNL     1       1.518   2.076  19.316  0.00  0.00    +0.000 C 
ATOM     25  F   UNL     1       0.300   2.265  18.735  0.00  0.00    +0.000 F 
ENDBRANCH  23  24
ENDBRANCH  22  23
ENDBRANCH  11  22
TORSDOF 5
ENDMDL
MODEL 4
REMARK VINA RESULT:      -6.8      1.061      1.456
REMARK  Name = 
REMARK  6 active torsions:
REMARK  status: ('A' for Active; 'I' for Inactive)
REMARK    1  A    between atoms: C_1  and  O_2
REMARK    2  A    between atoms: O_2  and  C_3
REMARK    3  A    between atoms: N_10  and  C_11
REMARK    4  A    between atoms: C_20  and  O_21
REMARK    5  A    between atoms: O_21  and  C_22
REMARK    6  A    between atoms: C_22  and  C_23
REMARK                            x       y       z     vdW  Elec       q    Type
REMARK                         _______ _______ _______ _____ _____    ______ ____
ROOT
ATOM      1  C   UNL     1       6.173   5.194  16.538  0.00  0.00    +0.000 A 
ATOM      2  C   UNL     1       4.992   4.477  16.764  0.00  0.00    +0.000 A 
ATOM      3  C   UNL     1       3.850   5.069  17.295  0.00  0.00    +0.000 A 
ATOM      4  N   UNL     1       2.795   4.286  17.530  0.00  0.00    +0.000 NA
ATOM      5  C   UNL     1       1.720   4.873  18.064  0.00  0.00    +0.000 A 
ATOM      6  N   UNL     1       1.599   6.169  18.347  0.00  0.00    +0.000 NA
ATOM      7  C   UNL     1       2.657   6.959  18.083  0.00  0.00    +0.000 A 
ATOM      8  N   UNL     1       2.532   8.359  18.315  0.00  0.00    +0.000 N 
ATOM      9  C   UNL     1       3.861   6.442  17.571  0.00  0.00    +0.000 A 
ATOM     10  C   UNL     1       5.044   7.184  17.327  0.00  0.00    +0.000 A 
ATOM     11  C   UNL     1       6.181   6.571  16.795  0.00  0.00    +0.000 A 
ATOM     12  H   UNL     1       2.758   8.854  17.459  0.00  0.00    +0.000 HD
ENDROOT
BRANCH   8  13
ATOM     13  C   UNL     1       1.435   8.945  18.991  0.00  0.00    +0.000 A 
ATOM     14  C   UNL     1       0.468   9.675  18.283  0.00  0.00    +0.000 A 
ATOM     15  C   UNL     1      -0.579  10.317  18.946  0.00  0.00    +0.000 A 
ATOM     16  C   UNL     1      -0.675  10.232  20.331  0.00  0.00    +0.000 A 
ATOM     17  C   UNL     1       0.267   9.488  21.041  0.00  0.00    +0.000 A 
ATOM     18 BR   UNL     1       0.143   9.386  22.925  0.00  0.00    +0.000 Br
ATOM     19  C   UNL     1       1.312   8.837  20.380  0.00  0.00    +0.000 A 
ENDBRANCH   8  13
BRANCH   1  21
ATOM     20  C   UNL     1       7.585   4.585  14.703  0.00  0.00    +0.000 C 
ATOM     21  O   UNL     1       7.337   4.625  16.104  0.00  0.00    +0.000 OA
ENDBRANCH   1  21
BRANCH  11  22
ATOM     22  O   UNL     1       7.273   7.390  16.658  0.00  0.00    +0.000 OA
BRANCH  22  23
ATOM     23  C   UNL     1       7.867   7.786  17.903  0.00  0.00    +0.000 C 
BRANCH  23  24
ATOM     24  C   UNL     1       8.016   9.300  17.916  0.00  0.00    +0.000 C 
ATOM     25  F   UNL     1       9.260   9.628  18.365  0.00  0.00    +0.000 F 
ENDBRANCH  23  24
ENDBRANCH  22  23
ENDBRANCH  11  22
TORSDOF 5
ENDMDL
MODEL 5
REMARK VINA RESULT:      -6.8      4.965      8.517
REMARK  Name = 
REMARK  6 active torsions:
REMARK  status: ('A' for Active; 'I' for Inactive)
REMARK    1  A    between atoms: C_1  and  O_2
REMARK    2  A    between atoms: O_2  and  C_3
REMARK    3  A    between atoms: N_10  and  C_11
REMARK    4  A    between atoms: C_20  and  O_21
REMARK    5  A    between atoms: O_21  and  C_22
REMARK    6  A    between atoms: C_22  and  C_23
REMARK                            x       y       z     vdW  Elec       q    Type
REMARK                         _______ _______ _______ _____ _____    ______ ____
ROOT
ATOM      1  C   UNL     1      -1.521  12.035  19.981  0.00  0.00    +0.000 A 
ATOM      2  C   UNL     1      -0.842  11.453  21.058  0.00  0.00    +0.000 A 
ATOM      3  C   UNL     1       0.058  10.404  20.893  0.00  0.00    +0.000 A 
ATOM      4  N   UNL     1       0.607   9.877  21.989  0.00  0.00    +0.000 NA
ATOM      5  C   UNL     1       1.447   8.854  21.806  0.00  0.00    +0.000 A 
ATOM      6  N   UNL     1       1.808   8.342  20.630  0.00  0.00    +0.000 NA
ATOM      7  C   UNL     1       1.271   8.895  19.527  0.00  0.00    +0.000 A 
ATOM      8  N   UNL     1       1.688   8.410  18.253  0.00  0.00    +0.000 N 
ATOM      9  C   UNL     1       0.333   9.942  19.600  0.00  0.00    +0.000 A 
ATOM     10  C   UNL     1      -0.332  10.537  18.499  0.00  0.00    +0.000 A 
ATOM     11  C   UNL     1      -1.233  11.588  18.685  0.00  0.00    +0.000 A 
ATOM     12  H   UNL     1       2.031   9.189  17.702  0.00  0.00    +0.000 HD
ENDROOT
BRANCH   8  13
ATOM     13  C   UNL     1       2.483   7.251  18.081  0.00  0.00    +0.000 A 
ATOM     14  C   UNL     1       3.825   7.359  17.683  0.00  0.00    +0.000 A 
ATOM     15  C   UNL     1       4.598   6.222  17.441  0.00  0.00    +0.000 A 
ATOM     16  C   UNL     1       4.038   4.959  17.598  0.00  0.00    +0.000 A 
ATOM     17  C   UNL     1       2.712   4.842  18.016  0.00  0.00    +0.000 A 
ATOM     18 BR   UNL     1       1.948   3.124  18.215  0.00  0.00    +0.000 Br
ATOM     19  C   UNL     1       1.937   5.977  18.268  0.00  0.00    +0.000 A 
ENDBRANCH   8  13
BRANCH   1  21
ATOM     20  C   UNL     1      -3.793  12.605  20.479  0.00  0.00    +0.000 C 
ATOM     21  O   UNL     1      -2.475  13.004  20.118  0.00  0.00    +0.000 OA
ENDBRANCH   1  21
BRANCH  11  22
ATOM     22  O   UNL     1      -1.847  12.037  17.544  0.00  0.00    +0.000 OA
BRANCH  22  23
ATOM     23  C   UNL     1      -2.411  10.995  16.735  0.00  0.00    +0.000 C 
BRANCH  23  24
ATOM     24  C   UNL     1      -3.720  10.540  17.363  0.00  0.00    +0.000 C 
ATOM     25  F   UNL     1      -3.588   9.259  17.808  0.00  0.00    +0.000 F 
ENDBRANCH  23  24
ENDBRANCH  22  23
ENDBRANCH  11  22
TORSDOF 5
ENDMDL
MODEL 6
REMARK VINA RESULT:      -6.7      4.960      8.451
REMARK  Name = 
REMARK  6 active torsions:
REMARK  status: ('A' for Active; 'I' for Inactive)
REMARK    1  A    between atoms: C_1  and  O_2
REMARK    2  A    between atoms: O_2  and  C_3
REMARK    3  A    between atoms: N_10  and  C_11
REMARK    4  A    between atoms: C_20  and  O_21
REMARK    5  A    between atoms: O_21  and  C_22
REMARK    6  A    between atoms: C_22  and  C_23
REMARK                            x       y       z     vdW  Elec       q    Type
REMARK                         _______ _______ _______ _____ _____    ______ ____
ROOT
ATOM      1  C   UNL     1      -1.539  11.950  19.933  0.00  0.00    +0.000 A 
ATOM      2  C   UNL     1      -0.881  11.340  21.008  0.00  0.00    +0.000 A 
ATOM      3  C   UNL     1       0.023  10.296  20.833  0.00  0.00    +0.000 A 
ATOM      4  N   UNL     1       0.551   9.741  21.926  0.00  0.00    +0.000 NA
ATOM      5  C   UNL     1       1.396   8.724  21.732  0.00  0.00    +0.000 A 
ATOM      6  N   UNL     1       1.780   8.243  20.551  0.00  0.00    +0.000 NA
ATOM      7  C   UNL     1       1.265   8.824  19.452  0.00  0.00    +0.000 A 
ATOM      8  N   UNL     1       1.708   8.373  18.175  0.00  0.00    +0.000 N 
ATOM      9  C   UNL     1       0.324   9.868  19.534  0.00  0.00    +0.000 A 
ATOM     10  C   UNL     1      -0.319  10.491  18.436  0.00  0.00    +0.000 A 
ATOM     11  C   UNL     1      -1.225  11.537  18.633  0.00  0.00    +0.000 A 
ATOM     12  H   UNL     1       2.060   9.167  17.651  0.00  0.00    +0.000 HD
ENDROOT
BRANCH   8  13
ATOM     13  C   UNL     1       2.508   7.220  17.988  0.00  0.00    +0.000 A 
ATOM     14  C   UNL     1       1.965   5.938  18.164  0.00  0.00    +0.000 A 
ATOM     15  C   UNL     1       2.761   4.797  18.052  0.00  0.00    +0.000 A 
ATOM     16  C   UNL     1       4.114   4.925  17.756  0.00  0.00    +0.000 A 
ATOM     17  C   UNL     1       4.657   6.193  17.555  0.00  0.00    +0.000 A 
ATOM     18 BR   UNL     1       6.500   6.365  17.167  0.00  0.00    +0.000 Br
ATOM     19  C   UNL     1       3.862   7.338  17.658  0.00  0.00    +0.000 A 
ENDBRANCH   8  13
BRANCH   1  21
ATOM     20  C   UNL     1      -3.774  12.526  20.569  0.00  0.00    +0.000 C 
ATOM     21  O   UNL     1      -2.497  12.914  20.077  0.00  0.00    +0.000 OA
ENDBRANCH   1  21
BRANCH  11  22
ATOM     22  O   UNL     1      -1.817  12.016  17.491  0.00  0.00    +0.000 OA
BRANCH  22  23
ATOM     23  C   UNL     1      -2.989  11.291  17.092  0.00  0.00    +0.000 C 
BRANCH  23  24
ATOM     24  C   UNL     1      -2.802  10.803  15.663  0.00  0.00    +0.000 C 
ATOM     25  F   UNL     1      -2.491   9.476  15.675  0.00  0.00    +0.000 F 
ENDBRANCH  23  24
ENDBRANCH  22  23
ENDBRANCH  11  22
TORSDOF 5
ENDMDL
MODEL 7
REMARK VINA RESULT:      -6.7      2.545      3.128
REMARK  Name = 
REMARK  6 active torsions:
REMARK  status: ('A' for Active; 'I' for Inactive)
REMARK    1  A    between atoms: C_1  and  O_2
REMARK    2  A    between atoms: O_2  and  C_3
REMARK    3  A    between atoms: N_10  and  C_11
REMARK    4  A    between atoms: C_20  and  O_21
REMARK    5  A    between atoms: O_21  and  C_22
REMARK    6  A    between atoms: C_22  and  C_23
REMARK                            x       y       z     vdW  Elec       q    Type
REMARK                         _______ _______ _______ _____ _____    ______ ____
ROOT
ATOM      1  C   UNL     1       5.406   5.052  17.947  0.00  0.00    +0.000 A 
ATOM      2  C   UNL     1       4.545   4.943  19.046  0.00  0.00    +0.000 A 
ATOM      3  C   UNL     1       3.523   5.857  19.287  0.00  0.00    +0.000 A 
ATOM      4  N   UNL     1       2.797   5.699  20.395  0.00  0.00    +0.000 NA
ATOM      5  C   UNL     1       1.840   6.605  20.617  0.00  0.00    +0.000 A 
ATOM      6  N   UNL     1       1.527   7.623  19.816  0.00  0.00    +0.000 NA
ATOM      7  C   UNL     1       2.246   7.760  18.687  0.00  0.00    +0.000 A 
ATOM      8  N   UNL     1       1.891   8.801  17.780  0.00  0.00    +0.000 N 
ATOM      9  C   UNL     1       3.314   6.898  18.375  0.00  0.00    +0.000 A 
ATOM     10  C   UNL     1       4.165   7.009  17.247  0.00  0.00    +0.000 A 
ATOM     11  C   UNL     1       5.186   6.081  17.023  0.00  0.00    +0.000 A 
ATOM     12  H   UNL     1       1.722   8.395  16.865  0.00  0.00    +0.000 HD
ENDROOT
BRANCH   8  13
ATOM     13  C   UNL     1       0.957   9.819  18.086  0.00  0.00    +0.000 A 
ATOM     14  C   UNL     1       1.361  10.976  18.771  0.00  0.00    +0.000 A 
ATOM     15  C   UNL     1       0.436  11.953  19.141  0.00  0.00    +0.000 A 
ATOM     16  C   UNL     1      -0.908  11.789  18.824  0.00  0.00    +0.000 A 
ATOM     17  C   UNL     1      -1.315  10.655  18.122  0.00  0.00    +0.000 A 
ATOM     18 BR   UNL     1      -3.145  10.426  17.706  0.00  0.00    +0.000 Br
ATOM     19  C   UNL     1      -0.391   9.677  17.743  0.00  0.00    +0.000 A 
ENDBRANCH   8  13
BRANCH   1  21
ATOM     20  C   UNL     1       7.764   4.677  18.121  0.00  0.00    +0.000 C 
ATOM     21  O   UNL     1       6.472   4.225  17.731  0.00  0.00    +0.000 OA
ENDBRANCH   1  21
BRANCH  11  22
ATOM     22  O   UNL     1       5.970   6.333  15.925  0.00  0.00    +0.000 OA
BRANCH  22  23
ATOM     23  C   UNL     1       5.692   5.484  14.802  0.00  0.00    +0.000 C 
BRANCH  23  24
ATOM     24  C   UNL     1       6.965   4.743  14.420  0.00  0.00    +0.000 C 
ATOM     25  F   UNL     1       7.361   5.135  13.176  0.00  0.00    +0.000 F 
ENDBRANCH  23  24
ENDBRANCH  22  23
ENDBRANCH  11  22
TORSDOF 5
ENDMDL
MODEL 8
REMARK VINA RESULT:      -6.6      2.686      3.311
REMARK  Name = 
REMARK  6 active torsions:
REMARK  status: ('A' for Active; 'I' for Inactive)
REMARK    1  A    between atoms: C_1  and  O_2
REMARK    2  A    between atoms: O_2  and  C_3
REMARK    3  A    between atoms: N_10  and  C_11
REMARK    4  A    between atoms: C_20  and  O_21
REMARK    5  A    between atoms: O_21  and  C_22
REMARK    6  A    between atoms: C_22  and  C_23
REMARK                            x       y       z     vdW  Elec       q    Type
REMARK                         _______ _______ _______ _____ _____    ______ ____
ROOT
ATOM      1  C   UNL     1       5.325   5.053  17.930  0.00  0.00    +0.000 A 
ATOM      2  C   UNL     1       4.479   4.959  19.042  0.00  0.00    +0.000 A 
ATOM      3  C   UNL     1       3.480   5.893  19.301  0.00  0.00    +0.000 A 
ATOM      4  N   UNL     1       2.767   5.747  20.419  0.00  0.00    +0.000 NA
ATOM      5  C   UNL     1       1.832   6.672  20.658  0.00  0.00    +0.000 A 
ATOM      6  N   UNL     1       1.529   7.698  19.864  0.00  0.00    +0.000 NA
ATOM      7  C   UNL     1       2.233   7.824  18.724  0.00  0.00    +0.000 A 
ATOM      8  N   UNL     1       1.886   8.874  17.825  0.00  0.00    +0.000 N 
ATOM      9  C   UNL     1       3.278   6.941  18.394  0.00  0.00    +0.000 A 
ATOM     10  C   UNL     1       4.114   7.037  17.253  0.00  0.00    +0.000 A 
ATOM     11  C   UNL     1       5.112   6.089  17.012  0.00  0.00    +0.000 A 
ATOM     12  H   UNL     1       1.695   8.474  16.913  0.00  0.00    +0.000 HD
ENDROOT
BRANCH   8  13
ATOM     13  C   UNL     1       0.978   9.911  18.148  0.00  0.00    +0.000 A 
ATOM     14  C   UNL     1      -0.396   9.757  17.908  0.00  0.00    +0.000 A 
ATOM     15  C   UNL     1      -1.291  10.798  18.155  0.00  0.00    +0.000 A 
ATOM     16  C   UNL     1      -0.823  12.010  18.653  0.00  0.00    +0.000 A 
ATOM     17  C   UNL     1       0.538  12.164  18.917  0.00  0.00    +0.000 A 
ATOM     18 BR   UNL     1       1.175  13.816  19.579  0.00  0.00    +0.000 Br
ATOM     19  C   UNL     1       1.437  11.121  18.679  0.00  0.00    +0.000 A 
ENDBRANCH   8  13
BRANCH   1  21
ATOM     20  C   UNL     1       7.686   4.660  17.993  0.00  0.00    +0.000 C 
ATOM     21  O   UNL     1       6.371   4.205  17.696  0.00  0.00    +0.000 OA
ENDBRANCH   1  21
BRANCH  11  22
ATOM     22  O   UNL     1       5.885   6.328  15.903  0.00  0.00    +0.000 OA
BRANCH  22  23
ATOM     23  C   UNL     1       5.560   5.500  14.776  0.00  0.00    +0.000 C 
BRANCH  23  24
ATOM     24  C   UNL     1       6.819   4.776  14.321  0.00  0.00    +0.000 C 
ATOM     25  F   UNL     1       6.479   3.566  13.795  0.00  0.00    +0.000 F 
ENDBRANCH  23  24
ENDBRANCH  22  23
ENDBRANCH  11  22
TORSDOF 5
ENDMDL
MODEL 9
REMARK VINA RESULT:      -6.6      3.152      4.570
REMARK  Name = 
REMARK  6 active torsions:
REMARK  status: ('A' for Active; 'I' for Inactive)
REMARK    1  A    between atoms: C_1  and  O_2
REMARK    2  A    between atoms: O_2  and  C_3
REMARK    3  A    between atoms: N_10  and  C_11
REMARK    4  A    between atoms: C_20  and  O_21
REMARK    5  A    between atoms: O_21  and  C_22
REMARK    6  A    between atoms: C_22  and  C_23
REMARK                            x       y       z     vdW  Elec       q    Type
REMARK                         _______ _______ _______ _____ _____    ______ ____
ROOT
ATOM      1  C   UNL     1       3.653   5.317  18.157  0.00  0.00    +0.000 A 
ATOM      2  C   UNL     1       3.528   6.541  17.489  0.00  0.00    +0.000 A 
ATOM      3  C   UNL     1       2.810   7.610  18.020  0.00  0.00    +0.000 A 
ATOM      4  N   UNL     1       2.699   8.713  17.278  0.00  0.00    +0.000 NA
ATOM      5  C   UNL     1       1.983   9.714  17.798  0.00  0.00    +0.000 A 
ATOM      6  N   UNL     1       1.405   9.719  18.998  0.00  0.00    +0.000 NA
ATOM      7  C   UNL     1       1.544   8.613  19.753  0.00  0.00    +0.000 A 
ATOM      8  N   UNL     1       0.991   8.615  21.066  0.00  0.00    +0.000 N 
ATOM      9  C   UNL     1       2.230   7.476  19.287  0.00  0.00    +0.000 A 
ATOM     10  C   UNL     1       2.367   6.249  19.983  0.00  0.00    +0.000 A 
ATOM     11  C   UNL     1       3.091   5.188  19.433  0.00  0.00    +0.000 A 
ATOM     12  H   UNL     1       1.724   8.386  21.730  0.00  0.00    +0.000 HD
ENDROOT
BRANCH   8  13
ATOM     13  C   UNL     1       0.137   9.633  21.554  0.00  0.00    +0.000 A 
ATOM     14  C   UNL     1      -0.226   9.673  22.909  0.00  0.00    +0.000 A 
ATOM     15  C   UNL     1      -1.124  10.629  23.386  0.00  0.00    +0.000 A 
ATOM     16  C   UNL     1      -1.668  11.564  22.512  0.00  0.00    +0.000 A 
ATOM     17  C   UNL     1      -1.294  11.548  21.169  0.00  0.00    +0.000 A 
ATOM     18 BR   UNL     1      -2.045  12.811  19.979  0.00  0.00    +0.000 Br
ATOM     19  C   UNL     1      -0.389  10.598  20.688  0.00  0.00    +0.000 A 
ENDBRANCH   8  13
BRANCH   1  21
ATOM     20  C   UNL     1       5.668   4.303  17.356  0.00  0.00    +0.000 C 
ATOM     21  O   UNL     1       4.273   4.221  17.625  0.00  0.00    +0.000 OA
ENDBRANCH   1  21
BRANCH  11  22
ATOM     22  O   UNL     1       3.101   4.040  20.184  0.00  0.00    +0.000 OA
BRANCH  22  23
ATOM     23  C   UNL     1       1.997   3.161  19.923  0.00  0.00    +0.000 C 
BRANCH  23  24
ATOM     24  C   UNL     1       1.312   2.829  21.241  0.00  0.00    +0.000 C 
ATOM     25  F   UNL     1       2.015   3.382  22.269  0.00  0.00    +0.000 F 
ENDBRANCH  23  24
ENDBRANCH  22  23
ENDBRANCH  11  22
TORSDOF 5
ENDMDL
