MODEL 1
REMARK VINA RESULT:      -7.3      0.000      0.000
REMARK  Name = 
REMARK  6 active torsions:
REMARK  status: ('A' for Active; 'I' for Inactive)
REMARK    1  A    between atoms: C_1  and  C_2
REMARK    2  A    between atoms: C_2  and  N_3
REMARK    3  A    between atoms: N_5  and  C_6
REMARK    4  A    between atoms: C_6  and  C_7
REMARK    5  A    between atoms: C_6  and  C_8
REMARK    6  A    between atoms: C_11  and  C_12
REMARK                            x       y       z     vdW  Elec       q    Type
REMARK                         _______ _______ _______ _____ _____    ______ ____
ROOT
ATOM      1  N   UNL     1      -5.313  12.347  18.746  0.00  0.00    +0.000 N 
ATOM      2  C   UNL     1      -4.114  11.788  18.262  0.00  0.00    +0.000 A 
ATOM      3  N   UNL     1      -4.101  11.121  17.047  0.00  0.00    +0.000 N 
ATOM      4  N   UNL     1      -2.981  11.879  18.906  0.00  0.00    +0.000 NA
ATOM      5  C   UNL     1      -3.014  12.530  20.139  0.00  0.00    +0.000 A 
ATOM      6  C   UNL     1      -1.960  12.453  21.093  0.00  0.00    +0.000 A 
ATOM      7  C   UNL     1      -2.245  13.256  22.182  0.00  0.00    +0.000 A 
ATOM      8  S   UNL     1      -3.803  13.990  22.056  0.00  0.00    +0.000 S 
ATOM      9  C   UNL     1      -4.090  13.229  20.571  0.00  0.00    +0.000 A 
ATOM     10  C   UNL     1      -5.326  13.228  19.855  0.00  0.00    +0.000 A 
ATOM     11  O   UNL     1      -6.309  13.894  20.174  0.00  0.00    +0.000 OA
ATOM     12  H   UNL     1      -4.852  10.469  16.864  0.00  0.00    +0.000 HD
ENDROOT
BRANCH   6  13
ATOM     13  C   UNL     1      -0.767  11.574  20.871  0.00  0.00    +0.000 C 
ATOM     14  C   UNL     1      -1.099  10.086  21.021  0.00  0.00    +0.000 C 
ATOM     15  C   UNL     1       0.212   9.297  21.058  0.00  0.00    +0.000 C 
ATOM     16  N   UNL     1       0.935   9.612  19.825  0.00  0.00    +0.000 N 
ATOM     17  C   UNL     1       1.750   8.634  19.285  0.00  0.00    +0.000 A 
ATOM     18  C   UNL     1       2.105   8.709  17.938  0.00  0.00    +0.000 A 
ATOM     19  C   UNL     1       2.845   7.691  17.348  0.00  0.00    +0.000 A 
ATOM     20  C   UNL     1       3.229   6.609  18.119  0.00  0.00    +0.000 A 
ATOM     21  C   UNL     1       2.838   6.598  19.446  0.00  0.00    +0.000 A 
ATOM     22  N   UNL     1       2.113   7.570  20.034  0.00  0.00    +0.000 NA
ATOM     23  C   UNL     1       1.297  11.017  19.632  0.00  0.00    +0.000 C 
ATOM     24  C   UNL     1      -0.003  11.819  19.563  0.00  0.00    +0.000 C 
ENDBRANCH   6  13
BRANCH   3  25
ATOM     25  C   UNL     1      -2.862  10.874  16.296  0.00  0.00    +0.000 C 
ATOM     26  C   UNL     1      -1.966   9.829  16.955  0.00  0.00    +0.000 C 
ATOM     27  C   UNL     1      -3.201  10.422  14.874  0.00  0.00    +0.000 C 
ENDBRANCH   3  25
BRANCH   1  29
ATOM     28  C   UNL     1      -6.961  13.080  17.017  0.00  0.00    +0.000 C 
ATOM     29  C   UNL     1      -6.616  12.114  18.136  0.00  0.00    +0.000 C 
ENDBRANCH   1  29
TORSDOF 3
ENDMDL
MODEL 2
REMARK VINA RESULT:      -7.2      1.420      1.695
REMARK  Name = 
REMARK  6 active torsions:
REMARK  status: ('A' for Active; 'I' for Inactive)
REMARK    1  A    between atoms: C_1  and  C_2
REMARK    2  A    between atoms: C_2  and  N_3
REMARK    3  A    between atoms: N_5  and  C_6
REMARK    4  A    between atoms: C_6  and  C_7
REMARK    5  A    between atoms: C_6  and  C_8
REMARK    6  A    between atoms: C_11  and  C_12
REMARK                            x       y       z     vdW  Elec       q    Type
REMARK                         _______ _______ _______ _____ _____    ______ ____
ROOT
ATOM      1  N   UNL     1      -5.456  13.054  20.708  0.00  0.00    +0.000 N 
ATOM      2  C   UNL     1      -4.407  12.442  19.994  0.00  0.00    +0.000 A 
ATOM      3  N   UNL     1      -4.671  11.779  18.806  0.00  0.00    +0.000 N 
ATOM      4  N   UNL     1      -3.163  12.479  20.393  0.00  0.00    +0.000 NA
ATOM      5  C   UNL     1      -2.915  13.126  21.603  0.00  0.00    +0.000 A 
ATOM      6  C   UNL     1      -1.694  12.998  22.324  0.00  0.00    +0.000 A 
ATOM      7  C   UNL     1      -1.714  13.809  23.442  0.00  0.00    +0.000 A 
ATOM      8  S   UNL     1      -3.231  14.615  23.632  0.00  0.00    +0.000 S 
ATOM      9  C   UNL     1      -3.848  13.872  22.240  0.00  0.00    +0.000 A 
ATOM     10  C   UNL     1      -5.202  13.931  21.790  0.00  0.00    +0.000 A 
ATOM     11  O   UNL     1      -6.069  14.639  22.300  0.00  0.00    +0.000 OA
ATOM     12  H   UNL     1      -5.472  11.163  18.783  0.00  0.00    +0.000 HD
ENDROOT
BRANCH   6  13
ATOM     13  C   UNL     1      -0.613  12.066  21.869  0.00  0.00    +0.000 C 
ATOM     14  C   UNL     1      -1.008  10.593  22.014  0.00  0.00    +0.000 C 
ATOM     15  C   UNL     1       0.239   9.732  21.797  0.00  0.00    +0.000 C 
ATOM     16  N   UNL     1       0.765  10.066  20.474  0.00  0.00    +0.000 N 
ATOM     17  C   UNL     1       1.415   9.073  19.766  0.00  0.00    +0.000 A 
ATOM     18  C   UNL     1       1.546   9.194  18.382  0.00  0.00    +0.000 A 
ATOM     19  C   UNL     1       2.112   8.168  17.636  0.00  0.00    +0.000 A 
ATOM     20  C   UNL     1       2.550   7.030  18.288  0.00  0.00    +0.000 A 
ATOM     21  C   UNL     1       2.385   6.974  19.660  0.00  0.00    +0.000 A 
ATOM     22  N   UNL     1       1.830   7.955  20.401  0.00  0.00    +0.000 NA
ATOM     23  C   UNL     1       1.178  11.457  20.278  0.00  0.00    +0.000 C 
ATOM     24  C   UNL     1      -0.062  12.333  20.462  0.00  0.00    +0.000 C 
ENDBRANCH   6  13
BRANCH   3  25
ATOM     25  C   UNL     1      -3.623  11.479  17.820  0.00  0.00    +0.000 C 
ATOM     26  C   UNL     1      -2.928  10.146  18.081  0.00  0.00    +0.000 C 
ATOM     27  C   UNL     1      -4.226  11.465  16.413  0.00  0.00    +0.000 C 
ENDBRANCH   3  25
BRANCH   1  29
ATOM     28  C   UNL     1      -7.535  11.723  21.091  0.00  0.00    +0.000 C 
ATOM     29  C   UNL     1      -6.864  12.882  20.376  0.00  0.00    +0.000 C 
ENDBRANCH   1  29
TORSDOF 3
ENDMDL
MODEL 3
REMARK VINA RESULT:      -7.0      5.288      9.449
REMARK  Name = 
REMARK  6 active torsions:
REMARK  status: ('A' for Active; 'I' for Inactive)
REMARK    1  A    between atoms: C_1  and  C_2
REMARK    2  A    between atoms: C_2  and  N_3
REMARK    3  A    between atoms: N_5  and  C_6
REMARK    4  A    between atoms: C_6  and  C_7
REMARK    5  A    between atoms: C_6  and  C_8
REMARK    6  A    between atoms: C_11  and  C_12
REMARK                            x       y       z     vdW  Elec       q    Type
REMARK                         _______ _______ _______ _____ _____    ______ ____
ROOT
ATOM      1  N   UNL     1       3.430   3.282  17.759  0.00  0.00    +0.000 N 
ATOM      2  C   UNL     1       2.612   3.860  18.750  0.00  0.00    +0.000 A 
ATOM      3  N   UNL     1       1.859   3.052  19.586  0.00  0.00    +0.000 N 
ATOM      4  N   UNL     1       2.535   5.151  18.938  0.00  0.00    +0.000 NA
ATOM      5  C   UNL     1       3.277   5.954  18.073  0.00  0.00    +0.000 A 
ATOM      6  C   UNL     1       3.075   7.357  17.940  0.00  0.00    +0.000 A 
ATOM      7  C   UNL     1       4.004   7.891  17.066  0.00  0.00    +0.000 A 
ATOM      8  S   UNL     1       5.013   6.673  16.370  0.00  0.00    +0.000 S 
ATOM      9  C   UNL     1       4.203   5.453  17.222  0.00  0.00    +0.000 A 
ATOM     10  C   UNL     1       4.384   4.048  17.046  0.00  0.00    +0.000 A 
ATOM     11  O   UNL     1       5.250   3.547  16.331  0.00  0.00    +0.000 OA
ATOM     12  H   UNL     1       1.352   2.286  19.163  0.00  0.00    +0.000 HD
ENDROOT
BRANCH   6  13
ATOM     13  C   UNL     1       1.968   8.059  18.664  0.00  0.00    +0.000 C 
ATOM     14  C   UNL     1       2.122   7.986  20.187  0.00  0.00    +0.000 C 
ATOM     15  C   UNL     1       0.823   8.473  20.832  0.00  0.00    +0.000 C 
ATOM     16  N   UNL     1       0.581   9.828  20.335  0.00  0.00    +0.000 N 
ATOM     17  C   UNL     1      -0.072  10.716  21.170  0.00  0.00    +0.000 A 
ATOM     18  C   UNL     1       0.053  12.087  20.940  0.00  0.00    +0.000 A 
ATOM     19  C   UNL     1      -0.516  13.002  21.817  0.00  0.00    +0.000 A 
ATOM     20  C   UNL     1      -1.213  12.532  22.915  0.00  0.00    +0.000 A 
ATOM     21  C   UNL     1      -1.293  11.161  23.084  0.00  0.00    +0.000 A 
ATOM     22  N   UNL     1      -0.741  10.257  22.250  0.00  0.00    +0.000 NA
ATOM     23  C   UNL     1       0.406   9.962  18.888  0.00  0.00    +0.000 C 
ATOM     24  C   UNL     1       1.708   9.506  18.226  0.00  0.00    +0.000 C 
ENDBRANCH   6  13
BRANCH   3  25
ATOM     25  C   UNL     1       1.317   3.528  20.866  0.00  0.00    +0.000 C 
ATOM     26  C   UNL     1       1.204   2.423  21.912  0.00  0.00    +0.000 C 
ATOM     27  C   UNL     1       2.200   4.651  21.415  0.00  0.00    +0.000 C 
ENDBRANCH   3  25
BRANCH   1  29
ATOM     28  C   UNL     1       4.009   0.960  18.476  0.00  0.00    +0.000 C 
ATOM     29  C   UNL     1       3.404   1.866  17.418  0.00  0.00    +0.000 C 
ENDBRANCH   1  29
TORSDOF 3
ENDMDL
MODEL 4
REMARK VINA RESULT:      -6.8      3.407      5.244
REMARK  Name = 
REMARK  6 active torsions:
REMARK  status: ('A' for Active; 'I' for Inactive)
REMARK    1  A    between atoms: C_1  and  C_2
REMARK    2  A    between atoms: C_2  and  N_3
REMARK    3  A    between atoms: N_5  and  C_6
REMARK    4  A    between atoms: C_6  and  C_7
REMARK    5  A    between atoms: C_6  and  C_8
REMARK    6  A    between atoms: C_11  and  C_12
REMARK                            x       y       z     vdW  Elec       q    Type
REMARK                         _______ _______ _______ _____ _____    ______ ____
ROOT
ATOM      1  N   UNL     1      -6.018  12.336  20.045  0.00  0.00    +0.000 N 
ATOM      2  C   UNL     1      -4.984  12.711  20.925  0.00  0.00    +0.000 A 
ATOM      3  N   UNL     1      -5.289  13.226  22.175  0.00  0.00    +0.000 N 
ATOM      4  N   UNL     1      -3.719  12.584  20.624  0.00  0.00    +0.000 NA
ATOM      5  C   UNL     1      -3.426  12.090  19.354  0.00  0.00    +0.000 A 
ATOM      6  C   UNL     1      -2.134  12.173  18.760  0.00  0.00    +0.000 A 
ATOM      7  C   UNL     1      -2.133  11.537  17.533  0.00  0.00    +0.000 A 
ATOM      8  S   UNL     1      -3.702  10.952  17.104  0.00  0.00    +0.000 S 
ATOM      9  C   UNL     1      -4.367  11.558  18.539  0.00  0.00    +0.000 A 
ATOM     10  C   UNL     1      -5.757  11.598  18.866  0.00  0.00    +0.000 A 
ATOM     11  O   UNL     1      -6.641  11.077  18.188  0.00  0.00    +0.000 OA
ATOM     12  H   UNL     1      -6.019  13.923  22.228  0.00  0.00    +0.000 HD
ENDROOT
BRANCH   6  13
ATOM     13  C   UNL     1      -1.009  12.895  19.435  0.00  0.00    +0.000 C 
ATOM     14  C   UNL     1      -0.005  11.939  20.086  0.00  0.00    +0.000 C 
ATOM     15  C   UNL     1       0.936  12.755  20.977  0.00  0.00    +0.000 C 
ATOM     16  N   UNL     1       1.562  13.765  20.124  0.00  0.00    +0.000 N 
ATOM     17  C   UNL     1       2.845  14.173  20.439  0.00  0.00    +0.000 A 
ATOM     18  C   UNL     1       3.629  14.779  19.457  0.00  0.00    +0.000 A 
ATOM     19  C   UNL     1       4.952  15.113  19.720  0.00  0.00    +0.000 A 
ATOM     20  C   UNL     1       5.474  14.843  20.972  0.00  0.00    +0.000 A 
ATOM     21  C   UNL     1       4.642  14.236  21.896  0.00  0.00    +0.000 A 
ATOM     22  N   UNL     1       3.360  13.896  21.657  0.00  0.00    +0.000 NA
ATOM     23  C   UNL     1       0.655  14.722  19.487  0.00  0.00    +0.000 C 
ATOM     24  C   UNL     1      -0.275  13.927  18.569  0.00  0.00    +0.000 C 
ENDBRANCH   6  13
BRANCH   3  25
ATOM     25  C   UNL     1      -4.315  13.257  23.275  0.00  0.00    +0.000 C 
ATOM     26  C   UNL     1      -4.011  14.671  23.759  0.00  0.00    +0.000 C 
ATOM     27  C   UNL     1      -4.834  12.424  24.448  0.00  0.00    +0.000 C 
ENDBRANCH   3  25
BRANCH   1  29
ATOM     28  C   UNL     1      -7.890  13.962  19.735  0.00  0.00    +0.000 C 
ATOM     29  C   UNL     1      -7.426  12.625  20.286  0.00  0.00    +0.000 C 
ENDBRANCH   1  29
TORSDOF 3
ENDMDL
MODEL 5
REMARK VINA RESULT:      -6.7      1.625      2.747
REMARK  Name = 
REMARK  6 active torsions:
REMARK  status: ('A' for Active; 'I' for Inactive)
REMARK    1  A    between atoms: C_1  and  C_2
REMARK    2  A    between atoms: C_2  and  N_3
REMARK    3  A    between atoms: N_5  and  C_6
REMARK    4  A    between atoms: C_6  and  C_7
REMARK    5  A    between atoms: C_6  and  C_8
REMARK    6  A    between atoms: C_11  and  C_12
REMARK                            x       y       z     vdW  Elec       q    Type
REMARK                         _______ _______ _______ _____ _____    ______ ____
ROOT
ATOM      1  N   UNL     1      -3.613  12.291  19.419  0.00  0.00    +0.000 N 
ATOM      2  C   UNL     1      -2.888  11.468  18.536  0.00  0.00    +0.000 A 
ATOM      3  N   UNL     1      -3.393  11.190  17.275  0.00  0.00    +0.000 N 
ATOM      4  N   UNL     1      -1.727  10.952  18.842  0.00  0.00    +0.000 NA
ATOM      5  C   UNL     1      -1.244  11.219  20.122  0.00  0.00    +0.000 A 
ATOM      6  C   UNL     1      -0.167  10.501  20.717  0.00  0.00    +0.000 A 
ATOM      7  C   UNL     1       0.133  11.036  21.956  0.00  0.00    +0.000 A 
ATOM      8  S   UNL     1      -0.949  12.311  22.392  0.00  0.00    +0.000 S 
ATOM      9  C   UNL     1      -1.811  12.133  20.944  0.00  0.00    +0.000 A 
ATOM     10  C   UNL     1      -3.036  12.787  20.613  0.00  0.00    +0.000 A 
ATOM     11  O   UNL     1      -3.556  13.666  21.298  0.00  0.00    +0.000 OA
ATOM     12  H   UNL     1      -4.371  10.943  17.208  0.00  0.00    +0.000 HD
ENDROOT
BRANCH   6  13
ATOM     13  C   UNL     1       0.464   9.329  20.032  0.00  0.00    +0.000 C 
ATOM     14  C   UNL     1       1.501   9.749  18.985  0.00  0.00    +0.000 C 
ATOM     15  C   UNL     1       1.878   8.521  18.153  0.00  0.00    +0.000 C 
ATOM     16  N   UNL     1       2.370   7.507  19.087  0.00  0.00    +0.000 N 
ATOM     17  C   UNL     1       3.337   6.628  18.636  0.00  0.00    +0.000 A 
ATOM     18  C   UNL     1       4.131   5.953  19.564  0.00  0.00    +0.000 A 
ATOM     19  C   UNL     1       5.170   5.135  19.137  0.00  0.00    +0.000 A 
ATOM     20  C   UNL     1       5.398   4.996  17.780  0.00  0.00    +0.000 A 
ATOM     21  C   UNL     1       4.576   5.698  16.917  0.00  0.00    +0.000 A 
ATOM     22  N   UNL     1       3.569   6.503  17.311  0.00  0.00    +0.000 NA
ATOM     23  C   UNL     1       1.419   7.050  20.101  0.00  0.00    +0.000 C 
ATOM     24  C   UNL     1       1.052   8.260  20.962  0.00  0.00    +0.000 C 
ENDBRANCH   6  13
BRANCH   3  25
ATOM     25  C   UNL     1      -2.547  10.699  16.177  0.00  0.00    +0.000 C 
ATOM     26  C   UNL     1      -1.929   9.335  16.468  0.00  0.00    +0.000 C 
ATOM     27  C   UNL     1      -3.371  10.614  14.890  0.00  0.00    +0.000 C 
ENDBRANCH   3  25
BRANCH   1  29
ATOM     28  C   UNL     1      -6.046  11.800  19.705  0.00  0.00    +0.000 C 
ATOM     29  C   UNL     1      -4.978  12.736  19.169  0.00  0.00    +0.000 C 
ENDBRANCH   1  29
TORSDOF 3
ENDMDL
MODEL 6
REMARK VINA RESULT:      -6.5      3.560      5.573
REMARK  Name = 
REMARK  6 active torsions:
REMARK  status: ('A' for Active; 'I' for Inactive)
REMARK    1  A    between atoms: C_1  and  C_2
REMARK    2  A    between atoms: C_2  and  N_3
REMARK    3  A    between atoms: N_5  and  C_6
REMARK    4  A    between atoms: C_6  and  C_7
REMARK    5  A    between atoms: C_6  and  C_8
REMARK    6  A    between atoms: C_11  and  C_12
REMARK                            x       y       z     vdW  Elec       q    Type
REMARK                         _______ _______ _______ _____ _____    ______ ____
ROOT
ATOM      1  N   UNL     1      -5.517  12.255  19.930  0.00  0.00    +0.000 N 
ATOM      2  C   UNL     1      -4.461  12.733  20.731  0.00  0.00    +0.000 A 
ATOM      3  N   UNL     1      -4.735  13.365  21.934  0.00  0.00    +0.000 N 
ATOM      4  N   UNL     1      -3.204  12.597  20.400  0.00  0.00    +0.000 NA
ATOM      5  C   UNL     1      -2.945  11.984  19.175  0.00  0.00    +0.000 A 
ATOM      6  C   UNL     1      -1.676  12.029  18.531  0.00  0.00    +0.000 A 
ATOM      7  C   UNL     1      -1.703  11.273  17.374  0.00  0.00    +0.000 A 
ATOM      8  S   UNL     1      -3.272  10.622  17.061  0.00  0.00    +0.000 S 
ATOM      9  C   UNL     1      -3.902  11.358  18.451  0.00  0.00    +0.000 A 
ATOM     10  C   UNL     1      -5.280  11.406  18.821  0.00  0.00    +0.000 A 
ATOM     11  O   UNL     1      -6.176  10.805  18.230  0.00  0.00    +0.000 OA
ATOM     12  H   UNL     1      -5.477  14.052  21.942  0.00  0.00    +0.000 HD
ENDROOT
BRANCH   6  13
ATOM     13  C   UNL     1      -0.543  12.834  19.090  0.00  0.00    +0.000 C 
ATOM     14  C   UNL     1       0.803  12.111  18.977  0.00  0.00    +0.000 C 
ATOM     15  C   UNL     1       1.835  12.871  19.813  0.00  0.00    +0.000 C 
ATOM     16  N   UNL     1       1.866  14.245  19.309  0.00  0.00    +0.000 N 
ATOM     17  C   UNL     1       3.062  14.934  19.384  0.00  0.00    +0.000 A 
ATOM     18  C   UNL     1       3.266  16.039  18.556  0.00  0.00    +0.000 A 
ATOM     19  C   UNL     1       4.492  16.692  18.544  0.00  0.00    +0.000 A 
ATOM     20  C   UNL     1       5.503  16.234  19.369  0.00  0.00    +0.000 A 
ATOM     21  C   UNL     1       5.234  15.131  20.158  0.00  0.00    +0.000 A 
ATOM     22  N   UNL     1       4.054  14.478  20.178  0.00  0.00    +0.000 NA
ATOM     23  C   UNL     1       0.613  14.995  19.408  0.00  0.00    +0.000 C 
ATOM     24  C   UNL     1      -0.425  14.266  18.552  0.00  0.00    +0.000 C 
ENDBRANCH   6  13
BRANCH   3  25
ATOM     25  C   UNL     1      -3.725  13.523  22.990  0.00  0.00    +0.000 C 
ATOM     26  C   UNL     1      -3.807  14.874  23.693  0.00  0.00    +0.000 C 
ATOM     27  C   UNL     1      -3.881  12.406  24.024  0.00  0.00    +0.000 C 
ENDBRANCH   3  25
BRANCH   1  29
ATOM     28  C   UNL     1      -7.572  11.607  21.194  0.00  0.00    +0.000 C 
ATOM     29  C   UNL     1      -6.921  12.543  20.191  0.00  0.00    +0.000 C 
ENDBRANCH   1  29
TORSDOF 3
ENDMDL
MODEL 7
REMARK VINA RESULT:      -6.4     10.271     12.516
REMARK  Name = 
REMARK  6 active torsions:
REMARK  status: ('A' for Active; 'I' for Inactive)
REMARK    1  A    between atoms: C_1  and  C_2
REMARK    2  A    between atoms: C_2  and  N_3
REMARK    3  A    between atoms: N_5  and  C_6
REMARK    4  A    between atoms: C_6  and  C_7
REMARK    5  A    between atoms: C_6  and  C_8
REMARK    6  A    between atoms: C_11  and  C_12
REMARK                            x       y       z     vdW  Elec       q    Type
REMARK                         _______ _______ _______ _____ _____    ______ ____
ROOT
ATOM      1  N   UNL     1       9.608  15.592  18.027  0.00  0.00    +0.000 N 
ATOM      2  C   UNL     1       8.485  15.553  18.876  0.00  0.00    +0.000 A 
ATOM      3  N   UNL     1       7.501  16.523  18.770  0.00  0.00    +0.000 N 
ATOM      4  N   UNL     1       8.308  14.618  19.772  0.00  0.00    +0.000 NA
ATOM      5  C   UNL     1       9.317  13.663  19.886  0.00  0.00    +0.000 A 
ATOM      6  C   UNL     1       9.432  12.773  20.992  0.00  0.00    +0.000 A 
ATOM      7  C   UNL     1      10.483  11.898  20.791  0.00  0.00    +0.000 A 
ATOM      8  S   UNL     1      11.344  12.243  19.333  0.00  0.00    +0.000 S 
ATOM      9  C   UNL     1      10.327  13.553  18.990  0.00  0.00    +0.000 A 
ATOM     10  C   UNL     1      10.510  14.504  17.941  0.00  0.00    +0.000 A 
ATOM     11  O   UNL     1      11.374  14.413  17.070  0.00  0.00    +0.000 OA
ATOM     12  H   UNL     1       7.801  17.485  18.684  0.00  0.00    +0.000 HD
ENDROOT
BRANCH   6  13
ATOM     13  C   UNL     1       8.515  12.871  22.172  0.00  0.00    +0.000 C 
ATOM     14  C   UNL     1       8.216  11.505  22.798  0.00  0.00    +0.000 C 
ATOM     15  C   UNL     1       7.070  11.669  23.799  0.00  0.00    +0.000 C 
ATOM     16  N   UNL     1       7.493  12.676  24.772  0.00  0.00    +0.000 N 
ATOM     17  C   UNL     1       7.020  12.565  26.066  0.00  0.00    +0.000 A 
ATOM     18  C   UNL     1       7.703  13.205  27.101  0.00  0.00    +0.000 A 
ATOM     19  C   UNL     1       7.303  13.034  28.420  0.00  0.00    +0.000 A 
ATOM     20  C   UNL     1       6.213  12.225  28.689  0.00  0.00    +0.000 A 
ATOM     21  C   UNL     1       5.587  11.617  27.616  0.00  0.00    +0.000 A 
ATOM     22  N   UNL     1       5.965  11.764  26.331  0.00  0.00    +0.000 NA
ATOM     23  C   UNL     1       7.776  14.010  24.237  0.00  0.00    +0.000 C 
ATOM     24  C   UNL     1       8.940  13.871  23.255  0.00  0.00    +0.000 C 
ENDBRANCH   6  13
BRANCH   3  25
ATOM     25  C   UNL     1       6.147  16.337  19.310  0.00  0.00    +0.000 C 
ATOM     26  C   UNL     1       5.563  17.615  19.904  0.00  0.00    +0.000 C 
ATOM     27  C   UNL     1       5.218  15.822  18.209  0.00  0.00    +0.000 C 
ENDBRANCH   3  25
BRANCH   1  29
ATOM     28  C   UNL     1      10.817  17.761  17.758  0.00  0.00    +0.000 C 
ATOM     29  C   UNL     1       9.912  16.710  17.143  0.00  0.00    +0.000 C 
ENDBRANCH   1  29
TORSDOF 3
ENDMDL
MODEL 8
REMARK VINA RESULT:      -6.4     10.443     12.754
REMARK  Name = 
REMARK  6 active torsions:
REMARK  status: ('A' for Active; 'I' for Inactive)
REMARK    1  A    between atoms: C_1  and  C_2
REMARK    2  A    between atoms: C_2  and  N_3
REMARK    3  A    between atoms: N_5  and  C_6
REMARK    4  A    between atoms: C_6  and  C_7
REMARK    5  A    between atoms: C_6  and  C_8
REMARK    6  A    between atoms: C_11  and  C_12
REMARK                            x       y       z     vdW  Elec       q    Type
REMARK                         _______ _______ _______ _____ _____    ______ ____
ROOT
ATOM      1  N   UNL     1      10.363  15.328  17.668  0.00  0.00    +0.000 N 
ATOM      2  C   UNL     1       9.134  15.377  18.353  0.00  0.00    +0.000 A 
ATOM      3  N   UNL     1       8.204  16.356  18.040  0.00  0.00    +0.000 N 
ATOM      4  N   UNL     1       8.807  14.518  19.282  0.00  0.00    +0.000 NA
ATOM      5  C   UNL     1       9.762  13.555  19.605  0.00  0.00    +0.000 A 
ATOM      6  C   UNL     1       9.697  12.750  20.779  0.00  0.00    +0.000 A 
ATOM      7  C   UNL     1      10.738  11.842  20.791  0.00  0.00    +0.000 A 
ATOM      8  S   UNL     1      11.801  12.056  19.446  0.00  0.00    +0.000 S 
ATOM      9  C   UNL     1      10.881  13.356  18.870  0.00  0.00    +0.000 A 
ATOM     10  C   UNL     1      11.236  14.219  17.789  0.00  0.00    +0.000 A 
ATOM     11  O   UNL     1      12.208  14.044  17.056  0.00  0.00    +0.000 OA
ATOM     12  H   UNL     1       8.542  17.302  17.927  0.00  0.00    +0.000 HD
ENDROOT
BRANCH   6  13
ATOM     13  C   UNL     1       8.630  12.957  21.809  0.00  0.00    +0.000 C 
ATOM     14  C   UNL     1       8.221  11.652  22.501  0.00  0.00    +0.000 C 
ATOM     15  C   UNL     1       6.953  11.911  23.318  0.00  0.00    +0.000 C 
ATOM     16  N   UNL     1       7.260  12.995  24.252  0.00  0.00    +0.000 N 
ATOM     17  C   UNL     1       6.612  12.999  25.473  0.00  0.00    +0.000 A 
ATOM     18  C   UNL     1       7.161  13.720  26.534  0.00  0.00    +0.000 A 
ATOM     19  C   UNL     1       6.582  13.666  27.796  0.00  0.00    +0.000 A 
ATOM     20  C   UNL     1       5.450  12.893  27.980  0.00  0.00    +0.000 A 
ATOM     21  C   UNL     1       4.963  12.200  26.886  0.00  0.00    +0.000 A 
ATOM     22  N   UNL     1       5.515  12.233  25.657  0.00  0.00    +0.000 NA
ATOM     23  C   UNL     1       7.639  14.275  23.651  0.00  0.00    +0.000 C 
ATOM     24  C   UNL     1       8.924  14.042  22.853  0.00  0.00    +0.000 C 
ENDBRANCH   6  13
BRANCH   3  25
ATOM     25  C   UNL     1       6.783  16.238  18.399  0.00  0.00    +0.000 C 
ATOM     26  C   UNL     1       6.159  14.926  17.934  0.00  0.00    +0.000 C 
ATOM     27  C   UNL     1       6.622  16.362  19.916  0.00  0.00    +0.000 C 
ENDBRANCH   3  25
BRANCH   1  29
ATOM     28  C   UNL     1      11.538  17.520  17.434  0.00  0.00    +0.000 C 
ATOM     29  C   UNL     1      10.819  16.368  16.755  0.00  0.00    +0.000 C 
ENDBRANCH   1  29
TORSDOF 3
ENDMDL
MODEL 9
REMARK VINA RESULT:      -6.3      3.671      7.598
REMARK  Name = 
REMARK  6 active torsions:
REMARK  status: ('A' for Active; 'I' for Inactive)
REMARK    1  A    between atoms: C_1  and  C_2
REMARK    2  A    between atoms: C_2  and  N_3
REMARK    3  A    between atoms: N_5  and  C_6
REMARK    4  A    between atoms: C_6  and  C_7
REMARK    5  A    between atoms: C_6  and  C_8
REMARK    6  A    between atoms: C_11  and  C_12
REMARK                            x       y       z     vdW  Elec       q    Type
REMARK                         _______ _______ _______ _____ _____    ______ ____
ROOT
ATOM      1  N   UNL     1      -2.750  10.429  17.377  0.00  0.00    +0.000 N 
ATOM      2  C   UNL     1      -3.692  11.176  18.110  0.00  0.00    +0.000 A 
ATOM      3  N   UNL     1      -5.029  11.155  17.746  0.00  0.00    +0.000 N 
ATOM      4  N   UNL     1      -3.368  11.896  19.152  0.00  0.00    +0.000 NA
ATOM      5  C   UNL     1      -2.017  11.929  19.492  0.00  0.00    +0.000 A 
ATOM      6  C   UNL     1      -1.458  12.884  20.389  0.00  0.00    +0.000 A 
ATOM      7  C   UNL     1      -0.115  12.623  20.585  0.00  0.00    +0.000 A 
ATOM      8  S   UNL     1       0.439  11.306  19.612  0.00  0.00    +0.000 S 
ATOM      9  C   UNL     1      -1.099  11.104  18.933  0.00  0.00    +0.000 A 
ATOM     10  C   UNL     1      -1.428  10.236  17.848  0.00  0.00    +0.000 A 
ATOM     11  O   UNL     1      -0.647   9.428  17.349  0.00  0.00    +0.000 OA
ATOM     12  H   UNL     1      -5.247  11.247  16.763  0.00  0.00    +0.000 HD
ENDROOT
BRANCH   6  13
ATOM     13  C   UNL     1      -2.284  13.994  20.962  0.00  0.00    +0.000 C 
ATOM     14  C   UNL     1      -3.085  13.554  22.192  0.00  0.00    +0.000 C 
ATOM     15  C   UNL     1      -4.096  14.652  22.531  0.00  0.00    +0.000 C 
ATOM     16  N   UNL     1      -3.335  15.884  22.742  0.00  0.00    +0.000 N 
ATOM     17  C   UNL     1      -3.831  16.805  23.645  0.00  0.00    +0.000 A 
ATOM     18  C   UNL     1      -2.969  17.754  24.195  0.00  0.00    +0.000 A 
ATOM     19  C   UNL     1      -3.421  18.631  25.174  0.00  0.00    +0.000 A 
ATOM     20  C   UNL     1      -4.738  18.552  25.587  0.00  0.00    +0.000 A 
ATOM     21  C   UNL     1      -5.535  17.584  25.003  0.00  0.00    +0.000 A 
ATOM     22  N   UNL     1      -5.114  16.718  24.059  0.00  0.00    +0.000 NA
ATOM     23  C   UNL     1      -2.562  16.367  21.596  0.00  0.00    +0.000 C 
ATOM     24  C   UNL     1      -1.525  15.293  21.259  0.00  0.00    +0.000 C 
ENDBRANCH   6  13
BRANCH   3  25
ATOM     25  C   UNL     1      -6.104  11.558  18.665  0.00  0.00    +0.000 C 
ATOM     26  C   UNL     1      -7.125  12.486  18.013  0.00  0.00    +0.000 C 
ATOM     27  C   UNL     1      -6.820  10.315  19.197  0.00  0.00    +0.000 C 
ENDBRANCH   3  25
BRANCH   1  29
ATOM     28  C   UNL     1      -3.018  10.671  14.905  0.00  0.00    +0.000 C 
ATOM     29  C   UNL     1      -3.055   9.760  16.119  0.00  0.00    +0.000 C 
ENDBRANCH   1  29
TORSDOF 3
ENDMDL
