MODEL 1
REMARK VINA RESULT:      -7.3      0.000      0.000
REMARK  Name = 
REMARK  4 active torsions:
REMARK  status: ('A' for Active; 'I' for Inactive)
REMARK    1  A    between atoms: C_1  and  N_2
REMARK    2  A    between atoms: C_3  and  S_4
REMARK    3  A    between atoms: C_3  and  C_5
REMARK    4  A    between atoms: C_5  and  C_6
REMARK                            x       y       z     vdW  Elec       q    Type
REMARK                         _______ _______ _______ _____ _____    ______ ____
ROOT
ATOM      1  C   UNL     1       3.207   4.654  19.073  0.00  0.00    +0.000 C 
ATOM      2  C   UNL     1       3.506   4.074  20.510  0.00  0.00    +0.000 C 
ATOM      3  C   UNL     1       2.290   4.029  21.447  0.00  0.00    +0.000 C 
ATOM      4  C   UNL     1       1.226   3.062  20.943  0.00  0.00    +0.000 C 
ATOM      5  C   UNL     1       0.721   3.461  19.570  0.00  0.00    +0.000 C 
ATOM      6  S   UNL     1       2.039   3.368  18.334  0.00  0.00    +0.000 S 
ATOM      7  O   UNL     1       1.445   3.838  16.961  0.00  0.00    +0.000 OA
ENDROOT
BRANCH   1   8
ATOM      8  C   UNL     1       2.707   6.124  19.155  0.00  0.00    +0.000 A 
ATOM      9  C   UNL     1       2.665   6.920  17.987  0.00  0.00    +0.000 A 
ATOM     10  C   UNL     1       2.163   8.225  17.994  0.00  0.00    +0.000 A 
ATOM     11  C   UNL     1       1.641   8.768  19.162  0.00  0.00    +0.000 A 
ATOM     12 CL   UNL     1       1.011  10.374  19.092  0.00  0.00    +0.000 Cl
ATOM     13  C   UNL     1       1.635   8.002  20.330  0.00  0.00    +0.000 A 
ATOM     14 CL   UNL     1       0.967   8.589  21.809  0.00  0.00    +0.000 Cl
ATOM     15  C   UNL     1       2.162   6.697  20.319  0.00  0.00    +0.000 A 
ENDBRANCH   1   8
BRANCH   1  18
ATOM     16  C   UNL     1       5.673   3.957  16.194  0.00  0.00    +0.000 C 
ATOM     17  N   UNL     1       4.489   4.072  17.028  0.00  0.00    +0.000 NA
ATOM     18  C   UNL     1       4.524   4.600  18.205  0.00  0.00    +0.000 C 
BRANCH  18  19
ATOM     19  S   UNL     1       6.000   5.248  18.943  0.00  0.00    +0.000 S 
ATOM     20  H   UNL     1       6.902   4.637  18.173  0.00  0.00    +0.000 HD
ENDBRANCH  18  19
ENDBRANCH   1  18
TORSDOF 3
ENDMDL
MODEL 2
REMARK VINA RESULT:      -7.3      2.318      4.117
REMARK  Name = 
REMARK  4 active torsions:
REMARK  status: ('A' for Active; 'I' for Inactive)
REMARK    1  A    between atoms: C_1  and  N_2
REMARK    2  A    between atoms: C_3  and  S_4
REMARK    3  A    between atoms: C_3  and  C_5
REMARK    4  A    between atoms: C_5  and  C_6
REMARK                            x       y       z     vdW  Elec       q    Type
REMARK                         _______ _______ _______ _____ _____    ______ ____
ROOT
ATOM      1  C   UNL     1       4.861   4.684  17.910  0.00  0.00    +0.000 C 
ATOM      2  C   UNL     1       4.888   4.377  16.361  0.00  0.00    +0.000 C 
ATOM      3  C   UNL     1       5.462   5.509  15.496  0.00  0.00    +0.000 C 
ATOM      4  C   UNL     1       6.938   5.747  15.786  0.00  0.00    +0.000 C 
ATOM      5  C   UNL     1       7.164   6.130  17.236  0.00  0.00    +0.000 C 
ATOM      6  S   UNL     1       6.695   4.786  18.351  0.00  0.00    +0.000 S 
ATOM      7  O   UNL     1       6.915   5.282  19.822  0.00  0.00    +0.000 OA
ENDROOT
BRANCH   1   8
ATOM      8  C   UNL     1       3.972   5.920  18.221  0.00  0.00    +0.000 A 
ATOM      9  C   UNL     1       3.834   6.948  17.261  0.00  0.00    +0.000 A 
ATOM     10  C   UNL     1       2.995   8.048  17.464  0.00  0.00    +0.000 A 
ATOM     11  C   UNL     1       2.227   8.139  18.619  0.00  0.00    +0.000 A 
ATOM     12 CL   UNL     1       1.191   9.509  18.791  0.00  0.00    +0.000 Cl
ATOM     13  C   UNL     1       2.310   7.127  19.578  0.00  0.00    +0.000 A 
ATOM     14 CL   UNL     1       1.357   7.146  21.016  0.00  0.00    +0.000 Cl
ATOM     15  C   UNL     1       3.173   6.034  19.375  0.00  0.00    +0.000 A 
ENDBRANCH   1   8
BRANCH   1  18
ATOM     16  C   UNL     1       4.427   1.859  20.496  0.00  0.00    +0.000 C 
ATOM     17  N   UNL     1       4.874   3.030  19.762  0.00  0.00    +0.000 NA
ATOM     18  C   UNL     1       4.296   3.427  18.680  0.00  0.00    +0.000 C 
BRANCH  18  19
ATOM     19  S   UNL     1       2.894   2.610  17.962  0.00  0.00    +0.000 S 
ATOM     20  H   UNL     1       3.485   1.472  17.594  0.00  0.00    +0.000 HD
ENDBRANCH  18  19
ENDBRANCH   1  18
TORSDOF 3
ENDMDL
MODEL 3
REMARK VINA RESULT:      -7.1      0.761      1.617
REMARK  Name = 
REMARK  4 active torsions:
REMARK  status: ('A' for Active; 'I' for Inactive)
REMARK    1  A    between atoms: C_1  and  N_2
REMARK    2  A    between atoms: C_3  and  S_4
REMARK    3  A    between atoms: C_3  and  C_5
REMARK    4  A    between atoms: C_5  and  C_6
REMARK                            x       y       z     vdW  Elec       q    Type
REMARK                         _______ _______ _______ _____ _____    ______ ____
ROOT
ATOM      1  C   UNL     1       2.983   4.678  19.219  0.00  0.00    +0.000 C 
ATOM      2  C   UNL     1       3.404   3.978  20.571  0.00  0.00    +0.000 C 
ATOM      3  C   UNL     1       2.246   3.729  21.549  0.00  0.00    +0.000 C 
ATOM      4  C   UNL     1       1.240   2.732  20.989  0.00  0.00    +0.000 C 
ATOM      5  C   UNL     1       0.633   3.227  19.691  0.00  0.00    +0.000 C 
ATOM      6  S   UNL     1       1.887   3.379  18.396  0.00  0.00    +0.000 S 
ATOM      7  O   UNL     1       1.185   3.937  17.110  0.00  0.00    +0.000 OA
ENDROOT
BRANCH   1   8
ATOM      8  C   UNL     1       2.369   6.081  19.483  0.00  0.00    +0.000 A 
ATOM      9  C   UNL     1       1.844   6.392  20.758  0.00  0.00    +0.000 A 
ATOM     10  C   UNL     1       1.341   7.660  21.067  0.00  0.00    +0.000 A 
ATOM     11  C   UNL     1       1.385   8.679  20.123  0.00  0.00    +0.000 A 
ATOM     12 CL   UNL     1       0.774  10.228  20.581  0.00  0.00    +0.000 Cl
ATOM     13  C   UNL     1       1.925   8.421  18.862  0.00  0.00    +0.000 A 
ATOM     14 CL   UNL     1       2.055   9.645  17.651  0.00  0.00    +0.000 Cl
ATOM     15  C   UNL     1       2.410   7.137  18.553  0.00  0.00    +0.000 A 
ENDBRANCH   1   8
BRANCH   1  18
ATOM     16  C   UNL     1       5.292   4.662  16.134  0.00  0.00    +0.000 C 
ATOM     17  N   UNL     1       4.154   4.578  17.032  0.00  0.00    +0.000 NA
ATOM     18  C   UNL     1       4.252   4.829  18.294  0.00  0.00    +0.000 C 
BRANCH  18  19
ATOM     19  S   UNL     1       5.767   5.308  19.081  0.00  0.00    +0.000 S 
ATOM     20  H   UNL     1       6.429   5.745  18.008  0.00  0.00    +0.000 HD
ENDBRANCH  18  19
ENDBRANCH   1  18
TORSDOF 3
ENDMDL
MODEL 4
REMARK VINA RESULT:      -7.0      2.062      2.276
REMARK  Name = 
REMARK  4 active torsions:
REMARK  status: ('A' for Active; 'I' for Inactive)
REMARK    1  A    between atoms: C_1  and  N_2
REMARK    2  A    between atoms: C_3  and  S_4
REMARK    3  A    between atoms: C_3  and  C_5
REMARK    4  A    between atoms: C_5  and  C_6
REMARK                            x       y       z     vdW  Elec       q    Type
REMARK                         _______ _______ _______ _____ _____    ______ ____
ROOT
ATOM      1  C   UNL     1       4.632   4.541  18.503  0.00  0.00    +0.000 C 
ATOM      2  C   UNL     1       4.254   3.531  19.656  0.00  0.00    +0.000 C 
ATOM      3  C   UNL     1       2.782   3.092  19.663  0.00  0.00    +0.000 C 
ATOM      4  C   UNL     1       2.430   2.284  18.420  0.00  0.00    +0.000 C 
ATOM      5  C   UNL     1       2.653   3.088  17.154  0.00  0.00    +0.000 C 
ATOM      6  S   UNL     1       4.400   3.505  16.941  0.00  0.00    +0.000 S 
ATOM      7  O   UNL     1       4.533   4.371  15.641  0.00  0.00    +0.000 OA
ENDROOT
BRANCH   1   8
ATOM      8  C   UNL     1       3.819   5.860  18.625  0.00  0.00    +0.000 A 
ATOM      9  C   UNL     1       3.804   6.780  17.551  0.00  0.00    +0.000 A 
ATOM     10  C   UNL     1       3.036   7.949  17.584  0.00  0.00    +0.000 A 
ATOM     11  C   UNL     1       2.219   8.220  18.674  0.00  0.00    +0.000 A 
ATOM     12 CL   UNL     1       1.276   9.665  18.635  0.00  0.00    +0.000 Cl
ATOM     13  C   UNL     1       2.181   7.319  19.741  0.00  0.00    +0.000 A 
ATOM     14 CL   UNL     1       1.159   7.562  21.111  0.00  0.00    +0.000 Cl
ATOM     15  C   UNL     1       2.973   6.156  19.709  0.00  0.00    +0.000 A 
ENDBRANCH   1   8
BRANCH   1  18
ATOM     16  C   UNL     1       8.069   5.703  19.805  0.00  0.00    +0.000 C 
ATOM     17  N   UNL     1       6.667   5.344  19.678  0.00  0.00    +0.000 NA
ATOM     18  C   UNL     1       6.173   4.870  18.584  0.00  0.00    +0.000 C 
BRANCH  18  19
ATOM     19  S   UNL     1       7.132   4.595  17.117  0.00  0.00    +0.000 S 
ATOM     20  H   UNL     1       6.764   3.337  16.863  0.00  0.00    +0.000 HD
ENDBRANCH  18  19
ENDBRANCH   1  18
TORSDOF 3
ENDMDL
MODEL 5
REMARK VINA RESULT:      -6.9      1.112      1.132
REMARK  Name = 
REMARK  4 active torsions:
REMARK  status: ('A' for Active; 'I' for Inactive)
REMARK    1  A    between atoms: C_1  and  N_2
REMARK    2  A    between atoms: C_3  and  S_4
REMARK    3  A    between atoms: C_3  and  C_5
REMARK    4  A    between atoms: C_5  and  C_6
REMARK                            x       y       z     vdW  Elec       q    Type
REMARK                         _______ _______ _______ _____ _____    ______ ____
ROOT
ATOM      1  C   UNL     1       3.403   4.464  19.118  0.00  0.00    +0.000 C 
ATOM      2  C   UNL     1       3.541   3.897  20.586  0.00  0.00    +0.000 C 
ATOM      3  C   UNL     1       2.226   3.850  21.379  0.00  0.00    +0.000 C 
ATOM      4  C   UNL     1       1.234   2.870  20.765  0.00  0.00    +0.000 C 
ATOM      5  C   UNL     1       0.886   3.254  19.340  0.00  0.00    +0.000 C 
ATOM      6  S   UNL     1       2.336   3.161  18.263  0.00  0.00    +0.000 S 
ATOM      7  O   UNL     1       1.899   3.616  16.827  0.00  0.00    +0.000 OA
ENDROOT
BRANCH   1   8
ATOM      8  C   UNL     1       2.887   5.929  19.130  0.00  0.00    +0.000 A 
ATOM      9  C   UNL     1       2.915   6.696  17.943  0.00  0.00    +0.000 A 
ATOM     10  C   UNL     1       2.402   7.995  17.883  0.00  0.00    +0.000 A 
ATOM     11  C   UNL     1       1.801   8.562  19.000  0.00  0.00    +0.000 A 
ATOM     12 CL   UNL     1       1.162  10.159  18.848  0.00  0.00    +0.000 Cl
ATOM     13  C   UNL     1       1.724   7.825  20.184  0.00  0.00    +0.000 A 
ATOM     14 CL   UNL     1       0.954   8.442  21.600  0.00  0.00    +0.000 Cl
ATOM     15  C   UNL     1       2.261   6.526  20.241  0.00  0.00    +0.000 A 
ENDBRANCH   1   8
BRANCH   1  18
ATOM     16  C   UNL     1       7.178   4.827  18.429  0.00  0.00    +0.000 C 
ATOM     17  N   UNL     1       5.860   4.813  19.041  0.00  0.00    +0.000 NA
ATOM     18  C   UNL     1       4.810   4.413  18.406  0.00  0.00    +0.000 C 
BRANCH  18  19
ATOM     19  S   UNL     1       4.842   3.831  16.731  0.00  0.00    +0.000 S 
ATOM     20  H   UNL     1       5.169   2.557  16.961  0.00  0.00    +0.000 HD
ENDBRANCH  18  19
ENDBRANCH   1  18
TORSDOF 3
ENDMDL
MODEL 6
REMARK VINA RESULT:      -6.8      2.222      4.236
REMARK  Name = 
REMARK  4 active torsions:
REMARK  status: ('A' for Active; 'I' for Inactive)
REMARK    1  A    between atoms: C_1  and  N_2
REMARK    2  A    between atoms: C_3  and  S_4
REMARK    3  A    between atoms: C_3  and  C_5
REMARK    4  A    between atoms: C_5  and  C_6
REMARK                            x       y       z     vdW  Elec       q    Type
REMARK                         _______ _______ _______ _____ _____    ______ ____
ROOT
ATOM      1  C   UNL     1       4.655   4.690  18.138  0.00  0.00    +0.000 C 
ATOM      2  C   UNL     1       4.626   4.592  16.563  0.00  0.00    +0.000 C 
ATOM      3  C   UNL     1       4.993   5.894  15.835  0.00  0.00    +0.000 C 
ATOM      4  C   UNL     1       6.441   6.293  16.090  0.00  0.00    +0.000 C 
ATOM      5  C   UNL     1       6.703   6.515  17.567  0.00  0.00    +0.000 C 
ATOM      6  S   UNL     1       6.483   4.986  18.509  0.00  0.00    +0.000 S 
ATOM      7  O   UNL     1       6.726   5.314  20.023  0.00  0.00    +0.000 OA
ENDROOT
BRANCH   1   8
ATOM      8  C   UNL     1       3.632   5.742  18.653  0.00  0.00    +0.000 A 
ATOM      9  C   UNL     1       3.054   5.594  19.934  0.00  0.00    +0.000 A 
ATOM     10  C   UNL     1       2.180   6.544  20.471  0.00  0.00    +0.000 A 
ATOM     11  C   UNL     1       1.886   7.703  19.763  0.00  0.00    +0.000 A 
ATOM     12 CL   UNL     1       0.823   8.848  20.497  0.00  0.00    +0.000 Cl
ATOM     13  C   UNL     1       2.463   7.902  18.506  0.00  0.00    +0.000 A 
ATOM     14 CL   UNL     1       2.182   9.334  17.585  0.00  0.00    +0.000 Cl
ATOM     15  C   UNL     1       3.325   6.930  17.965  0.00  0.00    +0.000 A 
ENDBRANCH   1   8
BRANCH   1  18
ATOM     16  C   UNL     1       4.710   1.553  20.377  0.00  0.00    +0.000 C 
ATOM     17  N   UNL     1       4.956   2.857  19.785  0.00  0.00    +0.000 NA
ATOM     18  C   UNL     1       4.306   3.280  18.754  0.00  0.00    +0.000 C 
BRANCH  18  19
ATOM     19  S   UNL     1       3.042   2.339  17.941  0.00  0.00    +0.000 S 
ATOM     20  H   UNL     1       3.622   1.137  17.979  0.00  0.00    +0.000 HD
ENDBRANCH  18  19
ENDBRANCH   1  18
TORSDOF 3
ENDMDL
MODEL 7
REMARK VINA RESULT:      -6.8      3.839      5.185
REMARK  Name = 
REMARK  4 active torsions:
REMARK  status: ('A' for Active; 'I' for Inactive)
REMARK    1  A    between atoms: C_1  and  N_2
REMARK    2  A    between atoms: C_3  and  S_4
REMARK    3  A    between atoms: C_3  and  C_5
REMARK    4  A    between atoms: C_5  and  C_6
REMARK                            x       y       z     vdW  Elec       q    Type
REMARK                         _______ _______ _______ _____ _____    ______ ____
ROOT
ATOM      1  C   UNL     1       2.314   5.341  19.041  0.00  0.00    +0.000 C 
ATOM      2  C   UNL     1       1.334   4.915  17.878  0.00  0.00    +0.000 C 
ATOM      3  C   UNL     1       1.443   3.441  17.459  0.00  0.00    +0.000 C 
ATOM      4  C   UNL     1       1.013   2.503  18.579  0.00  0.00    +0.000 C 
ATOM      5  C   UNL     1       1.874   2.684  19.814  0.00  0.00    +0.000 C 
ATOM      6  S   UNL     1       1.680   4.341  20.513  0.00  0.00    +0.000 S 
ATOM      7  O   UNL     1       2.635   4.456  21.751  0.00  0.00    +0.000 OA
ENDROOT
BRANCH   1   8
ATOM      8  C   UNL     1       3.798   5.150  18.621  0.00  0.00    +0.000 A 
ATOM      9  C   UNL     1       4.831   5.379  19.559  0.00  0.00    +0.000 A 
ATOM     10  C   UNL     1       6.177   5.158  19.253  0.00  0.00    +0.000 A 
ATOM     11  C   UNL     1       6.538   4.657  18.008  0.00  0.00    +0.000 A 
ATOM     12 CL   UNL     1       8.215   4.381  17.707  0.00  0.00    +0.000 Cl
ATOM     13  C   UNL     1       5.545   4.388  17.064  0.00  0.00    +0.000 A 
ATOM     14 CL   UNL     1       5.909   3.724  15.513  0.00  0.00    +0.000 Cl
ATOM     15  C   UNL     1       4.194   4.632  17.374  0.00  0.00    +0.000 A 
ENDBRANCH   1   8
BRANCH   1  18
ATOM     16  C   UNL     1       1.317   8.538  20.948  0.00  0.00    +0.000 C 
ATOM     17  N   UNL     1       1.603   7.166  20.567  0.00  0.00    +0.000 NA
ATOM     18  C   UNL     1       2.065   6.856  19.403  0.00  0.00    +0.000 C 
BRANCH  18  19
ATOM     19  S   UNL     1       2.411   8.051  18.138  0.00  0.00    +0.000 S 
ATOM     20  H   UNL     1       1.336   7.857  17.372  0.00  0.00    +0.000 HD
ENDBRANCH  18  19
ENDBRANCH   1  18
TORSDOF 3
ENDMDL
MODEL 8
REMARK VINA RESULT:      -6.8      1.303      1.959
REMARK  Name = 
REMARK  4 active torsions:
REMARK  status: ('A' for Active; 'I' for Inactive)
REMARK    1  A    between atoms: C_1  and  N_2
REMARK    2  A    between atoms: C_3  and  S_4
REMARK    3  A    between atoms: C_3  and  C_5
REMARK    4  A    between atoms: C_5  and  C_6
REMARK                            x       y       z     vdW  Elec       q    Type
REMARK                         _______ _______ _______ _____ _____    ______ ____
ROOT
ATOM      1  C   UNL     1       3.120   4.586  19.337  0.00  0.00    +0.000 C 
ATOM      2  C   UNL     1       3.367   3.873  20.724  0.00  0.00    +0.000 C 
ATOM      3  C   UNL     1       2.093   3.595  21.536  0.00  0.00    +0.000 C 
ATOM      4  C   UNL     1       1.186   2.592  20.834  0.00  0.00    +0.000 C 
ATOM      5  C   UNL     1       0.751   3.096  19.472  0.00  0.00    +0.000 C 
ATOM      6  S   UNL     1       2.164   3.283  18.359  0.00  0.00    +0.000 S 
ATOM      7  O   UNL     1       1.633   3.849  16.997  0.00  0.00    +0.000 OA
ENDROOT
BRANCH   1   8
ATOM      8  C   UNL     1       2.455   5.977  19.532  0.00  0.00    +0.000 A 
ATOM      9  C   UNL     1       1.881   6.314  20.779  0.00  0.00    +0.000 A 
ATOM     10  C   UNL     1       1.329   7.575  21.028  0.00  0.00    +0.000 A 
ATOM     11  C   UNL     1       1.371   8.562  20.051  0.00  0.00    +0.000 A 
ATOM     12 CL   UNL     1       0.698  10.105  20.435  0.00  0.00    +0.000 Cl
ATOM     13  C   UNL     1       1.958   8.279  18.816  0.00  0.00    +0.000 A 
ATOM     14 CL   UNL     1       2.088   9.463  17.568  0.00  0.00    +0.000 Cl
ATOM     15  C   UNL     1       2.492   7.000  18.567  0.00  0.00    +0.000 A 
ENDBRANCH   1   8
BRANCH   1  18
ATOM     16  C   UNL     1       6.755   5.594  18.548  0.00  0.00    +0.000 C 
ATOM     17  N   UNL     1       5.474   5.362  19.192  0.00  0.00    +0.000 NA
ATOM     18  C   UNL     1       4.499   4.767  18.592  0.00  0.00    +0.000 C 
BRANCH  18  19
ATOM     19  S   UNL     1       4.599   4.159  16.928  0.00  0.00    +0.000 S 
ATOM     20  H   UNL     1       4.394   5.305  16.276  0.00  0.00    +0.000 HD
ENDBRANCH  18  19
ENDBRANCH   1  18
TORSDOF 3
ENDMDL
MODEL 9
REMARK VINA RESULT:      -6.7      3.623      4.894
REMARK  Name = 
REMARK  4 active torsions:
REMARK  status: ('A' for Active; 'I' for Inactive)
REMARK    1  A    between atoms: C_1  and  N_2
REMARK    2  A    between atoms: C_3  and  S_4
REMARK    3  A    between atoms: C_3  and  C_5
REMARK    4  A    between atoms: C_5  and  C_6
REMARK                            x       y       z     vdW  Elec       q    Type
REMARK                         _______ _______ _______ _____ _____    ______ ____
ROOT
ATOM      1  C   UNL     1       2.264   5.154  19.138  0.00  0.00    +0.000 C 
ATOM      2  C   UNL     1       1.223   4.738  18.026  0.00  0.00    +0.000 C 
ATOM      3  C   UNL     1       1.274   3.255  17.626  0.00  0.00    +0.000 C 
ATOM      4  C   UNL     1       0.869   2.347  18.780  0.00  0.00    +0.000 C 
ATOM      5  C   UNL     1       1.788   2.523  19.973  0.00  0.00    +0.000 C 
ATOM      6  S   UNL     1       1.670   4.195  20.652  0.00  0.00    +0.000 S 
ATOM      7  O   UNL     1       2.681   4.303  21.845  0.00  0.00    +0.000 OA
ENDROOT
BRANCH   1   8
ATOM      8  C   UNL     1       3.723   4.916  18.657  0.00  0.00    +0.000 A 
ATOM      9  C   UNL     1       3.963   4.412  17.358  0.00  0.00    +0.000 A 
ATOM     10  C   UNL     1       5.255   4.242  16.852  0.00  0.00    +0.000 A 
ATOM     11  C   UNL     1       6.358   4.612  17.613  0.00  0.00    +0.000 A 
ATOM     12 CL   UNL     1       7.924   4.402  16.916  0.00  0.00    +0.000 Cl
ATOM     13  C   UNL     1       6.162   5.143  18.889  0.00  0.00    +0.000 A 
ATOM     14 CL   UNL     1       7.477   5.666  19.877  0.00  0.00    +0.000 Cl
ATOM     15  C   UNL     1       4.858   5.292  19.398  0.00  0.00    +0.000 A 
ENDBRANCH   1   8
BRANCH   1  18
ATOM     16  C   UNL     1       1.377   8.405  21.009  0.00  0.00    +0.000 C 
ATOM     17  N   UNL     1       1.612   7.019  20.641  0.00  0.00    +0.000 NA
ATOM     18  C   UNL     1       2.072   6.682  19.484  0.00  0.00    +0.000 C 
BRANCH  18  19
ATOM     19  S   UNL     1       2.478   7.851  18.213  0.00  0.00    +0.000 S 
ATOM     20  H   UNL     1       1.317   8.506  18.158  0.00  0.00    +0.000 HD
ENDBRANCH  18  19
ENDBRANCH   1  18
TORSDOF 3
ENDMDL
