MODEL 1
REMARK VINA RESULT:      -7.9      0.000      0.000
REMARK  Name = 
REMARK  7 active torsions:
REMARK  status: ('A' for Active; 'I' for Inactive)
REMARK    1  A    between atoms: C_1  and  O_2
REMARK    2  A    between atoms: O_2  and  C_3
REMARK    3  A    between atoms: C_9  and  O_10
REMARK    4  A    between atoms: O_10  and  C_11
REMARK    5  A    between atoms: C_15  and  C_16
REMARK    6  A    between atoms: N_18  and  S_19
REMARK    7  A    between atoms: S_19  and  C_20
REMARK                            x       y       z     vdW  Elec       q    Type
REMARK                         _______ _______ _______ _____ _____    ______ ____
ROOT
ATOM      1  C   UNL     1       2.356   6.906  18.755  0.00  0.00    +0.000 A 
ATOM      2  C   UNL     1       2.226   8.106  18.058  0.00  0.00    +0.000 A 
ATOM      3  C   UNL     1       1.667   9.217  18.687  0.00  0.00    +0.000 A 
ATOM      4  F   UNL     1       1.518  10.331  17.956  0.00  0.00    +0.000 F 
ATOM      5  C   UNL     1       1.252   9.167  20.017  0.00  0.00    +0.000 A 
ATOM      6  C   UNL     1       1.426   7.975  20.735  0.00  0.00    +0.000 A 
ATOM      7  C   UNL     1       1.983   6.855  20.107  0.00  0.00    +0.000 A 
ATOM      8 CL   UNL     1       2.142   5.404  21.033  0.00  0.00    +0.000 Cl
ENDROOT
BRANCH   5   9
ATOM      9  C   UNL     1       0.603  10.317  20.699  0.00  0.00    +0.000 C 
ATOM     10  O   UNL     1       1.045  10.739  21.755  0.00  0.00    +0.000 OA
ATOM     11  N   UNL     1      -0.562  10.816  20.107  0.00  0.00    +0.000 N 
ATOM     12  H   UNL     1      -0.940  10.424  19.246  0.00  0.00    +0.000 HD
BRANCH  11  13
ATOM     13  S   UNL     1      -1.436  12.113  20.654  0.00  0.00    +0.000 S 
ATOM     14  C   UNL     1      -2.803  12.179  19.513  0.00  0.00    +0.000 C 
ATOM     15  O   UNL     1      -1.919  11.831  21.986  0.00  0.00    +0.000 OA
ATOM     16  O   UNL     1      -0.596  13.265  20.397  0.00  0.00    +0.000 OA
ENDBRANCH  11  13
ENDBRANCH   5   9
BRANCH   1  17
ATOM     17  O   UNL     1       2.845   5.764  18.176  0.00  0.00    +0.000 OA
BRANCH  17  24
ATOM     18  C   UNL     1       6.658   5.420  16.199  0.00  0.00    +0.000 C 
ATOM     19  C   UNL     1       7.131   4.445  17.303  0.00  0.00    +0.000 C 
ATOM     20  C   UNL     1       6.020   4.229  18.341  0.00  0.00    +0.000 C 
ATOM     21  C   UNL     1       4.805   3.610  17.637  0.00  0.00    +0.000 C 
ATOM     22  C   UNL     1       4.291   4.562  16.543  0.00  0.00    +0.000 C 
ATOM     23  C   UNL     1       5.411   4.808  15.519  0.00  0.00    +0.000 C 
ATOM     24  C   UNL     1       3.870   5.913  17.174  0.00  0.00    +0.000 C 
ATOM     25  C   UNL     1       5.110   6.537  17.864  0.00  0.00    +0.000 C 
ATOM     26  C   UNL     1       5.638   5.587  18.957  0.00  0.00    +0.000 C 
ATOM     27  C   UNL     1       6.227   6.763  16.829  0.00  0.00    +0.000 C 
BRANCH  18  29
ATOM     28  C   UNL     1       7.354   4.954  13.923  0.00  0.00    +0.000 C 
ATOM     29  O   UNL     1       7.623   5.596  15.161  0.00  0.00    +0.000 OA
ENDBRANCH  18  29
ENDBRANCH  17  24
ENDBRANCH   1  17
TORSDOF 5
ENDMDL
MODEL 2
REMARK VINA RESULT:      -7.8      2.813      3.886
REMARK  Name = 
REMARK  7 active torsions:
REMARK  status: ('A' for Active; 'I' for Inactive)
REMARK    1  A    between atoms: C_1  and  O_2
REMARK    2  A    between atoms: O_2  and  C_3
REMARK    3  A    between atoms: C_9  and  O_10
REMARK    4  A    between atoms: O_10  and  C_11
REMARK    5  A    between atoms: C_15  and  C_16
REMARK    6  A    between atoms: N_18  and  S_19
REMARK    7  A    between atoms: S_19  and  C_20
REMARK                            x       y       z     vdW  Elec       q    Type
REMARK                         _______ _______ _______ _____ _____    ______ ____
ROOT
ATOM      1  C   UNL     1       1.694   8.417  20.328  0.00  0.00    +0.000 A 
ATOM      2  C   UNL     1       1.352   8.324  21.676  0.00  0.00    +0.000 A 
ATOM      3  C   UNL     1       0.491   9.262  22.241  0.00  0.00    +0.000 A 
ATOM      4  F   UNL     1       0.235   9.155  23.552  0.00  0.00    +0.000 F 
ATOM      5  C   UNL     1      -0.066  10.289  21.480  0.00  0.00    +0.000 A 
ATOM      6  C   UNL     1       0.238  10.357  20.112  0.00  0.00    +0.000 A 
ATOM      7  C   UNL     1       1.107   9.421  19.541  0.00  0.00    +0.000 A 
ATOM      8 CL   UNL     1       1.470   9.576  17.858  0.00  0.00    +0.000 Cl
ENDROOT
BRANCH   5   9
ATOM      9  C   UNL     1      -0.944  11.336  22.064  0.00  0.00    +0.000 C 
ATOM     10  O   UNL     1      -0.699  11.804  23.164  0.00  0.00    +0.000 OA
ATOM     11  N   UNL     1      -2.081  11.680  21.326  0.00  0.00    +0.000 N 
ATOM     12  H   UNL     1      -2.291  11.249  20.427  0.00  0.00    +0.000 HD
BRANCH  11  13
ATOM     13  S   UNL     1      -3.183  12.843  21.748  0.00  0.00    +0.000 S 
ATOM     14  C   UNL     1      -4.227  12.940  20.306  0.00  0.00    +0.000 C 
ATOM     15  O   UNL     1      -3.949  12.381  22.881  0.00  0.00    +0.000 OA
ATOM     16  O   UNL     1      -2.420  14.073  21.818  0.00  0.00    +0.000 OA
ENDBRANCH  11  13
ENDBRANCH   5   9
BRANCH   1  17
ATOM     17  O   UNL     1       2.579   7.561  19.728  0.00  0.00    +0.000 OA
BRANCH  17  24
ATOM     18  C   UNL     1       2.568   3.495  18.303  0.00  0.00    +0.000 C 
ATOM     19  C   UNL     1       4.015   3.680  17.791  0.00  0.00    +0.000 C 
ATOM     20  C   UNL     1       4.512   5.103  18.090  0.00  0.00    +0.000 C 
ATOM     21  C   UNL     1       4.506   5.315  19.610  0.00  0.00    +0.000 C 
ATOM     22  C   UNL     1       3.076   5.158  20.155  0.00  0.00    +0.000 C 
ATOM     23  C   UNL     1       2.561   3.747  19.829  0.00  0.00    +0.000 C 
ATOM     24  C   UNL     1       2.143   6.207  19.499  0.00  0.00    +0.000 C 
ATOM     25  C   UNL     1       2.143   5.969  17.967  0.00  0.00    +0.000 C 
ATOM     26  C   UNL     1       3.573   6.115  17.412  0.00  0.00    +0.000 C 
ATOM     27  C   UNL     1       1.639   4.547  17.657  0.00  0.00    +0.000 C 
BRANCH  18  29
ATOM     28  C   UNL     1       0.906   1.811  18.841  0.00  0.00    +0.000 C 
ATOM     29  O   UNL     1       2.080   2.163  18.124  0.00  0.00    +0.000 OA
ENDBRANCH  18  29
ENDBRANCH  17  24
ENDBRANCH   1  17
TORSDOF 5
ENDMDL
MODEL 3
REMARK VINA RESULT:      -7.8      1.177      1.476
REMARK  Name = 
REMARK  7 active torsions:
REMARK  status: ('A' for Active; 'I' for Inactive)
REMARK    1  A    between atoms: C_1  and  O_2
REMARK    2  A    between atoms: O_2  and  C_3
REMARK    3  A    between atoms: C_9  and  O_10
REMARK    4  A    between atoms: O_10  and  C_11
REMARK    5  A    between atoms: C_15  and  C_16
REMARK    6  A    between atoms: N_18  and  S_19
REMARK    7  A    between atoms: S_19  and  C_20
REMARK                            x       y       z     vdW  Elec       q    Type
REMARK                         _______ _______ _______ _____ _____    ______ ____
ROOT
ATOM      1  C   UNL     1       2.543   7.081  18.657  0.00  0.00    +0.000 A 
ATOM      2  C   UNL     1       2.474   8.214  17.848  0.00  0.00    +0.000 A 
ATOM      3  C   UNL     1       1.791   9.344  18.291  0.00  0.00    +0.000 A 
ATOM      4  F   UNL     1       1.712  10.388  17.454  0.00  0.00    +0.000 F 
ATOM      5  C   UNL     1       1.188   9.382  19.549  0.00  0.00    +0.000 A 
ATOM      6  C   UNL     1       1.297   8.261  20.384  0.00  0.00    +0.000 A 
ATOM      7  C   UNL     1       1.978   7.122  19.941  0.00  0.00    +0.000 A 
ATOM      8 CL   UNL     1       2.050   5.760  21.002  0.00  0.00    +0.000 Cl
ENDROOT
BRANCH   5   9
ATOM      9  C   UNL     1       0.407  10.552  20.028  0.00  0.00    +0.000 C 
ATOM     10  O   UNL     1      -0.813  10.511  20.053  0.00  0.00    +0.000 OA
ATOM     11  N   UNL     1       1.138  11.696  20.363  0.00  0.00    +0.000 N 
ATOM     12  H   UNL     1       2.154  11.725  20.297  0.00  0.00    +0.000 HD
BRANCH  11  13
ATOM     13  S   UNL     1       0.498  13.103  20.959  0.00  0.00    +0.000 S 
ATOM     14  C   UNL     1       1.940  14.121  21.203  0.00  0.00    +0.000 C 
ATOM     15  O   UNL     1      -0.360  13.695  19.959  0.00  0.00    +0.000 OA
ATOM     16  O   UNL     1      -0.017  12.754  22.267  0.00  0.00    +0.000 OA
ENDBRANCH  11  13
ENDBRANCH   5   9
BRANCH   1  17
ATOM     17  O   UNL     1       3.151   5.921  18.255  0.00  0.00    +0.000 OA
BRANCH  17  24
ATOM     18  C   UNL     1       6.821   5.395  16.060  0.00  0.00    +0.000 C 
ATOM     19  C   UNL     1       7.326   4.427  17.155  0.00  0.00    +0.000 C 
ATOM     20  C   UNL     1       6.273   4.273  18.263  0.00  0.00    +0.000 C 
ATOM     21  C   UNL     1       4.996   3.685  17.648  0.00  0.00    +0.000 C 
ATOM     22  C   UNL     1       4.451   4.632  16.566  0.00  0.00    +0.000 C 
ATOM     23  C   UNL     1       5.513   4.816  15.471  0.00  0.00    +0.000 C 
ATOM     24  C   UNL     1       4.117   6.011  17.190  0.00  0.00    +0.000 C 
ATOM     25  C   UNL     1       5.419   6.602  17.789  0.00  0.00    +0.000 C 
ATOM     26  C   UNL     1       5.978   5.656  18.870  0.00  0.00    +0.000 C 
ATOM     27  C   UNL     1       6.478   6.766  16.684  0.00  0.00    +0.000 C 
BRANCH  18  29
ATOM     28  C   UNL     1       7.317   4.937  13.730  0.00  0.00    +0.000 C 
ATOM     29  O   UNL     1       7.727   5.513  14.961  0.00  0.00    +0.000 OA
ENDBRANCH  18  29
ENDBRANCH  17  24
ENDBRANCH   1  17
TORSDOF 5
ENDMDL
MODEL 4
REMARK VINA RESULT:      -7.7      1.158      2.031
REMARK  Name = 
REMARK  7 active torsions:
REMARK  status: ('A' for Active; 'I' for Inactive)
REMARK    1  A    between atoms: C_1  and  O_2
REMARK    2  A    between atoms: O_2  and  C_3
REMARK    3  A    between atoms: C_9  and  O_10
REMARK    4  A    between atoms: O_10  and  C_11
REMARK    5  A    between atoms: C_15  and  C_16
REMARK    6  A    between atoms: N_18  and  S_19
REMARK    7  A    between atoms: S_19  and  C_20
REMARK                            x       y       z     vdW  Elec       q    Type
REMARK                         _______ _______ _______ _____ _____    ______ ____
ROOT
ATOM      1  C   UNL     1       2.254   7.733  18.560  0.00  0.00    +0.000 A 
ATOM      2  C   UNL     1       2.169   8.993  17.971  0.00  0.00    +0.000 A 
ATOM      3  C   UNL     1       1.526  10.032  18.641  0.00  0.00    +0.000 A 
ATOM      4  F   UNL     1       1.428  11.209  18.008  0.00  0.00    +0.000 F 
ATOM      5  C   UNL     1       0.981   9.849  19.912  0.00  0.00    +0.000 A 
ATOM      6  C   UNL     1       1.107   8.596  20.527  0.00  0.00    +0.000 A 
ATOM      7  C   UNL     1       1.747   7.548  19.857  0.00  0.00    +0.000 A 
ATOM      8 CL   UNL     1       1.843   6.017  20.652  0.00  0.00    +0.000 Cl
ENDROOT
BRANCH   5   9
ATOM      9  C   UNL     1       0.243  10.921  20.629  0.00  0.00    +0.000 C 
ATOM     10  O   UNL     1       0.692  11.397  21.659  0.00  0.00    +0.000 OA
ATOM     11  N   UNL     1      -1.003  11.279  20.104  0.00  0.00    +0.000 N 
ATOM     12  H   UNL     1      -1.381  10.841  19.265  0.00  0.00    +0.000 HD
BRANCH  11  13
ATOM     13  S   UNL     1      -1.989  12.470  20.701  0.00  0.00    +0.000 S 
ATOM     14  C   UNL     1      -3.434  12.341  19.666  0.00  0.00    +0.000 C 
ATOM     15  O   UNL     1      -2.333  12.160  22.069  0.00  0.00    +0.000 OA
ATOM     16  O   UNL     1      -1.321  13.711  20.366  0.00  0.00    +0.000 OA
ENDBRANCH  11  13
ENDBRANCH   5   9
BRANCH   1  17
ATOM     17  O   UNL     1       2.822   6.657  17.929  0.00  0.00    +0.000 OA
BRANCH  17  24
ATOM     18  C   UNL     1       6.708   4.801  17.834  0.00  0.00    +0.000 C 
ATOM     19  C   UNL     1       6.442   4.338  16.383  0.00  0.00    +0.000 C 
ATOM     20  C   UNL     1       5.052   4.800  15.920  0.00  0.00    +0.000 C 
ATOM     21  C   UNL     1       5.006   6.333  15.956  0.00  0.00    +0.000 C 
ATOM     22  C   UNL     1       5.247   6.831  17.391  0.00  0.00    +0.000 C 
ATOM     23  C   UNL     1       6.624   6.345  17.872  0.00  0.00    +0.000 C 
ATOM     24  C   UNL     1       4.150   6.275  18.334  0.00  0.00    +0.000 C 
ATOM     25  C   UNL     1       4.221   4.727  18.304  0.00  0.00    +0.000 C 
ATOM     26  C   UNL     1       3.989   4.217  16.867  0.00  0.00    +0.000 C 
ATOM     27  C   UNL     1       5.609   4.255  18.773  0.00  0.00    +0.000 C 
BRANCH  18  29
ATOM     28  C   UNL     1       8.507   5.190  19.415  0.00  0.00    +0.000 C 
ATOM     29  O   UNL     1       8.021   4.470  18.291  0.00  0.00    +0.000 OA
ENDBRANCH  18  29
ENDBRANCH  17  24
ENDBRANCH   1  17
TORSDOF 5
ENDMDL
MODEL 5
REMARK VINA RESULT:      -7.6      2.977      4.094
REMARK  Name = 
REMARK  7 active torsions:
REMARK  status: ('A' for Active; 'I' for Inactive)
REMARK    1  A    between atoms: C_1  and  O_2
REMARK    2  A    between atoms: O_2  and  C_3
REMARK    3  A    between atoms: C_9  and  O_10
REMARK    4  A    between atoms: O_10  and  C_11
REMARK    5  A    between atoms: C_15  and  C_16
REMARK    6  A    between atoms: N_18  and  S_19
REMARK    7  A    between atoms: S_19  and  C_20
REMARK                            x       y       z     vdW  Elec       q    Type
REMARK                         _______ _______ _______ _____ _____    ______ ____
ROOT
ATOM      1  C   UNL     1       1.664   8.480  20.383  0.00  0.00    +0.000 A 
ATOM      2  C   UNL     1       1.478   8.415  21.763  0.00  0.00    +0.000 A 
ATOM      3  C   UNL     1       0.662   9.348  22.399  0.00  0.00    +0.000 A 
ATOM      4  F   UNL     1       0.558   9.271  23.733  0.00  0.00    +0.000 F 
ATOM      5  C   UNL     1      -0.002  10.343  21.680  0.00  0.00    +0.000 A 
ATOM      6  C   UNL     1       0.145  10.381  20.286  0.00  0.00    +0.000 A 
ATOM      7  C   UNL     1       0.967   9.449  19.643  0.00  0.00    +0.000 A 
ATOM      8 CL   UNL     1       1.136   9.567  17.927  0.00  0.00    +0.000 Cl
ENDROOT
BRANCH   5   9
ATOM      9  C   UNL     1      -0.835  11.384  22.335  0.00  0.00    +0.000 C 
ATOM     10  O   UNL     1      -1.699  11.070  23.138  0.00  0.00    +0.000 OA
ATOM     11  N   UNL     1      -0.623  12.704  21.921  0.00  0.00    +0.000 N 
ATOM     12  H   UNL     1       0.076  12.943  21.219  0.00  0.00    +0.000 HD
BRANCH  11  13
ATOM     13  S   UNL     1      -1.396  14.036  22.531  0.00  0.00    +0.000 S 
ATOM     14  C   UNL     1      -0.672  15.373  21.601  0.00  0.00    +0.000 C 
ATOM     15  O   UNL     1      -2.807  13.941  22.240  0.00  0.00    +0.000 OA
ATOM     16  O   UNL     1      -0.925  14.149  23.897  0.00  0.00    +0.000 OA
ENDBRANCH  11  13
ENDBRANCH   5   9
BRANCH   1  17
ATOM     17  O   UNL     1       2.498   7.628  19.708  0.00  0.00    +0.000 OA
BRANCH  17  24
ATOM     18  C   UNL     1       2.435   3.535  18.365  0.00  0.00    +0.000 C 
ATOM     19  C   UNL     1       3.898   3.680  17.884  0.00  0.00    +0.000 C 
ATOM     20  C   UNL     1       4.417   5.098  18.167  0.00  0.00    +0.000 C 
ATOM     21  C   UNL     1       4.379   5.341  19.681  0.00  0.00    +0.000 C 
ATOM     22  C   UNL     1       2.934   5.225  20.195  0.00  0.00    +0.000 C 
ATOM     23  C   UNL     1       2.398   3.818  19.885  0.00  0.00    +0.000 C 
ATOM     24  C   UNL     1       2.039   6.279  19.496  0.00  0.00    +0.000 C 
ATOM     25  C   UNL     1       2.070   6.010  17.969  0.00  0.00    +0.000 C 
ATOM     26  C   UNL     1       3.516   6.115  17.446  0.00  0.00    +0.000 C 
ATOM     27  C   UNL     1       1.545   4.592  17.676  0.00  0.00    +0.000 C 
BRANCH  18  29
ATOM     28  C   UNL     1       0.723   1.899  18.890  0.00  0.00    +0.000 C 
ATOM     29  O   UNL     1       1.925   2.210  18.201  0.00  0.00    +0.000 OA
ENDBRANCH  18  29
ENDBRANCH  17  24
ENDBRANCH   1  17
TORSDOF 5
ENDMDL
MODEL 6
REMARK VINA RESULT:      -7.5      2.835      3.973
REMARK  Name = 
REMARK  7 active torsions:
REMARK  status: ('A' for Active; 'I' for Inactive)
REMARK    1  A    between atoms: C_1  and  O_2
REMARK    2  A    between atoms: O_2  and  C_3
REMARK    3  A    between atoms: C_9  and  O_10
REMARK    4  A    between atoms: O_10  and  C_11
REMARK    5  A    between atoms: C_15  and  C_16
REMARK    6  A    between atoms: N_18  and  S_19
REMARK    7  A    between atoms: S_19  and  C_20
REMARK                            x       y       z     vdW  Elec       q    Type
REMARK                         _______ _______ _______ _____ _____    ______ ____
ROOT
ATOM      1  C   UNL     1       1.702   8.354  20.092  0.00  0.00    +0.000 A 
ATOM      2  C   UNL     1       1.088   8.327  21.343  0.00  0.00    +0.000 A 
ATOM      3  C   UNL     1       0.181   9.325  21.694  0.00  0.00    +0.000 A 
ATOM      4  F   UNL     1      -0.341   9.279  22.927  0.00  0.00    +0.000 F 
ATOM      5  C   UNL     1      -0.152  10.349  20.808  0.00  0.00    +0.000 A 
ATOM      6  C   UNL     1       0.428  10.352  19.531  0.00  0.00    +0.000 A 
ATOM      7  C   UNL     1       1.343   9.355  19.175  0.00  0.00    +0.000 A 
ATOM      8 CL   UNL     1       2.049   9.430  17.599  0.00  0.00    +0.000 Cl
ENDROOT
BRANCH   5   9
ATOM      9  C   UNL     1      -1.073  11.456  21.171  0.00  0.00    +0.000 C 
ATOM     10  O   UNL     1      -2.018  11.735  20.452  0.00  0.00    +0.000 OA
ATOM     11  N   UNL     1      -0.746  12.188  22.318  0.00  0.00    +0.000 N 
ATOM     12  H   UNL     1       0.071  11.966  22.884  0.00  0.00    +0.000 HD
BRANCH  11  13
ATOM     13  S   UNL     1      -1.637  13.436  22.946  0.00  0.00    +0.000 S 
ATOM     14  C   UNL     1      -3.091  12.611  23.565  0.00  0.00    +0.000 C 
ATOM     15  O   UNL     1      -0.908  14.037  24.038  0.00  0.00    +0.000 OA
ATOM     16  O   UNL     1      -2.038  14.223  21.797  0.00  0.00    +0.000 OA
ENDBRANCH  11  13
ENDBRANCH   5   9
BRANCH   1  17
ATOM     17  O   UNL     1       2.644   7.435  19.710  0.00  0.00    +0.000 OA
BRANCH  17  24
ATOM     18  C   UNL     1       2.608   3.330  18.402  0.00  0.00    +0.000 C 
ATOM     19  C   UNL     1       4.030   3.512  17.822  0.00  0.00    +0.000 C 
ATOM     20  C   UNL     1       4.527   4.946  18.060  0.00  0.00    +0.000 C 
ATOM     21  C   UNL     1       4.584   5.202  19.572  0.00  0.00    +0.000 C 
ATOM     22  C   UNL     1       3.180   5.049  20.182  0.00  0.00    +0.000 C 
ATOM     23  C   UNL     1       2.665   3.626  19.919  0.00  0.00    +0.000 C 
ATOM     24  C   UNL     1       2.210   6.072  19.538  0.00  0.00    +0.000 C 
ATOM     25  C   UNL     1       2.147   5.790  18.015  0.00  0.00    +0.000 C 
ATOM     26  C   UNL     1       3.551   5.932  17.394  0.00  0.00    +0.000 C 
ATOM     27  C   UNL     1       1.643   4.356  17.767  0.00  0.00    +0.000 C 
BRANCH  18  29
ATOM     28  C   UNL     1       0.803   1.744  18.737  0.00  0.00    +0.000 C 
ATOM     29  O   UNL     1       2.126   1.990  18.282  0.00  0.00    +0.000 OA
ENDBRANCH  18  29
ENDBRANCH  17  24
ENDBRANCH   1  17
TORSDOF 5
ENDMDL
MODEL 7
REMARK VINA RESULT:      -7.5      1.630      2.345
REMARK  Name = 
REMARK  7 active torsions:
REMARK  status: ('A' for Active; 'I' for Inactive)
REMARK    1  A    between atoms: C_1  and  O_2
REMARK    2  A    between atoms: O_2  and  C_3
REMARK    3  A    between atoms: C_9  and  O_10
REMARK    4  A    between atoms: O_10  and  C_11
REMARK    5  A    between atoms: C_15  and  C_16
REMARK    6  A    between atoms: N_18  and  S_19
REMARK    7  A    between atoms: S_19  and  C_20
REMARK                            x       y       z     vdW  Elec       q    Type
REMARK                         _______ _______ _______ _____ _____    ______ ____
ROOT
ATOM      1  C   UNL     1       2.254   7.703  18.512  0.00  0.00    +0.000 A 
ATOM      2  C   UNL     1       2.192   8.932  17.858  0.00  0.00    +0.000 A 
ATOM      3  C   UNL     1       1.563  10.014  18.470  0.00  0.00    +0.000 A 
ATOM      4  F   UNL     1       1.488  11.159  17.776  0.00  0.00    +0.000 F 
ATOM      5  C   UNL     1       1.008   9.906  19.745  0.00  0.00    +0.000 A 
ATOM      6  C   UNL     1       1.111   8.684  20.424  0.00  0.00    +0.000 A 
ATOM      7  C   UNL     1       1.738   7.593  19.813  0.00  0.00    +0.000 A 
ATOM      8 CL   UNL     1       1.804   6.104  20.686  0.00  0.00    +0.000 Cl
ENDROOT
BRANCH   5   9
ATOM      9  C   UNL     1       0.283  11.025  20.401  0.00  0.00    +0.000 C 
ATOM     10  O   UNL     1      -0.934  11.004  20.491  0.00  0.00    +0.000 OA
ATOM     11  N   UNL     1       1.060  12.108  20.825  0.00  0.00    +0.000 N 
ATOM     12  H   UNL     1       2.071  12.126  20.706  0.00  0.00    +0.000 HD
BRANCH  11  13
ATOM     13  S   UNL     1       0.488  13.447  21.617  0.00  0.00    +0.000 S 
ATOM     14  C   UNL     1      -0.334  14.352  20.320  0.00  0.00    +0.000 C 
ATOM     15  O   UNL     1      -0.471  13.034  22.615  0.00  0.00    +0.000 OA
ATOM     16  O   UNL     1       1.672  14.195  21.989  0.00  0.00    +0.000 OA
ENDBRANCH  11  13
ENDBRANCH   5   9
BRANCH   1  17
ATOM     17  O   UNL     1       2.808   6.588  17.940  0.00  0.00    +0.000 OA
BRANCH  17  24
ATOM     18  C   UNL     1       6.716   4.776  17.865  0.00  0.00    +0.000 C 
ATOM     19  C   UNL     1       6.459   4.304  16.415  0.00  0.00    +0.000 C 
ATOM     20  C   UNL     1       5.065   4.746  15.946  0.00  0.00    +0.000 C 
ATOM     21  C   UNL     1       5.001   6.279  15.974  0.00  0.00    +0.000 C 
ATOM     22  C   UNL     1       5.233   6.787  17.408  0.00  0.00    +0.000 C 
ATOM     23  C   UNL     1       6.613   6.319  17.895  0.00  0.00    +0.000 C 
ATOM     24  C   UNL     1       4.140   6.223  18.351  0.00  0.00    +0.000 C 
ATOM     25  C   UNL     1       4.228   4.676  18.328  0.00  0.00    +0.000 C 
ATOM     26  C   UNL     1       4.006   4.156  16.894  0.00  0.00    +0.000 C 
ATOM     27  C   UNL     1       5.621   4.223  18.804  0.00  0.00    +0.000 C 
BRANCH  18  29
ATOM     28  C   UNL     1       8.518   5.215  19.429  0.00  0.00    +0.000 C 
ATOM     29  O   UNL     1       8.032   4.463  18.328  0.00  0.00    +0.000 OA
ENDBRANCH  18  29
ENDBRANCH  17  24
ENDBRANCH   1  17
TORSDOF 5
ENDMDL
MODEL 8
REMARK VINA RESULT:      -7.4      2.854      3.837
REMARK  Name = 
REMARK  7 active torsions:
REMARK  status: ('A' for Active; 'I' for Inactive)
REMARK    1  A    between atoms: C_1  and  O_2
REMARK    2  A    between atoms: O_2  and  C_3
REMARK    3  A    between atoms: C_9  and  O_10
REMARK    4  A    between atoms: O_10  and  C_11
REMARK    5  A    between atoms: C_15  and  C_16
REMARK    6  A    between atoms: N_18  and  S_19
REMARK    7  A    between atoms: S_19  and  C_20
REMARK                            x       y       z     vdW  Elec       q    Type
REMARK                         _______ _______ _______ _____ _____    ______ ____
ROOT
ATOM      1  C   UNL     1       1.645   8.447  20.170  0.00  0.00    +0.000 A 
ATOM      2  C   UNL     1       1.227   8.235  21.482  0.00  0.00    +0.000 A 
ATOM      3  C   UNL     1       0.344   9.130  22.084  0.00  0.00    +0.000 A 
ATOM      4  F   UNL     1       0.015   8.907  23.364  0.00  0.00    +0.000 F 
ATOM      5  C   UNL     1      -0.159  10.231  21.391  0.00  0.00    +0.000 A 
ATOM      6  C   UNL     1       0.222  10.419  20.055  0.00  0.00    +0.000 A 
ATOM      7  C   UNL     1       1.112   9.527  19.448  0.00  0.00    +0.000 A 
ATOM      8 CL   UNL     1       1.570   9.830  17.809  0.00  0.00    +0.000 Cl
ENDROOT
BRANCH   5   9
ATOM      9  C   UNL     1      -1.059  11.232  22.021  0.00  0.00    +0.000 C 
ATOM     10  O   UNL     1      -0.925  11.529  23.197  0.00  0.00    +0.000 OA
ATOM     11  N   UNL     1      -2.089  11.735  21.220  0.00  0.00    +0.000 N 
ATOM     12  H   UNL     1      -2.210  11.444  20.251  0.00  0.00    +0.000 HD
BRANCH  11  13
ATOM     13  S   UNL     1      -3.188  12.886  21.682  0.00  0.00    +0.000 S 
ATOM     14  C   UNL     1      -2.149  14.237  22.205  0.00  0.00    +0.000 C 
ATOM     15  O   UNL     1      -3.971  13.282  20.535  0.00  0.00    +0.000 OA
ATOM     16  O   UNL     1      -3.824  12.342  22.865  0.00  0.00    +0.000 OA
ENDBRANCH  11  13
ENDBRANCH   5   9
BRANCH   1  17
ATOM     17  O   UNL     1       2.554   7.636  19.543  0.00  0.00    +0.000 OA
BRANCH  17  24
ATOM     18  C   UNL     1       2.849   3.489  18.415  0.00  0.00    +0.000 C 
ATOM     19  C   UNL     1       4.255   3.757  17.830  0.00  0.00    +0.000 C 
ATOM     20  C   UNL     1       4.636   5.235  18.006  0.00  0.00    +0.000 C 
ATOM     21  C   UNL     1       4.665   5.559  19.505  0.00  0.00    +0.000 C 
ATOM     22  C   UNL     1       3.275   5.323  20.120  0.00  0.00    +0.000 C 
ATOM     23  C   UNL     1       2.874   3.853  19.918  0.00  0.00    +0.000 C 
ATOM     24  C   UNL     1       2.230   6.237  19.430  0.00  0.00    +0.000 C 
ATOM     25  C   UNL     1       2.197   5.886  17.921  0.00  0.00    +0.000 C 
ATOM     26  C   UNL     1       3.588   6.111  17.296  0.00  0.00    +0.000 C 
ATOM     27  C   UNL     1       1.809   4.407  17.735  0.00  0.00    +0.000 C 
BRANCH  18  29
ATOM     28  C   UNL     1       3.523   1.158  18.448  0.00  0.00    +0.000 C 
ATOM     29  O   UNL     1       2.474   2.111  18.353  0.00  0.00    +0.000 OA
ENDBRANCH  18  29
ENDBRANCH  17  24
ENDBRANCH   1  17
TORSDOF 5
ENDMDL
MODEL 9
REMARK VINA RESULT:      -7.3      2.741      3.798
REMARK  Name = 
REMARK  7 active torsions:
REMARK  status: ('A' for Active; 'I' for Inactive)
REMARK    1  A    between atoms: C_1  and  O_2
REMARK    2  A    between atoms: O_2  and  C_3
REMARK    3  A    between atoms: C_9  and  O_10
REMARK    4  A    between atoms: O_10  and  C_11
REMARK    5  A    between atoms: C_15  and  C_16
REMARK    6  A    between atoms: N_18  and  S_19
REMARK    7  A    between atoms: S_19  and  C_20
REMARK                            x       y       z     vdW  Elec       q    Type
REMARK                         _______ _______ _______ _____ _____    ______ ____
ROOT
ATOM      1  C   UNL     1       1.670   8.344  19.995  0.00  0.00    +0.000 A 
ATOM      2  C   UNL     1       0.896   8.299  21.154  0.00  0.00    +0.000 A 
ATOM      3  C   UNL     1      -0.100   9.250  21.362  0.00  0.00    +0.000 A 
ATOM      4  F   UNL     1      -0.780   9.191  22.515  0.00  0.00    +0.000 F 
ATOM      5  C   UNL     1      -0.364  10.245  20.420  0.00  0.00    +0.000 A 
ATOM      6  C   UNL     1       0.381  10.264  19.232  0.00  0.00    +0.000 A 
ATOM      7  C   UNL     1       1.386   9.313  19.020  0.00  0.00    +0.000 A 
ATOM      8 CL   UNL     1       2.292   9.408  17.552  0.00  0.00    +0.000 Cl
ENDROOT
BRANCH   5   9
ATOM      9  C   UNL     1      -1.381  11.305  20.638  0.00  0.00    +0.000 C 
ATOM     10  O   UNL     1      -2.251  11.506  19.806  0.00  0.00    +0.000 OA
ATOM     11  N   UNL     1      -1.231  12.088  21.787  0.00  0.00    +0.000 N 
ATOM     12  H   UNL     1      -0.474  11.932  22.451  0.00  0.00    +0.000 HD
BRANCH  11  13
ATOM     13  S   UNL     1      -2.257  13.298  22.265  0.00  0.00    +0.000 S 
ATOM     14  C   UNL     1      -1.433  13.975  23.692  0.00  0.00    +0.000 C 
ATOM     15  O   UNL     1      -2.335  14.294  21.221  0.00  0.00    +0.000 OA
ATOM     16  O   UNL     1      -3.448  12.616  22.730  0.00  0.00    +0.000 OA
ENDBRANCH  11  13
ENDBRANCH   5   9
BRANCH   1  17
ATOM     17  O   UNL     1       2.701   7.473  19.759  0.00  0.00    +0.000 OA
BRANCH  17  24
ATOM     18  C   UNL     1       2.934   3.442  18.254  0.00  0.00    +0.000 C 
ATOM     19  C   UNL     1       4.329   3.754  17.662  0.00  0.00    +0.000 C 
ATOM     20  C   UNL     1       4.725   5.208  17.961  0.00  0.00    +0.000 C 
ATOM     21  C   UNL     1       4.793   5.395  19.483  0.00  0.00    +0.000 C 
ATOM     22  C   UNL     1       3.416   5.112  20.107  0.00  0.00    +0.000 C 
ATOM     23  C   UNL     1       2.999   3.669  19.783  0.00  0.00    +0.000 C 
ATOM     24  C   UNL     1       2.363   6.092  19.528  0.00  0.00    +0.000 C 
ATOM     25  C   UNL     1       2.290   5.878  17.995  0.00  0.00    +0.000 C 
ATOM     26  C   UNL     1       3.668   6.151  17.360  0.00  0.00    +0.000 C 
ATOM     27  C   UNL     1       1.887   4.425  17.685  0.00  0.00    +0.000 C 
BRANCH  18  29
ATOM     28  C   UNL     1       3.494   1.091  18.458  0.00  0.00    +0.000 C 
ATOM     29  O   UNL     1       2.547   2.078  18.077  0.00  0.00    +0.000 OA
ENDBRANCH  18  29
ENDBRANCH  17  24
ENDBRANCH   1  17
TORSDOF 5
ENDMDL
