MODEL 1
REMARK VINA RESULT:      -8.2      0.000      0.000
REMARK  Name = 
REMARK  6 active torsions:
REMARK  status: ('A' for Active; 'I' for Inactive)
REMARK    1  A    between atoms: C_2  and  C_3
REMARK    2  A    between atoms: C_3  and  C_4
REMARK    3  A    between atoms: N_10  and  C_11
REMARK    4  A    between atoms: C_11  and  C_12
REMARK    5  A    between atoms: C_16  and  C_17
REMARK    6  A    between atoms: N_22  and  C_23
REMARK                            x       y       z     vdW  Elec       q    Type
REMARK                         _______ _______ _______ _____ _____    ______ ____
ROOT
ATOM      1  C   UNL     1       2.133   5.418  18.810  0.00  0.00    +0.000 C 
ATOM      2  C   UNL     1       1.448   5.199  20.180  0.00  0.00    +0.000 C 
ATOM      3  O   UNL     1       1.349   6.088  21.026  0.00  0.00    +0.000 OA
ATOM      4  N   UNL     1       0.799   4.009  20.384  0.00  0.00    +0.000 N 
ATOM      5  C   UNL     1       1.089   2.821  19.611  0.00  0.00    +0.000 C 
ATOM      6  C   UNL     1       1.549   3.149  18.187  0.00  0.00    +0.000 C 
ATOM      7  N   UNL     1       2.629   4.162  18.157  0.00  0.00    +0.000 NA
ATOM      8  H   UNL     1       0.363   3.916  21.293  0.00  0.00    +0.000 HD
ENDROOT
BRANCH   1   9
ATOM      9  C   UNL     1       3.043   6.659  18.795  0.00  0.00    +0.000 C 
BRANCH   9  11
ATOM     10  O   UNL     1       2.574   8.444  17.244  0.00  0.00    +0.000 OA
ATOM     11  C   UNL     1       2.437   7.986  18.375  0.00  0.00    +0.000 C 
ATOM     12  N   UNL     1       1.661   8.607  19.326  0.00  0.00    +0.000 N 
ATOM     13  H   UNL     1       1.836   8.341  20.299  0.00  0.00    +0.000 HD
BRANCH  12  14
ATOM     14  C   UNL     1       1.008   9.899  19.101  0.00  0.00    +0.000 C 
ATOM     15  C   UNL     1       0.719  10.607  20.427  0.00  0.00    +0.000 C 
ATOM     16  C   UNL     1      -0.166  11.823  20.202  0.00  0.00    +0.000 C 
ATOM     17  O   UNL     1      -1.384  11.425  19.576  0.00  0.00    +0.000 OA
ATOM     18  C   UNL     1      -1.163  10.923  18.260  0.00  0.00    +0.000 C 
ATOM     19  C   UNL     1      -0.265   9.694  18.276  0.00  0.00    +0.000 C 
ENDBRANCH  12  14
ENDBRANCH   9  11
ENDBRANCH   1   9
BRANCH   7  20
ATOM     20  C   UNL     1       3.896   3.648  18.702  0.00  0.00    +0.000 C 
BRANCH  20  21
ATOM     21  C   UNL     1       5.115   4.133  17.933  0.00  0.00    +0.000 A 
ATOM     22  C   UNL     1       6.211   4.717  18.582  0.00  0.00    +0.000 A 
ATOM     23  C   UNL     1       7.312   5.165  17.848  0.00  0.00    +0.000 A 
ATOM     24  C   UNL     1       7.329   5.039  16.457  0.00  0.00    +0.000 A 
ATOM     25  C   UNL     1       6.246   4.460  15.785  0.00  0.00    +0.000 A 
ATOM     26  C   UNL     1       5.145   4.012  16.533  0.00  0.00    +0.000 A 
BRANCH  25  27
ATOM     27  C   UNL     1       6.230   4.315  14.284  0.00  0.00    +0.000 C 
ATOM     28  F   UNL     1       7.192   5.046  13.654  0.00  0.00    +0.000 F 
ATOM     29  F   UNL     1       6.423   3.026  13.883  0.00  0.00    +0.000 F 
ATOM     30  F   UNL     1       5.047   4.703  13.733  0.00  0.00    +0.000 F 
ENDBRANCH  25  27
ENDBRANCH  20  21
ENDBRANCH   7  20
TORSDOF 6
ENDMDL
MODEL 2
REMARK VINA RESULT:      -8.1      4.740      6.292
REMARK  Name = 
REMARK  6 active torsions:
REMARK  status: ('A' for Active; 'I' for Inactive)
REMARK    1  A    between atoms: C_2  and  C_3
REMARK    2  A    between atoms: C_3  and  C_4
REMARK    3  A    between atoms: N_10  and  C_11
REMARK    4  A    between atoms: C_11  and  C_12
REMARK    5  A    between atoms: C_16  and  C_17
REMARK    6  A    between atoms: N_22  and  C_23
REMARK                            x       y       z     vdW  Elec       q    Type
REMARK                         _______ _______ _______ _____ _____    ______ ____
ROOT
ATOM      1  C   UNL     1       6.635   6.111  18.006  0.00  0.00    +0.000 C 
ATOM      2  C   UNL     1       6.581   5.295  19.319  0.00  0.00    +0.000 C 
ATOM      3  O   UNL     1       7.354   5.489  20.257  0.00  0.00    +0.000 OA
ATOM      4  N   UNL     1       5.530   4.431  19.488  0.00  0.00    +0.000 N 
ATOM      5  C   UNL     1       4.756   3.918  18.379  0.00  0.00    +0.000 C 
ATOM      6  C   UNL     1       4.688   4.906  17.210  0.00  0.00    +0.000 C 
ATOM      7  N   UNL     1       6.021   5.423  16.823  0.00  0.00    +0.000 NA
ATOM      8  H   UNL     1       5.536   3.925  20.366  0.00  0.00    +0.000 HD
ENDROOT
BRANCH   1   9
ATOM      9  C   UNL     1       7.979   6.835  17.814  0.00  0.00    +0.000 C 
BRANCH   9  11
ATOM     10  O   UNL     1       7.261   9.047  17.176  0.00  0.00    +0.000 OA
ATOM     11  C   UNL     1       7.991   8.352  17.878  0.00  0.00    +0.000 C 
ATOM     12  N   UNL     1       8.821   8.895  18.830  0.00  0.00    +0.000 N 
ATOM     13  H   UNL     1       9.594   8.303  19.149  0.00  0.00    +0.000 HD
BRANCH  12  14
ATOM     14  C   UNL     1       8.970  10.339  19.027  0.00  0.00    +0.000 C 
ATOM     15  C   UNL     1       9.864  10.953  17.947  0.00  0.00    +0.000 C 
ATOM     16  C   UNL     1      10.207  12.393  18.292  0.00  0.00    +0.000 C 
ATOM     17  O   UNL     1      10.855  12.446  19.562  0.00  0.00    +0.000 OA
ATOM     18  C   UNL     1       9.983  12.047  20.616  0.00  0.00    +0.000 C 
ATOM     19  C   UNL     1       9.507  10.612  20.435  0.00  0.00    +0.000 C 
ENDBRANCH  12  14
ENDBRANCH   9  11
ENDBRANCH   1   9
BRANCH   7  20
ATOM     20  C   UNL     1       6.868   4.387  16.208  0.00  0.00    +0.000 C 
BRANCH  20  21
ATOM     21  C   UNL     1       6.928   4.491  14.692  0.00  0.00    +0.000 A 
ATOM     22  C   UNL     1       7.911   5.251  14.044  0.00  0.00    +0.000 A 
ATOM     23  C   UNL     1       7.934   5.338  12.650  0.00  0.00    +0.000 A 
ATOM     24  C   UNL     1       6.974   4.670  11.887  0.00  0.00    +0.000 A 
ATOM     25  C   UNL     1       5.981   3.905  12.511  0.00  0.00    +0.000 A 
ATOM     26  C   UNL     1       5.968   3.824  13.913  0.00  0.00    +0.000 A 
BRANCH  25  27
ATOM     27  C   UNL     1       4.925   3.177  11.717  0.00  0.00    +0.000 C 
ATOM     28  F   UNL     1       3.781   2.940  12.416  0.00  0.00    +0.000 F 
ATOM     29  F   UNL     1       4.543   3.866  10.604  0.00  0.00    +0.000 F 
ATOM     30  F   UNL     1       5.349   1.960  11.275  0.00  0.00    +0.000 F 
ENDBRANCH  25  27
ENDBRANCH  20  21
ENDBRANCH   7  20
TORSDOF 6
ENDMDL
MODEL 3
REMARK VINA RESULT:      -8.0      0.668      1.030
REMARK  Name = 
REMARK  6 active torsions:
REMARK  status: ('A' for Active; 'I' for Inactive)
REMARK    1  A    between atoms: C_2  and  C_3
REMARK    2  A    between atoms: C_3  and  C_4
REMARK    3  A    between atoms: N_10  and  C_11
REMARK    4  A    between atoms: C_11  and  C_12
REMARK    5  A    between atoms: C_16  and  C_17
REMARK    6  A    between atoms: N_22  and  C_23
REMARK                            x       y       z     vdW  Elec       q    Type
REMARK                         _______ _______ _______ _____ _____    ______ ____
ROOT
ATOM      1  C   UNL     1       2.131   5.434  18.869  0.00  0.00    +0.000 C 
ATOM      2  C   UNL     1       1.456   5.227  20.245  0.00  0.00    +0.000 C 
ATOM      3  O   UNL     1       1.325   6.134  21.068  0.00  0.00    +0.000 OA
ATOM      4  N   UNL     1       0.850   4.020  20.482  0.00  0.00    +0.000 N 
ATOM      5  C   UNL     1       1.181   2.823  19.740  0.00  0.00    +0.000 C 
ATOM      6  C   UNL     1       1.628   3.130  18.307  0.00  0.00    +0.000 C 
ATOM      7  N   UNL     1       2.671   4.180  18.249  0.00  0.00    +0.000 NA
ATOM      8  H   UNL     1       0.417   3.935  21.394  0.00  0.00    +0.000 HD
ENDROOT
BRANCH   1   9
ATOM      9  C   UNL     1       2.996   6.706  18.820  0.00  0.00    +0.000 C 
BRANCH   9  11
ATOM     10  O   UNL     1       2.546   8.373  17.138  0.00  0.00    +0.000 OA
ATOM     11  C   UNL     1       2.366   7.980  18.287  0.00  0.00    +0.000 C 
ATOM     12  N   UNL     1       1.519   8.627  19.156  0.00  0.00    +0.000 N 
ATOM     13  H   UNL     1       1.651   8.428  20.152  0.00  0.00    +0.000 HD
BRANCH  12  14
ATOM     14  C   UNL     1       0.832   9.876  18.817  0.00  0.00    +0.000 C 
ATOM     15  C   UNL     1       1.799  11.062  18.853  0.00  0.00    +0.000 C 
ATOM     16  C   UNL     1       1.040  12.375  18.738  0.00  0.00    +0.000 C 
ATOM     17  O   UNL     1       0.089  12.477  19.796  0.00  0.00    +0.000 OA
ATOM     18  C   UNL     1      -0.932  11.488  19.686  0.00  0.00    +0.000 C 
ATOM     19  C   UNL     1      -0.356  10.081  19.760  0.00  0.00    +0.000 C 
ENDBRANCH  12  14
ENDBRANCH   9  11
ENDBRANCH   1   9
BRANCH   7  20
ATOM     20  C   UNL     1       3.957   3.725  18.805  0.00  0.00    +0.000 C 
BRANCH  20  21
ATOM     21  C   UNL     1       5.154   4.187  17.989  0.00  0.00    +0.000 A 
ATOM     22  C   UNL     1       6.276   4.769  18.593  0.00  0.00    +0.000 A 
ATOM     23  C   UNL     1       7.357   5.195  17.816  0.00  0.00    +0.000 A 
ATOM     24  C   UNL     1       7.327   5.048  16.428  0.00  0.00    +0.000 A 
ATOM     25  C   UNL     1       6.217   4.470  15.801  0.00  0.00    +0.000 A 
ATOM     26  C   UNL     1       5.137   4.045  16.592  0.00  0.00    +0.000 A 
BRANCH  25  27
ATOM     27  C   UNL     1       6.151   4.303  14.303  0.00  0.00    +0.000 C 
ATOM     28  F   UNL     1       6.422   3.036  13.883  0.00  0.00    +0.000 F 
ATOM     29  F   UNL     1       4.920   4.604  13.800  0.00  0.00    +0.000 F 
ATOM     30  F   UNL     1       7.030   5.109  13.647  0.00  0.00    +0.000 F 
ENDBRANCH  25  27
ENDBRANCH  20  21
ENDBRANCH   7  20
TORSDOF 6
ENDMDL
MODEL 4
REMARK VINA RESULT:      -8.0      0.766      1.128
REMARK  Name = 
REMARK  6 active torsions:
REMARK  status: ('A' for Active; 'I' for Inactive)
REMARK    1  A    between atoms: C_2  and  C_3
REMARK    2  A    between atoms: C_3  and  C_4
REMARK    3  A    between atoms: N_10  and  C_11
REMARK    4  A    between atoms: C_11  and  C_12
REMARK    5  A    between atoms: C_16  and  C_17
REMARK    6  A    between atoms: N_22  and  C_23
REMARK                            x       y       z     vdW  Elec       q    Type
REMARK                         _______ _______ _______ _____ _____    ______ ____
ROOT
ATOM      1  C   UNL     1       2.376   5.421  18.420  0.00  0.00    +0.000 C 
ATOM      2  C   UNL     1       1.840   4.955  19.793  0.00  0.00    +0.000 C 
ATOM      3  O   UNL     1       1.786   5.697  20.775  0.00  0.00    +0.000 OA
ATOM      4  N   UNL     1       1.265   3.713  19.864  0.00  0.00    +0.000 N 
ATOM      5  C   UNL     1       1.528   2.676  18.890  0.00  0.00    +0.000 C 
ATOM      6  C   UNL     1       1.831   3.245  17.500  0.00  0.00    +0.000 C 
ATOM      7  N   UNL     1       2.859   4.311  17.534  0.00  0.00    +0.000 NA
ATOM      8  H   UNL     1       0.924   3.456  20.782  0.00  0.00    +0.000 HD
ENDROOT
BRANCH   1   9
ATOM      9  C   UNL     1       3.228   6.699  18.519  0.00  0.00    +0.000 C 
BRANCH   9  11
ATOM     10  O   UNL     1       2.692   8.584  17.114  0.00  0.00    +0.000 OA
ATOM     11  C   UNL     1       2.564   8.028  18.201  0.00  0.00    +0.000 C 
ATOM     12  N   UNL     1       1.748   8.530  19.188  0.00  0.00    +0.000 N 
ATOM     13  H   UNL     1       1.925   8.192  20.138  0.00  0.00    +0.000 HD
BRANCH  12  14
ATOM     14  C   UNL     1       1.037   9.805  19.061  0.00  0.00    +0.000 C 
ATOM     15  C   UNL     1       0.675  10.372  20.436  0.00  0.00    +0.000 C 
ATOM     16  C   UNL     1      -0.264  11.559  20.293  0.00  0.00    +0.000 C 
ATOM     17  O   UNL     1      -1.442  11.163  19.593  0.00  0.00    +0.000 OA
ATOM     18  C   UNL     1      -1.158  10.798  18.245  0.00  0.00    +0.000 C 
ATOM     19  C   UNL     1      -0.200   9.616  18.178  0.00  0.00    +0.000 C 
ENDBRANCH  12  14
ENDBRANCH   9  11
ENDBRANCH   1   9
BRANCH   7  20
ATOM     20  C   UNL     1       4.195   3.792  17.873  0.00  0.00    +0.000 C 
BRANCH  20  21
ATOM     21  C   UNL     1       5.265   4.206  16.876  0.00  0.00    +0.000 A 
ATOM     22  C   UNL     1       6.358   4.997  17.254  0.00  0.00    +0.000 A 
ATOM     23  C   UNL     1       7.320   5.372  16.313  0.00  0.00    +0.000 A 
ATOM     24  C   UNL     1       7.199   4.966  14.982  0.00  0.00    +0.000 A 
ATOM     25  C   UNL     1       6.116   4.176  14.579  0.00  0.00    +0.000 A 
ATOM     26  C   UNL     1       5.155   3.804  15.535  0.00  0.00    +0.000 A 
BRANCH  25  27
ATOM     27  C   UNL     1       5.952   3.725  13.149  0.00  0.00    +0.000 C 
ATOM     28  F   UNL     1       6.178   2.394  12.967  0.00  0.00    +0.000 F 
ATOM     29  F   UNL     1       4.696   3.957  12.671  0.00  0.00    +0.000 F 
ATOM     30  F   UNL     1       6.800   4.366  12.298  0.00  0.00    +0.000 F 
ENDBRANCH  25  27
ENDBRANCH  20  21
ENDBRANCH   7  20
TORSDOF 6
ENDMDL
MODEL 5
REMARK VINA RESULT:      -7.8      3.533      5.407
REMARK  Name = 
REMARK  6 active torsions:
REMARK  status: ('A' for Active; 'I' for Inactive)
REMARK    1  A    between atoms: C_2  and  C_3
REMARK    2  A    between atoms: C_3  and  C_4
REMARK    3  A    between atoms: N_10  and  C_11
REMARK    4  A    between atoms: C_11  and  C_12
REMARK    5  A    between atoms: C_16  and  C_17
REMARK    6  A    between atoms: N_22  and  C_23
REMARK                            x       y       z     vdW  Elec       q    Type
REMARK                         _______ _______ _______ _____ _____    ______ ____
ROOT
ATOM      1  C   UNL     1       4.845   6.029  17.432  0.00  0.00    +0.000 C 
ATOM      2  C   UNL     1       5.529   6.325  16.077  0.00  0.00    +0.000 C 
ATOM      3  O   UNL     1       5.030   7.059  15.223  0.00  0.00    +0.000 OA
ATOM      4  N   UNL     1       6.809   5.869  15.898  0.00  0.00    +0.000 N 
ATOM      5  C   UNL     1       7.367   4.786  16.678  0.00  0.00    +0.000 C 
ATOM      6  C   UNL     1       6.776   4.720  18.091  0.00  0.00    +0.000 C 
ATOM      7  N   UNL     1       5.296   4.759  18.090  0.00  0.00    +0.000 NA
ATOM      8  H   UNL     1       7.216   6.092  14.998  0.00  0.00    +0.000 HD
ENDROOT
BRANCH   1   9
ATOM      9  C   UNL     1       3.340   6.351  17.418  0.00  0.00    +0.000 C 
BRANCH   9  11
ATOM     10  O   UNL     1       3.051   8.745  17.446  0.00  0.00    +0.000 OA
ATOM     11  C   UNL     1       2.884   7.670  18.017  0.00  0.00    +0.000 C 
ATOM     12  N   UNL     1       2.206   7.574  19.209  0.00  0.00    +0.000 N 
ATOM     13  H   UNL     1       2.368   6.723  19.756  0.00  0.00    +0.000 HD
BRANCH  12  14
ATOM     14  C   UNL     1       1.703   8.742  19.936  0.00  0.00    +0.000 C 
ATOM     15  C   UNL     1       1.221   8.353  21.336  0.00  0.00    +0.000 C 
ATOM     16  C   UNL     1       0.487   9.512  21.990  0.00  0.00    +0.000 C 
ATOM     17  O   UNL     1      -0.617   9.906  21.176  0.00  0.00    +0.000 OA
ATOM     18  C   UNL     1      -0.188  10.442  19.927  0.00  0.00    +0.000 C 
ATOM     19  C   UNL     1       0.598   9.418  19.120  0.00  0.00    +0.000 C 
ENDBRANCH  12  14
ENDBRANCH   9  11
ENDBRANCH   1   9
BRANCH   7  20
ATOM     20  C   UNL     1       4.702   3.534  17.529  0.00  0.00    +0.000 C 
BRANCH  20  21
ATOM     21  C   UNL     1       3.385   3.155  18.189  0.00  0.00    +0.000 A 
ATOM     22  C   UNL     1       2.256   2.811  17.435  0.00  0.00    +0.000 A 
ATOM     23  C   UNL     1       1.056   2.478  18.069  0.00  0.00    +0.000 A 
ATOM     24  C   UNL     1       0.969   2.489  19.463  0.00  0.00    +0.000 A 
ATOM     25  C   UNL     1       2.084   2.830  20.238  0.00  0.00    +0.000 A 
ATOM     26  C   UNL     1       3.285   3.162  19.590  0.00  0.00    +0.000 A 
BRANCH  25  27
ATOM     27  C   UNL     1       2.023   2.858  21.745  0.00  0.00    +0.000 C 
ATOM     28  F   UNL     1       2.350   4.066  22.283  0.00  0.00    +0.000 F 
ATOM     29  F   UNL     1       0.779   2.565  22.222  0.00  0.00    +0.000 F 
ATOM     30  F   UNL     1       2.864   1.955  22.320  0.00  0.00    +0.000 F 
ENDBRANCH  25  27
ENDBRANCH  20  21
ENDBRANCH   7  20
TORSDOF 6
ENDMDL
MODEL 6
REMARK VINA RESULT:      -7.8      1.431      1.897
REMARK  Name = 
REMARK  6 active torsions:
REMARK  status: ('A' for Active; 'I' for Inactive)
REMARK    1  A    between atoms: C_2  and  C_3
REMARK    2  A    between atoms: C_3  and  C_4
REMARK    3  A    between atoms: N_10  and  C_11
REMARK    4  A    between atoms: C_11  and  C_12
REMARK    5  A    between atoms: C_16  and  C_17
REMARK    6  A    between atoms: N_22  and  C_23
REMARK                            x       y       z     vdW  Elec       q    Type
REMARK                         _______ _______ _______ _____ _____    ______ ____
ROOT
ATOM      1  C   UNL     1       2.532   5.092  18.461  0.00  0.00    +0.000 C 
ATOM      2  C   UNL     1       2.138   4.423  19.798  0.00  0.00    +0.000 C 
ATOM      3  O   UNL     1       1.978   5.058  20.841  0.00  0.00    +0.000 OA
ATOM      4  N   UNL     1       1.809   3.093  19.771  0.00  0.00    +0.000 N 
ATOM      5  C   UNL     1       2.231   2.207  18.707  0.00  0.00    +0.000 C 
ATOM      6  C   UNL     1       2.376   2.934  17.367  0.00  0.00    +0.000 C 
ATOM      7  N   UNL     1       3.186   4.170  17.475  0.00  0.00    +0.000 NA
ATOM      8  H   UNL     1       1.553   2.702  20.669  0.00  0.00    +0.000 HD
ENDROOT
BRANCH   1   9
ATOM      9  C   UNL     1       3.131   6.497  18.656  0.00  0.00    +0.000 C 
BRANCH   9  11
ATOM     10  O   UNL     1       1.774   8.284  17.774  0.00  0.00    +0.000 OA
ATOM     11  C   UNL     1       2.176   7.673  18.760  0.00  0.00    +0.000 C 
ATOM     12  N   UNL     1       1.733   7.962  20.029  0.00  0.00    +0.000 N 
ATOM     13  H   UNL     1       2.320   7.632  20.801  0.00  0.00    +0.000 HD
BRANCH  12  14
ATOM     14  C   UNL     1       0.819   9.069  20.321  0.00  0.00    +0.000 C 
ATOM     15  C   UNL     1       1.496  10.420  20.079  0.00  0.00    +0.000 C 
ATOM     16  C   UNL     1       0.631  11.553  20.608  0.00  0.00    +0.000 C 
ATOM     17  O   UNL     1       0.384  11.364  22.000  0.00  0.00    +0.000 OA
ATOM     18  C   UNL     1      -0.403  10.201  22.243  0.00  0.00    +0.000 C 
ATOM     19  C   UNL     1       0.299   8.940  21.755  0.00  0.00    +0.000 C 
ENDBRANCH  12  14
ENDBRANCH   9  11
ENDBRANCH   1   9
BRANCH   7  20
ATOM     20  C   UNL     1       4.606   3.889  17.746  0.00  0.00    +0.000 C 
BRANCH  20  21
ATOM     21  C   UNL     1       5.522   4.299  16.605  0.00  0.00    +0.000 A 
ATOM     22  C   UNL     1       6.593   5.181  16.800  0.00  0.00    +0.000 A 
ATOM     23  C   UNL     1       7.411   5.549  15.729  0.00  0.00    +0.000 A 
ATOM     24  C   UNL     1       7.167   5.044  14.450  0.00  0.00    +0.000 A 
ATOM     25  C   UNL     1       6.103   4.161  14.229  0.00  0.00    +0.000 A 
ATOM     26  C   UNL     1       5.288   3.797  15.313  0.00  0.00    +0.000 A 
BRANCH  25  27
ATOM     27  C   UNL     1       5.808   3.602  12.860  0.00  0.00    +0.000 C 
ATOM     28  F   UNL     1       4.523   3.797  12.455  0.00  0.00    +0.000 F 
ATOM     29  F   UNL     1       6.590   4.159  11.891  0.00  0.00    +0.000 F 
ATOM     30  F   UNL     1       6.022   2.259  12.786  0.00  0.00    +0.000 F 
ENDBRANCH  25  27
ENDBRANCH  20  21
ENDBRANCH   7  20
TORSDOF 6
ENDMDL
MODEL 7
REMARK VINA RESULT:      -7.8      1.761      2.301
REMARK  Name = 
REMARK  6 active torsions:
REMARK  status: ('A' for Active; 'I' for Inactive)
REMARK    1  A    between atoms: C_2  and  C_3
REMARK    2  A    between atoms: C_3  and  C_4
REMARK    3  A    between atoms: N_10  and  C_11
REMARK    4  A    between atoms: C_11  and  C_12
REMARK    5  A    between atoms: C_16  and  C_17
REMARK    6  A    between atoms: N_22  and  C_23
REMARK                            x       y       z     vdW  Elec       q    Type
REMARK                         _______ _______ _______ _____ _____    ______ ____
ROOT
ATOM      1  C   UNL     1       1.980   5.686  18.826  0.00  0.00    +0.000 C 
ATOM      2  C   UNL     1       1.428   5.346  20.230  0.00  0.00    +0.000 C 
ATOM      3  O   UNL     1       1.388   6.165  21.148  0.00  0.00    +0.000 OA
ATOM      4  N   UNL     1       0.823   4.127  20.398  0.00  0.00    +0.000 N 
ATOM      5  C   UNL     1       1.065   3.009  19.512  0.00  0.00    +0.000 C 
ATOM      6  C   UNL     1       1.387   3.456  18.083  0.00  0.00    +0.000 C 
ATOM      7  N   UNL     1       2.440   4.497  18.036  0.00  0.00    +0.000 NA
ATOM      8  H   UNL     1       0.473   3.953  21.332  0.00  0.00    +0.000 HD
ENDROOT
BRANCH   1   9
ATOM      9  C   UNL     1       2.861   6.948  18.827  0.00  0.00    +0.000 C 
BRANCH   9  11
ATOM     10  O   UNL     1       2.319   8.734  17.301  0.00  0.00    +0.000 OA
ATOM     11  C   UNL     1       2.221   8.267  18.433  0.00  0.00    +0.000 C 
ATOM     12  N   UNL     1       1.462   8.870  19.408  0.00  0.00    +0.000 N 
ATOM     13  H   UNL     1       1.669   8.601  20.375  0.00  0.00    +0.000 HD
BRANCH  12  14
ATOM     14  C   UNL     1       0.782  10.152  19.210  0.00  0.00    +0.000 C 
ATOM     15  C   UNL     1       0.648  10.913  20.531  0.00  0.00    +0.000 C 
ATOM     16  C   UNL     1      -0.263  12.119  20.363  0.00  0.00    +0.000 C 
ATOM     17  O   UNL     1      -1.545  11.696  19.901  0.00  0.00    +0.000 OA
ATOM     18  C   UNL     1      -1.477  11.142  18.590  0.00  0.00    +0.000 C 
ATOM     19  C   UNL     1      -0.579   9.913  18.549  0.00  0.00    +0.000 C 
ENDBRANCH  12  14
ENDBRANCH   9  11
ENDBRANCH   1   9
BRANCH   7  20
ATOM     20  C   UNL     1       3.762   3.976  18.424  0.00  0.00    +0.000 C 
BRANCH  20  21
ATOM     21  C   UNL     1       4.882   4.461  17.517  0.00  0.00    +0.000 A 
ATOM     22  C   UNL     1       5.184   3.817  16.310  0.00  0.00    +0.000 A 
ATOM     23  C   UNL     1       6.227   4.279  15.503  0.00  0.00    +0.000 A 
ATOM     24  C   UNL     1       6.983   5.385  15.894  0.00  0.00    +0.000 A 
ATOM     25  C   UNL     1       6.702   6.046  17.097  0.00  0.00    +0.000 A 
ATOM     26  C   UNL     1       5.650   5.574  17.899  0.00  0.00    +0.000 A 
BRANCH  25  27
ATOM     27  C   UNL     1       7.503   7.240  17.552  0.00  0.00    +0.000 C 
ATOM     28  F   UNL     1       8.388   7.692  16.620  0.00  0.00    +0.000 F 
ATOM     29  F   UNL     1       6.715   8.308  17.862  0.00  0.00    +0.000 F 
ATOM     30  F   UNL     1       8.238   6.982  18.669  0.00  0.00    +0.000 F 
ENDBRANCH  25  27
ENDBRANCH  20  21
ENDBRANCH   7  20
TORSDOF 6
ENDMDL
MODEL 8
REMARK VINA RESULT:      -7.8      3.567      5.453
REMARK  Name = 
REMARK  6 active torsions:
REMARK  status: ('A' for Active; 'I' for Inactive)
REMARK    1  A    between atoms: C_2  and  C_3
REMARK    2  A    between atoms: C_3  and  C_4
REMARK    3  A    between atoms: N_10  and  C_11
REMARK    4  A    between atoms: C_11  and  C_12
REMARK    5  A    between atoms: C_16  and  C_17
REMARK    6  A    between atoms: N_22  and  C_23
REMARK                            x       y       z     vdW  Elec       q    Type
REMARK                         _______ _______ _______ _____ _____    ______ ____
ROOT
ATOM      1  C   UNL     1       4.718   6.299  17.399  0.00  0.00    +0.000 C 
ATOM      2  C   UNL     1       5.496   6.547  16.085  0.00  0.00    +0.000 C 
ATOM      3  O   UNL     1       5.055   7.241  15.169  0.00  0.00    +0.000 OA
ATOM      4  N   UNL     1       6.788   6.094  16.016  0.00  0.00    +0.000 N 
ATOM      5  C   UNL     1       7.294   5.048  16.877  0.00  0.00    +0.000 C 
ATOM      6  C   UNL     1       6.605   5.034  18.245  0.00  0.00    +0.000 C 
ATOM      7  N   UNL     1       5.128   5.060  18.137  0.00  0.00    +0.000 NA
ATOM      8  H   UNL     1       7.256   6.285  15.138  0.00  0.00    +0.000 HD
ENDROOT
BRANCH   1   9
ATOM      9  C   UNL     1       3.216   6.607  17.264  0.00  0.00    +0.000 C 
BRANCH   9  11
ATOM     10  O   UNL     1       2.486   7.327  19.447  0.00  0.00    +0.000 OA
ATOM     11  C   UNL     1       2.594   7.581  18.250  0.00  0.00    +0.000 C 
ATOM     12  N   UNL     1       2.227   8.797  17.725  0.00  0.00    +0.000 N 
ATOM     13  H   UNL     1       2.064   8.825  16.714  0.00  0.00    +0.000 HD
BRANCH  12  14
ATOM     14  C   UNL     1       1.601   9.853  18.525  0.00  0.00    +0.000 C 
ATOM     15  C   UNL     1       0.083   9.865  18.329  0.00  0.00    +0.000 C 
ATOM     16  C   UNL     1      -0.529  11.102  18.967  0.00  0.00    +0.000 C 
ATOM     17  O   UNL     1       0.054  12.275  18.401  0.00  0.00    +0.000 OA
ATOM     18  C   UNL     1       1.438  12.384  18.720  0.00  0.00    +0.000 C 
ATOM     19  C   UNL     1       2.231  11.204  18.174  0.00  0.00    +0.000 C 
ENDBRANCH  12  14
ENDBRANCH   9  11
ENDBRANCH   1   9
BRANCH   7  20
ATOM     20  C   UNL     1       4.582   3.808  17.586  0.00  0.00    +0.000 C 
BRANCH  20  21
ATOM     21  C   UNL     1       3.282   3.382  18.248  0.00  0.00    +0.000 A 
ATOM     22  C   UNL     1       2.132   3.098  17.500  0.00  0.00    +0.000 A 
ATOM     23  C   UNL     1       0.948   2.720  18.138  0.00  0.00    +0.000 A 
ATOM     24  C   UNL     1       0.897   2.627  19.530  0.00  0.00    +0.000 A 
ATOM     25  C   UNL     1       2.032   2.907  20.300  0.00  0.00    +0.000 A 
ATOM     26  C   UNL     1       3.217   3.285  19.648  0.00  0.00    +0.000 A 
BRANCH  25  27
ATOM     27  C   UNL     1       2.008   2.823  21.806  0.00  0.00    +0.000 C 
ATOM     28  F   UNL     1       2.882   1.911  22.316  0.00  0.00    +0.000 F 
ATOM     29  F   UNL     1       2.323   4.009  22.400  0.00  0.00    +0.000 F 
ATOM     30  F   UNL     1       0.784   2.476  22.292  0.00  0.00    +0.000 F 
ENDBRANCH  25  27
ENDBRANCH  20  21
ENDBRANCH   7  20
TORSDOF 6
ENDMDL
MODEL 9
REMARK VINA RESULT:      -7.7      1.425      1.663
REMARK  Name = 
REMARK  6 active torsions:
REMARK  status: ('A' for Active; 'I' for Inactive)
REMARK    1  A    between atoms: C_2  and  C_3
REMARK    2  A    between atoms: C_3  and  C_4
REMARK    3  A    between atoms: N_10  and  C_11
REMARK    4  A    between atoms: C_11  and  C_12
REMARK    5  A    between atoms: C_16  and  C_17
REMARK    6  A    between atoms: N_22  and  C_23
REMARK                            x       y       z     vdW  Elec       q    Type
REMARK                         _______ _______ _______ _____ _____    ______ ____
ROOT
ATOM      1  C   UNL     1       1.919   4.335  19.612  0.00  0.00    +0.000 C 
ATOM      2  C   UNL     1       1.440   2.964  20.145  0.00  0.00    +0.000 C 
ATOM      3  O   UNL     1       0.951   2.817  21.265  0.00  0.00    +0.000 OA
ATOM      4  N   UNL     1       1.427   1.911  19.268  0.00  0.00    +0.000 N 
ATOM      5  C   UNL     1       2.226   1.890  18.062  0.00  0.00    +0.000 C 
ATOM      6  C   UNL     1       2.454   3.293  17.490  0.00  0.00    +0.000 C 
ATOM      7  N   UNL     1       2.934   4.252  18.512  0.00  0.00    +0.000 NA
ATOM      8  H   UNL     1       1.100   1.037  19.662  0.00  0.00    +0.000 HD
ENDROOT
BRANCH   1   9
ATOM      9  C   UNL     1       2.143   5.361  20.737  0.00  0.00    +0.000 C 
BRANCH   9  11
ATOM     10  O   UNL     1       2.538   7.324  19.393  0.00  0.00    +0.000 OA
ATOM     11  C   UNL     1       2.022   6.836  20.395  0.00  0.00    +0.000 C 
ATOM     12  N   UNL     1       1.235   7.576  21.245  0.00  0.00    +0.000 N 
ATOM     13  H   UNL     1       1.099   7.195  22.186  0.00  0.00    +0.000 HD
BRANCH  12  14
ATOM     14  C   UNL     1       1.015   9.015  21.077  0.00  0.00    +0.000 C 
ATOM     15  C   UNL     1       0.375   9.623  22.328  0.00  0.00    +0.000 C 
ATOM     16  C   UNL     1      -0.067  11.053  22.060  0.00  0.00    +0.000 C 
ATOM     17  O   UNL     1      -0.986  11.079  20.969  0.00  0.00    +0.000 OA
ATOM     18  C   UNL     1      -0.367  10.686  19.748  0.00  0.00    +0.000 C 
ATOM     19  C   UNL     1       0.168   9.262  19.826  0.00  0.00    +0.000 C 
ENDBRANCH  12  14
ENDBRANCH   9  11
ENDBRANCH   1   9
BRANCH   7  20
ATOM     20  C   UNL     1       4.304   3.955  18.961  0.00  0.00    +0.000 C 
BRANCH  20  21
ATOM     21  C   UNL     1       5.370   4.608  18.095  0.00  0.00    +0.000 A 
ATOM     22  C   UNL     1       6.311   5.498  18.629  0.00  0.00    +0.000 A 
ATOM     23  C   UNL     1       7.271   6.091  17.806  0.00  0.00    +0.000 A 
ATOM     24  C   UNL     1       7.300   5.806  16.439  0.00  0.00    +0.000 A 
ATOM     25  C   UNL     1       6.370   4.921  15.881  0.00  0.00    +0.000 A 
ATOM     26  C   UNL     1       5.410   4.329  16.718  0.00  0.00    +0.000 A 
BRANCH  25  27
ATOM     27  C   UNL     1       6.369   4.597  14.408  0.00  0.00    +0.000 C 
ATOM     28  F   UNL     1       7.320   5.268  13.700  0.00  0.00    +0.000 F 
ATOM     29  F   UNL     1       6.594   3.274  14.166  0.00  0.00    +0.000 F 
ATOM     30  F   UNL     1       5.182   4.889  13.808  0.00  0.00    +0.000 F 
ENDBRANCH  25  27
ENDBRANCH  20  21
ENDBRANCH   7  20
TORSDOF 6
ENDMDL
