MODEL 1
REMARK VINA RESULT:      -8.0      0.000      0.000
REMARK  Name = 
REMARK  9 active torsions:
REMARK  status: ('A' for Active; 'I' for Inactive)
REMARK    1  A    between atoms: C_1  and  C_2
REMARK    2  A    between atoms: N_4  and  C_5
REMARK    3  A    between atoms: C_8  and  C_9
REMARK    4  A    between atoms: C_11  and  C_12
REMARK    5  A    between atoms: C_15  and  N_16
REMARK    6  A    between atoms: C_17  and  C_18
REMARK    7  A    between atoms: C_22  and  O_23
REMARK    8  A    between atoms: C_26  and  O_27
REMARK    9  A    between atoms: C_28  and  O_29
REMARK                            x       y       z     vdW  Elec       q    Type
REMARK                         _______ _______ _______ _____ _____    ______ ____
ROOT
ATOM      1  C   UNL     1       0.799  10.517  19.627  0.00  0.00    +0.000 A 
ATOM      2  C   UNL     1       1.296  11.264  20.648  0.00  0.00    +0.000 A 
ATOM      3  C   UNL     1       0.736  12.579  20.944  0.00  0.00    +0.000 A 
ATOM      4  C   UNL     1       1.090  13.444  19.966  0.00  0.00    +0.000 A 
ATOM      5  C   UNL     1       0.006  13.573  18.949  0.00  0.00    +0.000 A 
ATOM      6  O   UNL     1      -0.300  14.661  18.465  0.00  0.00    +0.000 OA
ATOM      7  C   UNL     1      -0.675  12.306  18.465  0.00  0.00    +0.000 A 
ATOM      8  C   UNL     1      -0.345  11.031  18.804  0.00  0.00    +0.000 A 
ENDROOT
BRANCH   1  12
ATOM      9  C   UNL     1       2.478   6.554  18.879  0.00  0.00    +0.000 A 
ATOM     10  C   UNL     1       2.521   7.549  17.911  0.00  0.00    +0.000 A 
ATOM     11  C   UNL     1       2.037   8.837  18.181  0.00  0.00    +0.000 A 
ATOM     12  C   UNL     1       1.456   9.176  19.415  0.00  0.00    +0.000 A 
ATOM     13  C   UNL     1       1.484   8.189  20.411  0.00  0.00    +0.000 A 
ATOM     14  C   UNL     1       1.989   6.897  20.148  0.00  0.00    +0.000 A 
BRANCH   9  18
ATOM     15  C   UNL     1       2.869   2.901  17.939  0.00  0.00    +0.000 C 
ATOM     16  C   UNL     1       2.186   4.248  17.935  0.00  0.00    +0.000 C 
ATOM     17  O   UNL     1       1.109   4.386  17.365  0.00  0.00    +0.000 OA
ATOM     18  N   UNL     1       2.884   5.217  18.644  0.00  0.00    +0.000 N 
ATOM     19  H   UNL     1       3.749   4.930  19.085  0.00  0.00    +0.000 HD
ENDBRANCH   9  18
ENDBRANCH   1  12
BRANCH   3  20
ATOM     20  C   UNL     1      -0.581  12.689  21.668  0.00  0.00    +0.000 A 
ATOM     21  C   UNL     1      -1.076  11.619  22.444  0.00  0.00    +0.000 A 
ATOM     22  C   UNL     1      -2.310  11.698  23.101  0.00  0.00    +0.000 A 
ATOM     23  C   UNL     1      -3.075  12.858  23.034  0.00  0.00    +0.000 A 
ATOM     24  C   UNL     1      -2.600  13.931  22.266  0.00  0.00    +0.000 A 
ATOM     25  C   UNL     1      -1.362  13.854  21.611  0.00  0.00    +0.000 A 
BRANCH  23  26
ATOM     26  N   UNL     1      -4.303  13.016  23.713  0.00  0.00    +0.000 N 
ATOM     27  C   UNL     1      -5.561  12.740  23.203  0.00  0.00    +0.000 C 
ATOM     28  C   UNL     1      -6.670  12.975  24.196  0.00  0.00    +0.000 C 
ATOM     29  O   UNL     1      -5.823  12.340  22.072  0.00  0.00    +0.000 OA
ATOM     30  H   UNL     1      -4.242  13.245  24.696  0.00  0.00    +0.000 HD
ENDBRANCH  23  26
ENDBRANCH   3  20
BRANCH   4  31
ATOM     31  O   UNL     1       2.389  13.456  19.453  0.00  0.00    +0.000 OA
ATOM     32  H   UNL     1       2.433  12.786  18.745  0.00  0.00    +0.000 HD
ENDBRANCH   4  31
BRANCH   7  33
ATOM     33  O   UNL     1      -1.763  12.552  17.631  0.00  0.00    +0.000 OA
ATOM     34  H   UNL     1      -2.535  12.149  18.086  0.00  0.00    +0.000 HD
ENDBRANCH   7  33
BRANCH   8  35
ATOM     35  O   UNL     1      -1.219  10.019  18.431  0.00  0.00    +0.000 OA
ATOM     36  H   UNL     1      -0.680   9.400  17.904  0.00  0.00    +0.000 HD
ENDBRANCH   8  35
TORSDOF 7
ENDMDL
MODEL 2
REMARK VINA RESULT:      -7.9      1.002      1.002
REMARK  Name = 
REMARK  9 active torsions:
REMARK  status: ('A' for Active; 'I' for Inactive)
REMARK    1  A    between atoms: C_1  and  C_2
REMARK    2  A    between atoms: N_4  and  C_5
REMARK    3  A    between atoms: C_8  and  C_9
REMARK    4  A    between atoms: C_11  and  C_12
REMARK    5  A    between atoms: C_15  and  N_16
REMARK    6  A    between atoms: C_17  and  C_18
REMARK    7  A    between atoms: C_22  and  O_23
REMARK    8  A    between atoms: C_26  and  O_27
REMARK    9  A    between atoms: C_28  and  O_29
REMARK                            x       y       z     vdW  Elec       q    Type
REMARK                         _______ _______ _______ _____ _____    ______ ____
ROOT
ATOM      1  C   UNL     1       0.666  10.563  19.824  0.00  0.00    +0.000 A 
ATOM      2  C   UNL     1       1.139  11.349  20.828  0.00  0.00    +0.000 A 
ATOM      3  C   UNL     1       0.573  12.674  21.059  0.00  0.00    +0.000 A 
ATOM      4  C   UNL     1       0.952  13.501  20.057  0.00  0.00    +0.000 A 
ATOM      5  C   UNL     1      -0.106  13.590  19.010  0.00  0.00    +0.000 A 
ATOM      6  O   UNL     1      -0.399  14.659  18.477  0.00  0.00    +0.000 OA
ATOM      7  C   UNL     1      -0.777  12.306  18.558  0.00  0.00    +0.000 A 
ATOM      8  C   UNL     1      -0.456  11.045  18.954  0.00  0.00    +0.000 A 
ENDROOT
BRANCH   1  12
ATOM      9  C   UNL     1       2.356   6.572  19.276  0.00  0.00    +0.000 A 
ATOM     10  C   UNL     1       2.401   7.519  18.260  0.00  0.00    +0.000 A 
ATOM     11  C   UNL     1       1.913   8.817  18.466  0.00  0.00    +0.000 A 
ATOM     12  C   UNL     1       1.327   9.215  19.680  0.00  0.00    +0.000 A 
ATOM     13  C   UNL     1       1.353   8.278  20.723  0.00  0.00    +0.000 A 
ATOM     14  C   UNL     1       1.863   6.975  20.525  0.00  0.00    +0.000 A 
BRANCH   9  18
ATOM     15  C   UNL     1       4.162   3.261  18.880  0.00  0.00    +0.000 C 
ATOM     16  C   UNL     1       4.063   4.736  19.190  0.00  0.00    +0.000 C 
ATOM     17  O   UNL     1       5.077   5.375  19.452  0.00  0.00    +0.000 OA
ATOM     18  N   UNL     1       2.767   5.226  19.107  0.00  0.00    +0.000 N 
ATOM     19  H   UNL     1       2.043   4.569  18.847  0.00  0.00    +0.000 HD
ENDBRANCH   9  18
ENDBRANCH   1  12
BRANCH   3  20
ATOM     20  C   UNL     1      -0.762  12.812  21.745  0.00  0.00    +0.000 A 
ATOM     21  C   UNL     1      -1.293  11.758  22.518  0.00  0.00    +0.000 A 
ATOM     22  C   UNL     1      -2.544  11.863  23.141  0.00  0.00    +0.000 A 
ATOM     23  C   UNL     1      -3.290  13.033  23.040  0.00  0.00    +0.000 A 
ATOM     24  C   UNL     1      -2.778  14.091  22.274  0.00  0.00    +0.000 A 
ATOM     25  C   UNL     1      -1.523  13.987  21.654  0.00  0.00    +0.000 A 
BRANCH  23  26
ATOM     26  N   UNL     1      -4.532  13.217  23.683  0.00  0.00    +0.000 N 
ATOM     27  C   UNL     1      -5.771  12.830  23.196  0.00  0.00    +0.000 C 
ATOM     28  C   UNL     1      -6.904  13.133  24.143  0.00  0.00    +0.000 C 
ATOM     29  O   UNL     1      -5.999  12.291  22.117  0.00  0.00    +0.000 OA
ATOM     30  H   UNL     1      -4.496  13.561  24.634  0.00  0.00    +0.000 HD
ENDBRANCH  23  26
ENDBRANCH   3  20
BRANCH   4  31
ATOM     31  O   UNL     1       2.263  13.493  19.577  0.00  0.00    +0.000 OA
ATOM     32  H   UNL     1       2.222  13.367  18.610  0.00  0.00    +0.000 HD
ENDBRANCH   4  31
BRANCH   7  33
ATOM     33  O   UNL     1      -1.843  12.520  17.688  0.00  0.00    +0.000 OA
ATOM     34  H   UNL     1      -1.455  12.979  16.911  0.00  0.00    +0.000 HD
ENDBRANCH   7  33
BRANCH   8  35
ATOM     35  O   UNL     1      -1.322  10.019  18.598  0.00  0.00    +0.000 OA
ATOM     36  H   UNL     1      -2.216  10.398  18.689  0.00  0.00    +0.000 HD
ENDBRANCH   8  35
TORSDOF 7
ENDMDL
MODEL 3
REMARK VINA RESULT:      -7.8      0.615      1.055
REMARK  Name = 
REMARK  9 active torsions:
REMARK  status: ('A' for Active; 'I' for Inactive)
REMARK    1  A    between atoms: C_1  and  C_2
REMARK    2  A    between atoms: N_4  and  C_5
REMARK    3  A    between atoms: C_8  and  C_9
REMARK    4  A    between atoms: C_11  and  C_12
REMARK    5  A    between atoms: C_15  and  N_16
REMARK    6  A    between atoms: C_17  and  C_18
REMARK    7  A    between atoms: C_22  and  O_23
REMARK    8  A    between atoms: C_26  and  O_27
REMARK    9  A    between atoms: C_28  and  O_29
REMARK                            x       y       z     vdW  Elec       q    Type
REMARK                         _______ _______ _______ _____ _____    ______ ____
ROOT
ATOM      1  C   UNL     1       0.544  10.542  19.849  0.00  0.00    +0.000 A 
ATOM      2  C   UNL     1       1.034  11.294  20.871  0.00  0.00    +0.000 A 
ATOM      3  C   UNL     1       0.508  12.631  21.124  0.00  0.00    +0.000 A 
ATOM      4  C   UNL     1       0.920  13.465  20.142  0.00  0.00    +0.000 A 
ATOM      5  C   UNL     1      -0.127  13.608  19.089  0.00  0.00    +0.000 A 
ATOM      6  O   UNL     1      -0.383  14.695  18.575  0.00  0.00    +0.000 OA
ATOM      7  C   UNL     1      -0.834  12.354  18.607  0.00  0.00    +0.000 A 
ATOM      8  C   UNL     1      -0.556  11.077  18.981  0.00  0.00    +0.000 A 
ENDROOT
BRANCH   1  12
ATOM      9  C   UNL     1       2.556   6.679  19.512  0.00  0.00    +0.000 A 
ATOM     10  C   UNL     1       1.833   7.019  20.650  0.00  0.00    +0.000 A 
ATOM     11  C   UNL     1       1.139   8.234  20.724  0.00  0.00    +0.000 A 
ATOM     12  C   UNL     1       1.164   9.178  19.683  0.00  0.00    +0.000 A 
ATOM     13  C   UNL     1       1.833   8.797  18.510  0.00  0.00    +0.000 A 
ATOM     14  C   UNL     1       2.518   7.564  18.425  0.00  0.00    +0.000 A 
BRANCH   9  18
ATOM     15  C   UNL     1       3.963   3.176  19.151  0.00  0.00    +0.000 C 
ATOM     16  C   UNL     1       2.876   4.224  19.112  0.00  0.00    +0.000 C 
ATOM     17  O   UNL     1       1.720   3.895  18.865  0.00  0.00    +0.000 OA
ATOM     18  N   UNL     1       3.335   5.501  19.405  0.00  0.00    +0.000 N 
ATOM     19  H   UNL     1       4.320   5.597  19.619  0.00  0.00    +0.000 HD
ENDBRANCH   9  18
ENDBRANCH   1  12
BRANCH   3  20
ATOM     20  C   UNL     1      -0.827  12.797  21.804  0.00  0.00    +0.000 A 
ATOM     21  C   UNL     1      -1.393  11.749  22.561  0.00  0.00    +0.000 A 
ATOM     22  C   UNL     1      -2.644  11.881  23.177  0.00  0.00    +0.000 A 
ATOM     23  C   UNL     1      -3.356  13.072  23.086  0.00  0.00    +0.000 A 
ATOM     24  C   UNL     1      -2.811  14.125  22.337  0.00  0.00    +0.000 A 
ATOM     25  C   UNL     1      -1.556  13.994  21.723  0.00  0.00    +0.000 A 
BRANCH  23  26
ATOM     26  N   UNL     1      -4.598  13.282  23.724  0.00  0.00    +0.000 N 
ATOM     27  C   UNL     1      -5.835  12.858  23.266  0.00  0.00    +0.000 C 
ATOM     28  C   UNL     1      -6.966  13.205  24.200  0.00  0.00    +0.000 C 
ATOM     29  O   UNL     1      -6.063  12.256  22.221  0.00  0.00    +0.000 OA
ATOM     30  H   UNL     1      -4.560  13.681  24.653  0.00  0.00    +0.000 HD
ENDBRANCH  23  26
ENDBRANCH   3  20
BRANCH   4  31
ATOM     31  O   UNL     1       2.234  13.426  19.670  0.00  0.00    +0.000 OA
ATOM     32  H   UNL     1       2.539  14.347  19.568  0.00  0.00    +0.000 HD
ENDBRANCH   4  31
BRANCH   7  33
ATOM     33  O   UNL     1      -1.887  12.618  17.734  0.00  0.00    +0.000 OA
ATOM     34  H   UNL     1      -2.396  11.779  17.682  0.00  0.00    +0.000 HD
ENDBRANCH   7  33
BRANCH   8  35
ATOM     35  O   UNL     1      -1.451  10.085  18.599  0.00  0.00    +0.000 OA
ATOM     36  H   UNL     1      -0.987   9.245  18.770  0.00  0.00    +0.000 HD
ENDBRANCH   8  35
TORSDOF 7
ENDMDL
MODEL 4
REMARK VINA RESULT:      -7.5      2.791      5.077
REMARK  Name = 
REMARK  9 active torsions:
REMARK  status: ('A' for Active; 'I' for Inactive)
REMARK    1  A    between atoms: C_1  and  C_2
REMARK    2  A    between atoms: N_4  and  C_5
REMARK    3  A    between atoms: C_8  and  C_9
REMARK    4  A    between atoms: C_11  and  C_12
REMARK    5  A    between atoms: C_15  and  N_16
REMARK    6  A    between atoms: C_17  and  C_18
REMARK    7  A    between atoms: C_22  and  O_23
REMARK    8  A    between atoms: C_26  and  O_27
REMARK    9  A    between atoms: C_28  and  O_29
REMARK                            x       y       z     vdW  Elec       q    Type
REMARK                         _______ _______ _______ _____ _____    ______ ____
ROOT
ATOM      1  C   UNL     1       0.908   9.822  19.981  0.00  0.00    +0.000 A 
ATOM      2  C   UNL     1       0.649  10.595  18.893  0.00  0.00    +0.000 A 
ATOM      3  C   UNL     1       0.029  11.907  19.049  0.00  0.00    +0.000 A 
ATOM      4  C   UNL     1      -1.266  11.749  19.407  0.00  0.00    +0.000 A 
ATOM      5  C   UNL     1      -1.427  11.860  20.886  0.00  0.00    +0.000 A 
ATOM      6  O   UNL     1      -2.371  12.467  21.390  0.00  0.00    +0.000 OA
ATOM      7  C   UNL     1      -0.427  11.139  21.772  0.00  0.00    +0.000 A 
ATOM      8  C   UNL     1       0.576  10.320  21.356  0.00  0.00    +0.000 A 
ENDROOT
BRANCH   1  12
ATOM      9  C   UNL     1       2.545   5.890  19.007  0.00  0.00    +0.000 A 
ATOM     10  C   UNL     1       2.680   6.963  18.134  0.00  0.00    +0.000 A 
ATOM     11  C   UNL     1       2.208   8.236  18.482  0.00  0.00    +0.000 A 
ATOM     12  C   UNL     1       1.548   8.486  19.698  0.00  0.00    +0.000 A 
ATOM     13  C   UNL     1       1.481   7.416  20.604  0.00  0.00    +0.000 A 
ATOM     14  C   UNL     1       1.974   6.137  20.264  0.00  0.00    +0.000 A 
BRANCH   9  18
ATOM     15  C   UNL     1       2.898   2.305  17.821  0.00  0.00    +0.000 C 
ATOM     16  C   UNL     1       2.233   3.659  17.904  0.00  0.00    +0.000 C 
ATOM     17  O   UNL     1       1.163   3.850  17.334  0.00  0.00    +0.000 OA
ATOM     18  N   UNL     1       2.936   4.567  18.684  0.00  0.00    +0.000 N 
ATOM     19  H   UNL     1       3.792   4.239  19.113  0.00  0.00    +0.000 HD
ENDBRANCH   9  18
ENDBRANCH   1  12
BRANCH   3  20
ATOM     20  C   UNL     1       0.854  13.074  19.529  0.00  0.00    +0.000 A 
ATOM     21  C   UNL     1       0.273  14.346  19.714  0.00  0.00    +0.000 A 
ATOM     22  C   UNL     1       1.032  15.445  20.135  0.00  0.00    +0.000 A 
ATOM     23  C   UNL     1       2.388  15.305  20.416  0.00  0.00    +0.000 A 
ATOM     24  C   UNL     1       2.983  14.048  20.235  0.00  0.00    +0.000 A 
ATOM     25  C   UNL     1       2.221  12.946  19.818  0.00  0.00    +0.000 A 
BRANCH  23  26
ATOM     26  N   UNL     1       3.194  16.362  20.889  0.00  0.00    +0.000 N 
ATOM     27  C   UNL     1       3.958  17.218  20.112  0.00  0.00    +0.000 C 
ATOM     28  C   UNL     1       4.675  18.272  20.918  0.00  0.00    +0.000 C 
ATOM     29  O   UNL     1       4.085  17.186  18.892  0.00  0.00    +0.000 OA
ATOM     30  H   UNL     1       3.113  16.579  21.874  0.00  0.00    +0.000 HD
ENDBRANCH  23  26
ENDBRANCH   3  20
BRANCH   4  31
ATOM     31  O   UNL     1      -2.069  10.785  18.794  0.00  0.00    +0.000 OA
ATOM     32  H   UNL     1      -1.483  10.073  18.475  0.00  0.00    +0.000 HD
ENDBRANCH   4  31
BRANCH   7  33
ATOM     33  O   UNL     1      -0.584  11.427  23.125  0.00  0.00    +0.000 OA
ATOM     34  H   UNL     1       0.145  12.048  23.344  0.00  0.00    +0.000 HD
ENDBRANCH   7  33
BRANCH   8  35
ATOM     35  O   UNL     1       1.518   9.927  22.298  0.00  0.00    +0.000 OA
ATOM     36  H   UNL     1       1.934   9.128  21.923  0.00  0.00    +0.000 HD
ENDBRANCH   8  35
TORSDOF 7
ENDMDL
MODEL 5
REMARK VINA RESULT:      -7.3      3.747     10.846
REMARK  Name = 
REMARK  9 active torsions:
REMARK  status: ('A' for Active; 'I' for Inactive)
REMARK    1  A    between atoms: C_1  and  C_2
REMARK    2  A    between atoms: N_4  and  C_5
REMARK    3  A    between atoms: C_8  and  C_9
REMARK    4  A    between atoms: C_11  and  C_12
REMARK    5  A    between atoms: C_15  and  N_16
REMARK    6  A    between atoms: C_17  and  C_18
REMARK    7  A    between atoms: C_22  and  O_23
REMARK    8  A    between atoms: C_26  and  O_27
REMARK    9  A    between atoms: C_28  and  O_29
REMARK                            x       y       z     vdW  Elec       q    Type
REMARK                         _______ _______ _______ _____ _____    ______ ____
ROOT
ATOM      1  C   UNL     1       2.786   5.971  19.188  0.00  0.00    +0.000 A 
ATOM      2  C   UNL     1       4.068   5.808  19.611  0.00  0.00    +0.000 A 
ATOM      3  C   UNL     1       4.888   4.721  19.085  0.00  0.00    +0.000 A 
ATOM      4  C   UNL     1       4.438   3.545  19.580  0.00  0.00    +0.000 A 
ATOM      5  C   UNL     1       3.516   2.878  18.615  0.00  0.00    +0.000 A 
ATOM      6  O   UNL     1       3.559   1.666  18.412  0.00  0.00    +0.000 OA
ATOM      7  C   UNL     1       2.462   3.728  17.929  0.00  0.00    +0.000 A 
ATOM      8  C   UNL     1       2.207   5.043  18.162  0.00  0.00    +0.000 A 
ENDROOT
BRANCH   1  12
ATOM      9  C   UNL     1       0.379   9.204  20.874  0.00  0.00    +0.000 A 
ATOM     10  C   UNL     1       0.548   8.002  21.551  0.00  0.00    +0.000 A 
ATOM     11  C   UNL     1       1.372   6.994  21.033  0.00  0.00    +0.000 A 
ATOM     12  C   UNL     1       2.036   7.127  19.801  0.00  0.00    +0.000 A 
ATOM     13  C   UNL     1       1.921   8.369  19.160  0.00  0.00    +0.000 A 
ATOM     14  C   UNL     1       1.106   9.394  19.690  0.00  0.00    +0.000 A 
BRANCH   9  18
ATOM     15  C   UNL     1      -1.744  11.730  22.742  0.00  0.00    +0.000 C 
ATOM     16  C   UNL     1      -0.676  10.670  22.614  0.00  0.00    +0.000 C 
ATOM     17  O   UNL     1      -0.090  10.269  23.615  0.00  0.00    +0.000 OA
ATOM     18  N   UNL     1      -0.495  10.230  21.310  0.00  0.00    +0.000 N 
ATOM     19  H   UNL     1      -1.086  10.643  20.600  0.00  0.00    +0.000 HD
ENDBRANCH   9  18
ENDBRANCH   1  12
BRANCH   3  20
ATOM     20  C   UNL     1       5.487   4.831  17.706  0.00  0.00    +0.000 A 
ATOM     21  C   UNL     1       6.703   4.191  17.389  0.00  0.00    +0.000 A 
ATOM     22  C   UNL     1       7.283   4.305  16.120  0.00  0.00    +0.000 A 
ATOM     23  C   UNL     1       6.654   5.034  15.116  0.00  0.00    +0.000 A 
ATOM     24  C   UNL     1       5.444   5.678  15.413  0.00  0.00    +0.000 A 
ATOM     25  C   UNL     1       4.861   5.560  16.683  0.00  0.00    +0.000 A 
BRANCH  23  26
ATOM     26  N   UNL     1       7.164   5.145  13.804  0.00  0.00    +0.000 N 
ATOM     27  C   UNL     1       6.843   4.332  12.730  0.00  0.00    +0.000 C 
ATOM     28  C   UNL     1       7.528   4.739  11.450  0.00  0.00    +0.000 C 
ATOM     29  O   UNL     1       6.087   3.366  12.741  0.00  0.00    +0.000 OA
ATOM     30  H   UNL     1       7.728   5.963  13.613  0.00  0.00    +0.000 HD
ENDBRANCH  23  26
ENDBRANCH   3  20
BRANCH   4  31
ATOM     31  O   UNL     1       4.081   3.420  20.924  0.00  0.00    +0.000 OA
ATOM     32  H   UNL     1       3.425   2.701  20.989  0.00  0.00    +0.000 HD
ENDBRANCH   4  31
BRANCH   7  33
ATOM     33  O   UNL     1       1.755   3.038  16.947  0.00  0.00    +0.000 OA
ATOM     34  H   UNL     1       1.210   3.719  16.494  0.00  0.00    +0.000 HD
ENDBRANCH   7  33
BRANCH   8  35
ATOM     35  O   UNL     1       1.353   5.698  17.285  0.00  0.00    +0.000 OA
ATOM     36  H   UNL     1       1.693   5.489  16.395  0.00  0.00    +0.000 HD
ENDBRANCH   8  35
TORSDOF 7
ENDMDL
MODEL 6
REMARK VINA RESULT:      -7.2      2.637      3.252
REMARK  Name = 
REMARK  9 active torsions:
REMARK  status: ('A' for Active; 'I' for Inactive)
REMARK    1  A    between atoms: C_1  and  C_2
REMARK    2  A    between atoms: N_4  and  C_5
REMARK    3  A    between atoms: C_8  and  C_9
REMARK    4  A    between atoms: C_11  and  C_12
REMARK    5  A    between atoms: C_15  and  N_16
REMARK    6  A    between atoms: C_17  and  C_18
REMARK    7  A    between atoms: C_22  and  O_23
REMARK    8  A    between atoms: C_26  and  O_27
REMARK    9  A    between atoms: C_28  and  O_29
REMARK                            x       y       z     vdW  Elec       q    Type
REMARK                         _______ _______ _______ _____ _____    ______ ____
ROOT
ATOM      1  C   UNL     1       1.515   9.137  19.350  0.00  0.00    +0.000 A 
ATOM      2  C   UNL     1       0.687   9.315  20.413  0.00  0.00    +0.000 A 
ATOM      3  C   UNL     1       0.017  10.595  20.621  0.00  0.00    +0.000 A 
ATOM      4  C   UNL     1       0.927  11.517  21.011  0.00  0.00    +0.000 A 
ATOM      5  C   UNL     1       1.399  12.325  19.848  0.00  0.00    +0.000 A 
ATOM      6  O   UNL     1       1.567  13.540  19.932  0.00  0.00    +0.000 OA
ATOM      7  C   UNL     1       1.737  11.597  18.560  0.00  0.00    +0.000 A 
ATOM      8  C   UNL     1       1.735  10.251  18.369  0.00  0.00    +0.000 A 
ENDROOT
BRANCH   1  12
ATOM      9  C   UNL     1       3.160   5.120  18.851  0.00  0.00    +0.000 A 
ATOM     10  C   UNL     1       3.408   6.121  17.919  0.00  0.00    +0.000 A 
ATOM     11  C   UNL     1       2.929   7.424  18.119  0.00  0.00    +0.000 A 
ATOM     12  C   UNL     1       2.152   7.775  19.237  0.00  0.00    +0.000 A 
ATOM     13  C   UNL     1       1.969   6.779  20.208  0.00  0.00    +0.000 A 
ATOM     14  C   UNL     1       2.467   5.471  20.018  0.00  0.00    +0.000 A 
BRANCH   9  18
ATOM     15  C   UNL     1       3.528   1.434  18.040  0.00  0.00    +0.000 C 
ATOM     16  C   UNL     1       2.865   2.790  17.972  0.00  0.00    +0.000 C 
ATOM     17  O   UNL     1       1.808   2.923  17.363  0.00  0.00    +0.000 OA
ATOM     18  N   UNL     1       3.554   3.771  18.671  0.00  0.00    +0.000 N 
ATOM     19  H   UNL     1       4.400   3.487  19.149  0.00  0.00    +0.000 HD
ENDBRANCH   9  18
ENDBRANCH   1  12
BRANCH   3  20
ATOM     20  C   UNL     1      -1.182  10.961  19.782  0.00  0.00    +0.000 A 
ATOM     21  C   UNL     1      -1.587  10.150  18.702  0.00  0.00    +0.000 A 
ATOM     22  C   UNL     1      -2.683  10.491  17.899  0.00  0.00    +0.000 A 
ATOM     23  C   UNL     1      -3.429  11.635  18.167  0.00  0.00    +0.000 A 
ATOM     24  C   UNL     1      -3.039  12.454  19.236  0.00  0.00    +0.000 A 
ATOM     25  C   UNL     1      -1.944  12.110  20.043  0.00  0.00    +0.000 A 
BRANCH  23  26
ATOM     26  N   UNL     1      -4.570  12.006  17.425  0.00  0.00    +0.000 N 
ATOM     27  C   UNL     1      -5.843  12.213  17.930  0.00  0.00    +0.000 C 
ATOM     28  C   UNL     1      -6.838  12.642  16.882  0.00  0.00    +0.000 C 
ATOM     29  O   UNL     1      -6.199  12.082  19.098  0.00  0.00    +0.000 OA
ATOM     30  H   UNL     1      -4.412  12.249  16.455  0.00  0.00    +0.000 HD
ENDBRANCH  23  26
ENDBRANCH   3  20
BRANCH   4  31
ATOM     31  O   UNL     1       1.910  11.203  21.952  0.00  0.00    +0.000 OA
ATOM     32  H   UNL     1       2.213  10.294  21.770  0.00  0.00    +0.000 HD
ENDBRANCH   4  31
BRANCH   7  33
ATOM     33  O   UNL     1       2.026  12.456  17.503  0.00  0.00    +0.000 OA
ATOM     34  H   UNL     1       3.001  12.413  17.394  0.00  0.00    +0.000 HD
ENDBRANCH   7  33
BRANCH   8  35
ATOM     35  O   UNL     1       1.862   9.785  17.067  0.00  0.00    +0.000 OA
ATOM     36  H   UNL     1       1.864   8.813  17.143  0.00  0.00    +0.000 HD
ENDBRANCH   8  35
TORSDOF 7
ENDMDL
MODEL 7
REMARK VINA RESULT:      -7.2      0.970      1.523
REMARK  Name = 
REMARK  9 active torsions:
REMARK  status: ('A' for Active; 'I' for Inactive)
REMARK    1  A    between atoms: C_1  and  C_2
REMARK    2  A    between atoms: N_4  and  C_5
REMARK    3  A    between atoms: C_8  and  C_9
REMARK    4  A    between atoms: C_11  and  C_12
REMARK    5  A    between atoms: C_15  and  N_16
REMARK    6  A    between atoms: C_17  and  C_18
REMARK    7  A    between atoms: C_22  and  O_23
REMARK    8  A    between atoms: C_26  and  O_27
REMARK    9  A    between atoms: C_28  and  O_29
REMARK                            x       y       z     vdW  Elec       q    Type
REMARK                         _______ _______ _______ _____ _____    ______ ____
ROOT
ATOM      1  C   UNL     1       0.616  10.394  19.691  0.00  0.00    +0.000 A 
ATOM      2  C   UNL     1       0.950  11.082  20.816  0.00  0.00    +0.000 A 
ATOM      3  C   UNL     1       0.364  12.391  21.083  0.00  0.00    +0.000 A 
ATOM      4  C   UNL     1       0.881  13.296  20.220  0.00  0.00    +0.000 A 
ATOM      5  C   UNL     1      -0.023  13.493  19.050  0.00  0.00    +0.000 A 
ATOM      6  O   UNL     1      -0.235  14.609  18.578  0.00  0.00    +0.000 OA
ATOM      7  C   UNL     1      -0.631  12.264  18.399  0.00  0.00    +0.000 A 
ATOM      8  C   UNL     1      -0.374  10.969  18.722  0.00  0.00    +0.000 A 
ENDROOT
BRANCH   1  12
ATOM      9  C   UNL     1       2.767   6.608  19.337  0.00  0.00    +0.000 A 
ATOM     10  C   UNL     1       2.050   6.925  20.484  0.00  0.00    +0.000 A 
ATOM     11  C   UNL     1       1.311   8.113  20.565  0.00  0.00    +0.000 A 
ATOM     12  C   UNL     1       1.285   9.053  19.520  0.00  0.00    +0.000 A 
ATOM     13  C   UNL     1       1.950   8.693  18.339  0.00  0.00    +0.000 A 
ATOM     14  C   UNL     1       2.679   7.487  18.248  0.00  0.00    +0.000 A 
BRANCH   9  18
ATOM     15  C   UNL     1       4.300   3.157  18.994  0.00  0.00    +0.000 C 
ATOM     16  C   UNL     1       3.170   4.158  18.980  0.00  0.00    +0.000 C 
ATOM     17  O   UNL     1       2.018   3.778  18.794  0.00  0.00    +0.000 OA
ATOM     18  N   UNL     1       3.589   5.459  19.222  0.00  0.00    +0.000 N 
ATOM     19  H   UNL     1       4.577   5.601  19.388  0.00  0.00    +0.000 HD
ENDBRANCH   9  18
ENDBRANCH   1  12
BRANCH   3  20
ATOM     20  C   UNL     1      -1.052  12.491  21.591  0.00  0.00    +0.000 A 
ATOM     21  C   UNL     1      -2.008  13.288  20.927  0.00  0.00    +0.000 A 
ATOM     22  C   UNL     1      -3.319  13.410  21.402  0.00  0.00    +0.000 A 
ATOM     23  C   UNL     1      -3.731  12.715  22.535  0.00  0.00    +0.000 A 
ATOM     24  C   UNL     1      -2.794  11.918  23.209  0.00  0.00    +0.000 A 
ATOM     25  C   UNL     1      -1.481  11.793  22.731  0.00  0.00    +0.000 A 
BRANCH  23  26
ATOM     26  N   UNL     1      -5.050  12.760  23.033  0.00  0.00    +0.000 N 
ATOM     27  C   UNL     1      -5.643  13.829  23.685  0.00  0.00    +0.000 C 
ATOM     28  C   UNL     1      -7.082  13.575  24.058  0.00  0.00    +0.000 C 
ATOM     29  O   UNL     1      -5.117  14.902  23.962  0.00  0.00    +0.000 OA
ATOM     30  H   UNL     1      -5.645  11.978  22.791  0.00  0.00    +0.000 HD
ENDBRANCH  23  26
ENDBRANCH   3  20
BRANCH   4  31
ATOM     31  O   UNL     1       2.245  13.308  19.924  0.00  0.00    +0.000 OA
ATOM     32  H   UNL     1       2.713  13.659  20.704  0.00  0.00    +0.000 HD
ENDBRANCH   4  31
BRANCH   7  33
ATOM     33  O   UNL     1      -1.567  12.570  17.414  0.00  0.00    +0.000 OA
ATOM     34  H   UNL     1      -1.306  13.455  17.075  0.00  0.00    +0.000 HD
ENDBRANCH   7  33
BRANCH   8  35
ATOM     35  O   UNL     1      -1.187   9.992  18.162  0.00  0.00    +0.000 OA
ATOM     36  H   UNL     1      -0.573   9.315  17.821  0.00  0.00    +0.000 HD
ENDBRANCH   8  35
TORSDOF 7
ENDMDL
MODEL 8
REMARK VINA RESULT:      -7.2      1.340      1.793
REMARK  Name = 
REMARK  9 active torsions:
REMARK  status: ('A' for Active; 'I' for Inactive)
REMARK    1  A    between atoms: C_1  and  C_2
REMARK    2  A    between atoms: N_4  and  C_5
REMARK    3  A    between atoms: C_8  and  C_9
REMARK    4  A    between atoms: C_11  and  C_12
REMARK    5  A    between atoms: C_15  and  N_16
REMARK    6  A    between atoms: C_17  and  C_18
REMARK    7  A    between atoms: C_22  and  O_23
REMARK    8  A    between atoms: C_26  and  O_27
REMARK    9  A    between atoms: C_28  and  O_29
REMARK                            x       y       z     vdW  Elec       q    Type
REMARK                         _______ _______ _______ _____ _____    ______ ____
ROOT
ATOM      1  C   UNL     1       0.720  10.597  19.804  0.00  0.00    +0.000 A 
ATOM      2  C   UNL     1       1.089  11.238  20.945  0.00  0.00    +0.000 A 
ATOM      3  C   UNL     1       0.665  12.612  21.192  0.00  0.00    +0.000 A 
ATOM      4  C   UNL     1       1.332  13.442  20.357  0.00  0.00    +0.000 A 
ATOM      5  C   UNL     1       0.515  13.753  19.148  0.00  0.00    +0.000 A 
ATOM      6  O   UNL     1       0.470  14.885  18.672  0.00  0.00    +0.000 OA
ATOM      7  C   UNL     1      -0.216  12.611  18.465  0.00  0.00    +0.000 A 
ATOM      8  C   UNL     1      -0.143  11.294  18.793  0.00  0.00    +0.000 A 
ENDROOT
BRANCH   1  12
ATOM      9  C   UNL     1       2.391   6.572  19.507  0.00  0.00    +0.000 A 
ATOM     10  C   UNL     1       1.765   7.008  20.668  0.00  0.00    +0.000 A 
ATOM     11  C   UNL     1       1.176   8.279  20.733  0.00  0.00    +0.000 A 
ATOM     12  C   UNL     1       1.217   9.181  19.657  0.00  0.00    +0.000 A 
ATOM     13  C   UNL     1       1.785   8.707  18.465  0.00  0.00    +0.000 A 
ATOM     14  C   UNL     1       2.362   7.419  18.390  0.00  0.00    +0.000 A 
BRANCH   9  18
ATOM     15  C   UNL     1       4.819   3.683  19.129  0.00  0.00    +0.000 C 
ATOM     16  C   UNL     1       4.436   5.134  19.302  0.00  0.00    +0.000 C 
ATOM     17  O   UNL     1       5.307   5.999  19.314  0.00  0.00    +0.000 OA
ATOM     18  N   UNL     1       3.065   5.330  19.403  0.00  0.00    +0.000 N 
ATOM     19  H   UNL     1       2.478   4.508  19.343  0.00  0.00    +0.000 HD
ENDBRANCH   9  18
ENDBRANCH   1  12
BRANCH   3  20
ATOM     20  C   UNL     1      -0.748  12.894  21.636  0.00  0.00    +0.000 A 
ATOM     21  C   UNL     1      -1.229  14.217  21.734  0.00  0.00    +0.000 A 
ATOM     22  C   UNL     1      -2.530  14.494  22.169  0.00  0.00    +0.000 A 
ATOM     23  C   UNL     1      -3.406  13.462  22.489  0.00  0.00    +0.000 A 
ATOM     24  C   UNL     1      -2.946  12.140  22.399  0.00  0.00    +0.000 A 
ATOM     25  C   UNL     1      -1.643  11.862  21.959  0.00  0.00    +0.000 A 
BRANCH  23  26
ATOM     26  N   UNL     1      -4.743  13.676  22.887  0.00  0.00    +0.000 N 
ATOM     27  C   UNL     1      -5.410  13.013  23.904  0.00  0.00    +0.000 C 
ATOM     28  C   UNL     1      -6.821  13.502  24.108  0.00  0.00    +0.000 C 
ATOM     29  O   UNL     1      -4.964  12.113  24.609  0.00  0.00    +0.000 OA
ATOM     30  H   UNL     1      -5.215  14.463  22.461  0.00  0.00    +0.000 HD
ENDBRANCH  23  26
ENDBRANCH   3  20
BRANCH   4  31
ATOM     31  O   UNL     1       2.699  13.277  20.122  0.00  0.00    +0.000 OA
ATOM     32  H   UNL     1       2.982  12.466  20.584  0.00  0.00    +0.000 HD
ENDBRANCH   4  31
BRANCH   7  33
ATOM     33  O   UNL     1      -1.060  13.034  17.440  0.00  0.00    +0.000 OA
ATOM     34  H   UNL     1      -1.897  12.538  17.573  0.00  0.00    +0.000 HD
ENDBRANCH   7  33
BRANCH   8  35
ATOM     35  O   UNL     1      -1.049  10.429  18.193  0.00  0.00    +0.000 OA
ATOM     36  H   UNL     1      -1.857  10.960  18.060  0.00  0.00    +0.000 HD
ENDBRANCH   8  35
TORSDOF 7
ENDMDL
MODEL 9
REMARK VINA RESULT:      -7.1      1.521      8.379
REMARK  Name = 
REMARK  9 active torsions:
REMARK  status: ('A' for Active; 'I' for Inactive)
REMARK    1  A    between atoms: C_1  and  C_2
REMARK    2  A    between atoms: N_4  and  C_5
REMARK    3  A    between atoms: C_8  and  C_9
REMARK    4  A    between atoms: C_11  and  C_12
REMARK    5  A    between atoms: C_15  and  N_16
REMARK    6  A    between atoms: C_17  and  C_18
REMARK    7  A    between atoms: C_22  and  O_23
REMARK    8  A    between atoms: C_26  and  O_27
REMARK    9  A    between atoms: C_28  and  O_29
REMARK                            x       y       z     vdW  Elec       q    Type
REMARK                         _______ _______ _______ _____ _____    ______ ____
ROOT
ATOM      1  C   UNL     1      -1.141  11.955  20.505  0.00  0.00    +0.000 A 
ATOM      2  C   UNL     1      -1.328  11.341  19.307  0.00  0.00    +0.000 A 
ATOM      3  C   UNL     1      -0.186  10.980  18.474  0.00  0.00    +0.000 A 
ATOM      4  C   UNL     1       0.364  12.104  17.959  0.00  0.00    +0.000 A 
ATOM      5  C   UNL     1       1.523  12.557  18.782  0.00  0.00    +0.000 A 
ATOM      6  O   UNL     1       2.556  12.978  18.266  0.00  0.00    +0.000 OA
ATOM      7  C   UNL     1       1.373  12.553  20.292  0.00  0.00    +0.000 A 
ATOM      8  C   UNL     1       0.247  12.252  20.991  0.00  0.00    +0.000 A 
ENDROOT
BRANCH   1  12
ATOM      9  C   UNL     1      -4.708  13.165  22.718  0.00  0.00    +0.000 A 
ATOM     10  C   UNL     1      -4.684  13.176  21.328  0.00  0.00    +0.000 A 
ATOM     11  C   UNL     1      -3.557  12.726  20.625  0.00  0.00    +0.000 A 
ATOM     12  C   UNL     1      -2.394  12.281  21.278  0.00  0.00    +0.000 A 
ATOM     13  C   UNL     1      -2.453  12.204  22.677  0.00  0.00    +0.000 A 
ATOM     14  C   UNL     1      -3.595  12.638  23.387  0.00  0.00    +0.000 A 
BRANCH   9  18
ATOM     15  C   UNL     1      -7.914  13.842  24.626  0.00  0.00    +0.000 C 
ATOM     16  C   UNL     1      -6.920  12.979  23.885  0.00  0.00    +0.000 C 
ATOM     17  O   UNL     1      -7.175  11.798  23.673  0.00  0.00    +0.000 OA
ATOM     18  N   UNL     1      -5.787  13.673  23.483  0.00  0.00    +0.000 N 
ATOM     19  H   UNL     1      -5.746  14.658  23.712  0.00  0.00    +0.000 HD
ENDBRANCH   9  18
ENDBRANCH   1  12
BRANCH   3  20
ATOM     20  C   UNL     1       0.647   9.773  18.823  0.00  0.00    +0.000 A 
ATOM     21  C   UNL     1       0.633   9.232  20.126  0.00  0.00    +0.000 A 
ATOM     22  C   UNL     1       1.420   8.127  20.471  0.00  0.00    +0.000 A 
ATOM     23  C   UNL     1       2.223   7.505  19.520  0.00  0.00    +0.000 A 
ATOM     24  C   UNL     1       2.251   8.029  18.220  0.00  0.00    +0.000 A 
ATOM     25  C   UNL     1       1.459   9.134  17.873  0.00  0.00    +0.000 A 
BRANCH  23  26
ATOM     26  N   UNL     1       3.001   6.359  19.794  0.00  0.00    +0.000 N 
ATOM     27  C   UNL     1       2.762   5.077  19.328  0.00  0.00    +0.000 C 
ATOM     28  C   UNL     1       3.803   4.080  19.768  0.00  0.00    +0.000 C 
ATOM     29  O   UNL     1       1.823   4.715  18.626  0.00  0.00    +0.000 OA
ATOM     30  H   UNL     1       3.873   6.519  20.283  0.00  0.00    +0.000 HD
ENDBRANCH  23  26
ENDBRANCH   3  20
BRANCH   4  31
ATOM     31  O   UNL     1      -0.439  13.128  17.451  0.00  0.00    +0.000 OA
ATOM     32  H   UNL     1      -0.899  13.544  18.204  0.00  0.00    +0.000 HD
ENDBRANCH   4  31
BRANCH   7  33
ATOM     33  O   UNL     1       2.557  12.854  20.962  0.00  0.00    +0.000 OA
ATOM     34  H   UNL     1       3.222  13.009  20.256  0.00  0.00    +0.000 HD
ENDBRANCH   7  33
BRANCH   8  35
ATOM     35  O   UNL     1       0.366  12.093  22.366  0.00  0.00    +0.000 OA
ATOM     36  H   UNL     1      -0.430  11.596  22.634  0.00  0.00    +0.000 HD
ENDBRANCH   8  35
TORSDOF 7
ENDMDL
