MODEL 1
REMARK VINA RESULT:      -8.1      0.000      0.000
REMARK  Name = 
REMARK  11 active torsions:
REMARK  status: ('A' for Active; 'I' for Inactive)
REMARK    1  A    between atoms: C_1  and  O_2
REMARK    2  A    between atoms: O_2  and  C_3
REMARK    3  A    between atoms: C_3  and  C_5
REMARK    4  A    between atoms: C_5  and  C_6
REMARK    5  A    between atoms: C_5  and  C_7
REMARK    6  A    between atoms: C_5  and  C_8
REMARK    7  A    between atoms: C_8  and  C_9
REMARK    8  A    between atoms: C_8  and  N_24
REMARK    9  A    between atoms: C_12  and  N_13
REMARK   10  A    between atoms: N_13  and  C_14
REMARK   11  A    between atoms: C_17  and  C_18
REMARK                            x       y       z     vdW  Elec       q    Type
REMARK                         _______ _______ _______ _____ _____    ______ ____
ROOT
ATOM      1  C   UNL     1       2.720   6.894  19.338  0.00  0.00    +0.000 A 
ATOM      2  C   UNL     1       1.919   7.583  20.264  0.00  0.00    +0.000 A 
ATOM      3  C   UNL     1       1.245   8.760  19.909  0.00  0.00    +0.000 A 
ATOM      4  C   UNL     1       1.375   9.305  18.629  0.00  0.00    +0.000 A 
ATOM      5  C   UNL     1       2.186   8.632  17.709  0.00  0.00    +0.000 A 
ATOM      6  C   UNL     1       2.855   7.452  18.057  0.00  0.00    +0.000 A 
ENDROOT
BRANCH   4   7
ATOM      7  N   UNL     1       0.642  10.455  18.263  0.00  0.00    +0.000 N 
ATOM      8  H   UNL     1       1.097  10.997  17.533  0.00  0.00    +0.000 HD
BRANCH   7   9
ATOM      9  C   UNL     1      -0.761  10.579  18.181  0.00  0.00    +0.000 A 
ATOM     10  C   UNL     1      -1.404  11.578  18.916  0.00  0.00    +0.000 A 
ATOM     11  C   UNL     1      -2.797  11.737  18.848  0.00  0.00    +0.000 A 
ATOM     12  C   UNL     1      -3.558  10.914  18.012  0.00  0.00    +0.000 A 
ATOM     13  C   UNL     1      -2.918   9.937  17.244  0.00  0.00    +0.000 A 
ATOM     14  C   UNL     1      -1.531   9.775  17.323  0.00  0.00    +0.000 A 
BRANCH  12  15
ATOM     15  C   UNL     1      -4.980  11.072  17.940  0.00  0.00    +0.000 C 
ATOM     16  N   UNL     1      -6.134  11.197  17.881  0.00  0.00    +0.000 NA
ENDBRANCH  12  15
ENDBRANCH   7   9
ENDBRANCH   4   7
BRANCH   1  17
ATOM     17  C   UNL     1       3.390   5.553  19.669  0.00  0.00    +0.000 C 
BRANCH  17  18
ATOM     18  N   UNL     1       2.386   4.572  20.119  0.00  0.00    +0.000 N 
ATOM     19  C   UNL     1       2.307   3.899  21.307  0.00  0.00    +0.000 A 
ATOM     20  C   UNL     1       1.170   3.131  21.226  0.00  0.00    +0.000 A 
ATOM     21  N   UNL     1       0.565   3.293  20.013  0.00  0.00    +0.000 NA
ATOM     22  C   UNL     1       1.322   4.148  19.361  0.00  0.00    +0.000 A 
ENDBRANCH  17  18
BRANCH  17  23
ATOM     23  C   UNL     1       4.458   5.028  18.630  0.00  0.00    +0.000 C 
ATOM     24  C   UNL     1       5.768   5.852  18.748  0.00  0.00    +0.000 C 
ATOM     25  C   UNL     1       3.975   5.205  17.173  0.00  0.00    +0.000 C 
BRANCH  23  26
ATOM     26  C   UNL     1       4.699   3.526  18.804  0.00  0.00    +0.000 C 
ATOM     27  O   UNL     1       5.327   3.028  19.729  0.00  0.00    +0.000 OA
BRANCH  26  29
ATOM     28  C   UNL     1       3.534   1.567  18.258  0.00  0.00    +0.000 C 
ATOM     29  O   UNL     1       4.125   2.790  17.813  0.00  0.00    +0.000 OA
ENDBRANCH  26  29
ENDBRANCH  23  26
ENDBRANCH  17  23
ENDBRANCH   1  17
TORSDOF 8
ENDMDL
MODEL 2
REMARK VINA RESULT:      -8.1      1.089      2.084
REMARK  Name = 
REMARK  11 active torsions:
REMARK  status: ('A' for Active; 'I' for Inactive)
REMARK    1  A    between atoms: C_1  and  O_2
REMARK    2  A    between atoms: O_2  and  C_3
REMARK    3  A    between atoms: C_3  and  C_5
REMARK    4  A    between atoms: C_5  and  C_6
REMARK    5  A    between atoms: C_5  and  C_7
REMARK    6  A    between atoms: C_5  and  C_8
REMARK    7  A    between atoms: C_8  and  C_9
REMARK    8  A    between atoms: C_8  and  N_24
REMARK    9  A    between atoms: C_12  and  N_13
REMARK   10  A    between atoms: N_13  and  C_14
REMARK   11  A    between atoms: C_17  and  C_18
REMARK                            x       y       z     vdW  Elec       q    Type
REMARK                         _______ _______ _______ _____ _____    ______ ____
ROOT
ATOM      1  C   UNL     1       2.748   6.786  19.308  0.00  0.00    +0.000 A 
ATOM      2  C   UNL     1       1.998   7.512  20.248  0.00  0.00    +0.000 A 
ATOM      3  C   UNL     1       1.364   8.713  19.902  0.00  0.00    +0.000 A 
ATOM      4  C   UNL     1       1.483   9.244  18.616  0.00  0.00    +0.000 A 
ATOM      5  C   UNL     1       2.244   8.535  17.680  0.00  0.00    +0.000 A 
ATOM      6  C   UNL     1       2.874   7.331  18.020  0.00  0.00    +0.000 A 
ENDROOT
BRANCH   4   7
ATOM      7  N   UNL     1       0.788  10.421  18.259  0.00  0.00    +0.000 N 
ATOM      8  H   UNL     1       1.257  10.951  17.530  0.00  0.00    +0.000 HD
BRANCH   7   9
ATOM      9  C   UNL     1      -0.610  10.593  18.185  0.00  0.00    +0.000 A 
ATOM     10  C   UNL     1      -1.364   9.733  17.382  0.00  0.00    +0.000 A 
ATOM     11  C   UNL     1      -2.757   9.869  17.295  0.00  0.00    +0.000 A 
ATOM     12  C   UNL     1      -3.416  10.851  18.040  0.00  0.00    +0.000 A 
ATOM     13  C   UNL     1      -2.674  11.692  18.875  0.00  0.00    +0.000 A 
ATOM     14  C   UNL     1      -1.284  11.560  18.951  0.00  0.00    +0.000 A 
BRANCH  12  15
ATOM     15  C   UNL     1      -4.839  10.993  17.953  0.00  0.00    +0.000 C 
ATOM     16  N   UNL     1      -5.994  11.111  17.885  0.00  0.00    +0.000 NA
ENDBRANCH  12  15
ENDBRANCH   7   9
ENDBRANCH   4   7
BRANCH   1  17
ATOM     17  C   UNL     1       3.372   5.421  19.631  0.00  0.00    +0.000 C 
BRANCH  17  18
ATOM     18  N   UNL     1       2.326   4.451  20.003  0.00  0.00    +0.000 N 
ATOM     19  C   UNL     1       1.328   3.919  19.235  0.00  0.00    +0.000 A 
ATOM     20  C   UNL     1       0.649   3.050  20.056  0.00  0.00    +0.000 A 
ATOM     21  N   UNL     1       1.185   3.055  21.311  0.00  0.00    +0.000 NA
ATOM     22  C   UNL     1       2.178   3.915  21.260  0.00  0.00    +0.000 A 
ENDBRANCH  17  18
BRANCH  17  23
ATOM     23  C   UNL     1       4.478   4.900  18.630  0.00  0.00    +0.000 C 
ATOM     24  C   UNL     1       3.983   5.043  17.166  0.00  0.00    +0.000 C 
ATOM     25  C   UNL     1       4.773   3.397  18.834  0.00  0.00    +0.000 C 
BRANCH  23  26
ATOM     26  C   UNL     1       5.810   5.618  18.865  0.00  0.00    +0.000 C 
ATOM     27  O   UNL     1       6.572   5.377  19.791  0.00  0.00    +0.000 OA
BRANCH  26  29
ATOM     28  C   UNL     1       7.418   6.576  17.455  0.00  0.00    +0.000 C 
ATOM     29  O   UNL     1       6.065   6.561  17.917  0.00  0.00    +0.000 OA
ENDBRANCH  26  29
ENDBRANCH  23  26
ENDBRANCH  17  23
ENDBRANCH   1  17
TORSDOF 8
ENDMDL
MODEL 3
REMARK VINA RESULT:      -8.0      0.536      1.508
REMARK  Name = 
REMARK  11 active torsions:
REMARK  status: ('A' for Active; 'I' for Inactive)
REMARK    1  A    between atoms: C_1  and  O_2
REMARK    2  A    between atoms: O_2  and  C_3
REMARK    3  A    between atoms: C_3  and  C_5
REMARK    4  A    between atoms: C_5  and  C_6
REMARK    5  A    between atoms: C_5  and  C_7
REMARK    6  A    between atoms: C_5  and  C_8
REMARK    7  A    between atoms: C_8  and  C_9
REMARK    8  A    between atoms: C_8  and  N_24
REMARK    9  A    between atoms: C_12  and  N_13
REMARK   10  A    between atoms: N_13  and  C_14
REMARK   11  A    between atoms: C_17  and  C_18
REMARK                            x       y       z     vdW  Elec       q    Type
REMARK                         _______ _______ _______ _____ _____    ______ ____
ROOT
ATOM      1  C   UNL     1       2.541   6.724  19.498  0.00  0.00    +0.000 A 
ATOM      2  C   UNL     1       2.564   7.300  18.218  0.00  0.00    +0.000 A 
ATOM      3  C   UNL     1       1.945   8.532  17.963  0.00  0.00    +0.000 A 
ATOM      4  C   UNL     1       1.257   9.212  18.971  0.00  0.00    +0.000 A 
ATOM      5  C   UNL     1       1.216   8.634  20.244  0.00  0.00    +0.000 A 
ATOM      6  C   UNL     1       1.838   7.406  20.504  0.00  0.00    +0.000 A 
ENDROOT
BRANCH   4   7
ATOM      7  N   UNL     1       0.692  10.482  18.720  0.00  0.00    +0.000 N 
ATOM      8  H   UNL     1       1.292  11.077  18.156  0.00  0.00    +0.000 HD
BRANCH   7   9
ATOM      9  C   UNL     1      -0.669  10.777  18.488  0.00  0.00    +0.000 A 
ATOM     10  C   UNL     1      -1.369  10.055  17.519  0.00  0.00    +0.000 A 
ATOM     11  C   UNL     1      -2.726  10.314  17.272  0.00  0.00    +0.000 A 
ATOM     12  C   UNL     1      -3.405  11.281  18.020  0.00  0.00    +0.000 A 
ATOM     13  C   UNL     1      -2.721  11.982  19.018  0.00  0.00    +0.000 A 
ATOM     14  C   UNL     1      -1.366  11.728  19.254  0.00  0.00    +0.000 A 
BRANCH  12  15
ATOM     15  C   UNL     1      -4.790  11.549  17.769  0.00  0.00    +0.000 C 
ATOM     16  N   UNL     1      -5.915  11.765  17.569  0.00  0.00    +0.000 NA
ENDBRANCH  12  15
ENDBRANCH   7   9
ENDBRANCH   4   7
BRANCH   1  17
ATOM     17  C   UNL     1       3.292   5.425  19.829  0.00  0.00    +0.000 C 
BRANCH  17  18
ATOM     18  N   UNL     1       2.360   4.410  20.352  0.00  0.00    +0.000 N 
ATOM     19  C   UNL     1       1.248   3.872  19.763  0.00  0.00    +0.000 A 
ATOM     20  C   UNL     1       0.759   2.954  20.662  0.00  0.00    +0.000 A 
ATOM     21  N   UNL     1       1.521   2.933  21.793  0.00  0.00    +0.000 NA
ATOM     22  C   UNL     1       2.464   3.826  21.591  0.00  0.00    +0.000 A 
ENDBRANCH  17  18
BRANCH  17  23
ATOM     23  C   UNL     1       4.334   4.924  18.753  0.00  0.00    +0.000 C 
ATOM     24  C   UNL     1       5.630   5.775  18.828  0.00  0.00    +0.000 C 
ATOM     25  C   UNL     1       3.797   5.095  17.314  0.00  0.00    +0.000 C 
BRANCH  23  26
ATOM     26  C   UNL     1       4.612   3.428  18.915  0.00  0.00    +0.000 C 
ATOM     27  O   UNL     1       5.286   2.942  19.813  0.00  0.00    +0.000 OA
BRANCH  26  29
ATOM     28  C   UNL     1       3.540   1.410  18.394  0.00  0.00    +0.000 C 
ATOM     29  O   UNL     1       4.015   2.682  17.945  0.00  0.00    +0.000 OA
ENDBRANCH  26  29
ENDBRANCH  23  26
ENDBRANCH  17  23
ENDBRANCH   1  17
TORSDOF 8
ENDMDL
MODEL 4
REMARK VINA RESULT:      -7.9      1.089      1.996
REMARK  Name = 
REMARK  11 active torsions:
REMARK  status: ('A' for Active; 'I' for Inactive)
REMARK    1  A    between atoms: C_1  and  O_2
REMARK    2  A    between atoms: O_2  and  C_3
REMARK    3  A    between atoms: C_3  and  C_5
REMARK    4  A    between atoms: C_5  and  C_6
REMARK    5  A    between atoms: C_5  and  C_7
REMARK    6  A    between atoms: C_5  and  C_8
REMARK    7  A    between atoms: C_8  and  C_9
REMARK    8  A    between atoms: C_8  and  N_24
REMARK    9  A    between atoms: C_12  and  N_13
REMARK   10  A    between atoms: N_13  and  C_14
REMARK   11  A    between atoms: C_17  and  C_18
REMARK                            x       y       z     vdW  Elec       q    Type
REMARK                         _______ _______ _______ _____ _____    ______ ____
ROOT
ATOM      1  C   UNL     1       2.655   6.589  19.438  0.00  0.00    +0.000 A 
ATOM      2  C   UNL     1       2.709   7.189  18.170  0.00  0.00    +0.000 A 
ATOM      3  C   UNL     1       2.089   8.421  17.921  0.00  0.00    +0.000 A 
ATOM      4  C   UNL     1       1.370   9.079  18.922  0.00  0.00    +0.000 A 
ATOM      5  C   UNL     1       1.298   8.477  20.182  0.00  0.00    +0.000 A 
ATOM      6  C   UNL     1       1.921   7.248  20.437  0.00  0.00    +0.000 A 
ENDROOT
BRANCH   4   7
ATOM      7  N   UNL     1       0.803  10.350  18.679  0.00  0.00    +0.000 N 
ATOM      8  H   UNL     1       1.404  10.949  18.120  0.00  0.00    +0.000 HD
BRANCH   7   9
ATOM      9  C   UNL     1      -0.557  10.644  18.447  0.00  0.00    +0.000 A 
ATOM     10  C   UNL     1      -1.158  11.695  19.145  0.00  0.00    +0.000 A 
ATOM     11  C   UNL     1      -2.506  12.022  18.930  0.00  0.00    +0.000 A 
ATOM     12  C   UNL     1      -3.257  11.318  17.984  0.00  0.00    +0.000 A 
ATOM     13  C   UNL     1      -2.653  10.291  17.253  0.00  0.00    +0.000 A 
ATOM     14  C   UNL     1      -1.312   9.961  17.478  0.00  0.00    +0.000 A 
BRANCH  12  15
ATOM     15  C   UNL     1      -4.634  11.649  17.761  0.00  0.00    +0.000 C 
ATOM     16  N   UNL     1      -5.751  11.915  17.583  0.00  0.00    +0.000 NA
ENDBRANCH  12  15
ENDBRANCH   7   9
ENDBRANCH   4   7
BRANCH   1  17
ATOM     17  C   UNL     1       3.405   5.289  19.765  0.00  0.00    +0.000 C 
BRANCH  17  18
ATOM     18  N   UNL     1       2.468   4.262  20.254  0.00  0.00    +0.000 N 
ATOM     19  C   UNL     1       2.441   3.621  21.462  0.00  0.00    +0.000 A 
ATOM     20  C   UNL     1       1.353   2.783  21.415  0.00  0.00    +0.000 A 
ATOM     21  N   UNL     1       0.729   2.870  20.204  0.00  0.00    +0.000 NA
ATOM     22  C   UNL     1       1.426   3.750  19.519  0.00  0.00    +0.000 A 
ENDBRANCH  17  18
BRANCH  17  23
ATOM     23  C   UNL     1       4.471   4.808  18.703  0.00  0.00    +0.000 C 
ATOM     24  C   UNL     1       3.898   4.952  17.267  0.00  0.00    +0.000 C 
ATOM     25  C   UNL     1       4.815   3.311  18.874  0.00  0.00    +0.000 C 
BRANCH  23  26
ATOM     26  C   UNL     1       5.794   5.558  18.878  0.00  0.00    +0.000 C 
ATOM     27  O   UNL     1       6.578   5.374  19.799  0.00  0.00    +0.000 OA
BRANCH  26  29
ATOM     28  C   UNL     1       7.395   6.656  17.566  0.00  0.00    +0.000 C 
ATOM     29  O   UNL     1       6.015   6.459  17.881  0.00  0.00    +0.000 OA
ENDBRANCH  26  29
ENDBRANCH  23  26
ENDBRANCH  17  23
ENDBRANCH   1  17
TORSDOF 8
ENDMDL
MODEL 5
REMARK VINA RESULT:      -7.9      0.576      1.020
REMARK  Name = 
REMARK  11 active torsions:
REMARK  status: ('A' for Active; 'I' for Inactive)
REMARK    1  A    between atoms: C_1  and  O_2
REMARK    2  A    between atoms: O_2  and  C_3
REMARK    3  A    between atoms: C_3  and  C_5
REMARK    4  A    between atoms: C_5  and  C_6
REMARK    5  A    between atoms: C_5  and  C_7
REMARK    6  A    between atoms: C_5  and  C_8
REMARK    7  A    between atoms: C_8  and  C_9
REMARK    8  A    between atoms: C_8  and  N_24
REMARK    9  A    between atoms: C_12  and  N_13
REMARK   10  A    between atoms: N_13  and  C_14
REMARK   11  A    between atoms: C_17  and  C_18
REMARK                            x       y       z     vdW  Elec       q    Type
REMARK                         _______ _______ _______ _____ _____    ______ ____
ROOT
ATOM      1  C   UNL     1       2.667   6.934  19.326  0.00  0.00    +0.000 A 
ATOM      2  C   UNL     1       1.880   7.615  20.269  0.00  0.00    +0.000 A 
ATOM      3  C   UNL     1       1.212   8.802  19.938  0.00  0.00    +0.000 A 
ATOM      4  C   UNL     1       1.334   9.364  18.665  0.00  0.00    +0.000 A 
ATOM      5  C   UNL     1       2.132   8.699  17.727  0.00  0.00    +0.000 A 
ATOM      6  C   UNL     1       2.796   7.509  18.052  0.00  0.00    +0.000 A 
ENDROOT
BRANCH   4   7
ATOM      7  N   UNL     1       0.607  10.526  18.322  0.00  0.00    +0.000 N 
ATOM      8  H   UNL     1       1.074  11.089  17.617  0.00  0.00    +0.000 HD
BRANCH   7   9
ATOM      9  C   UNL     1      -0.795  10.652  18.220  0.00  0.00    +0.000 A 
ATOM     10  C   UNL     1      -1.446  11.651  18.948  0.00  0.00    +0.000 A 
ATOM     11  C   UNL     1      -2.837  11.812  18.861  0.00  0.00    +0.000 A 
ATOM     12  C   UNL     1      -3.588  10.992  18.014  0.00  0.00    +0.000 A 
ATOM     13  C   UNL     1      -2.940  10.015  17.253  0.00  0.00    +0.000 A 
ATOM     14  C   UNL     1      -1.554   9.850  17.351  0.00  0.00    +0.000 A 
BRANCH  12  15
ATOM     15  C   UNL     1      -5.009  11.153  17.923  0.00  0.00    +0.000 C 
ATOM     16  N   UNL     1      -6.161  11.286  17.845  0.00  0.00    +0.000 NA
ENDBRANCH  12  15
ENDBRANCH   7   9
ENDBRANCH   4   7
BRANCH   1  17
ATOM     17  C   UNL     1       3.330   5.582  19.631  0.00  0.00    +0.000 C 
BRANCH  17  18
ATOM     18  N   UNL     1       2.312   4.578  19.989  0.00  0.00    +0.000 N 
ATOM     19  C   UNL     1       1.343   4.013  19.207  0.00  0.00    +0.000 A 
ATOM     20  C   UNL     1       0.682   3.122  20.019  0.00  0.00    +0.000 A 
ATOM     21  N   UNL     1       1.201   3.144  21.281  0.00  0.00    +0.000 NA
ATOM     22  C   UNL     1       2.165   4.036  21.243  0.00  0.00    +0.000 A 
ENDBRANCH  17  18
BRANCH  17  23
ATOM     23  C   UNL     1       4.451   5.108  18.624  0.00  0.00    +0.000 C 
ATOM     24  C   UNL     1       5.803   5.789  18.970  0.00  0.00    +0.000 C 
ATOM     25  C   UNL     1       4.127   5.522  17.171  0.00  0.00    +0.000 C 
BRANCH  23  26
ATOM     26  C   UNL     1       4.559   3.581  18.605  0.00  0.00    +0.000 C 
ATOM     27  O   UNL     1       4.132   2.868  17.706  0.00  0.00    +0.000 OA
BRANCH  26  29
ATOM     28  C   UNL     1       4.677   1.846  20.175  0.00  0.00    +0.000 C 
ATOM     29  O   UNL     1       5.196   3.092  19.704  0.00  0.00    +0.000 OA
ENDBRANCH  26  29
ENDBRANCH  23  26
ENDBRANCH  17  23
ENDBRANCH   1  17
TORSDOF 8
ENDMDL
MODEL 6
REMARK VINA RESULT:      -7.9      0.930      1.975
REMARK  Name = 
REMARK  11 active torsions:
REMARK  status: ('A' for Active; 'I' for Inactive)
REMARK    1  A    between atoms: C_1  and  O_2
REMARK    2  A    between atoms: O_2  and  C_3
REMARK    3  A    between atoms: C_3  and  C_5
REMARK    4  A    between atoms: C_5  and  C_6
REMARK    5  A    between atoms: C_5  and  C_7
REMARK    6  A    between atoms: C_5  and  C_8
REMARK    7  A    between atoms: C_8  and  C_9
REMARK    8  A    between atoms: C_8  and  N_24
REMARK    9  A    between atoms: C_12  and  N_13
REMARK   10  A    between atoms: N_13  and  C_14
REMARK   11  A    between atoms: C_17  and  C_18
REMARK                            x       y       z     vdW  Elec       q    Type
REMARK                         _______ _______ _______ _____ _____    ______ ____
ROOT
ATOM      1  C   UNL     1       2.430   7.151  19.217  0.00  0.00    +0.000 A 
ATOM      2  C   UNL     1       2.282   7.644  17.910  0.00  0.00    +0.000 A 
ATOM      3  C   UNL     1       1.556   8.816  17.653  0.00  0.00    +0.000 A 
ATOM      4  C   UNL     1       0.929   9.515  18.687  0.00  0.00    +0.000 A 
ATOM      5  C   UNL     1       1.059   9.017  19.988  0.00  0.00    +0.000 A 
ATOM      6  C   UNL     1       1.788   7.851  20.251  0.00  0.00    +0.000 A 
ENDROOT
BRANCH   4   7
ATOM      7  N   UNL     1       0.255  10.728  18.426  0.00  0.00    +0.000 N 
ATOM      8  H   UNL     1       0.756  11.326  17.774  0.00  0.00    +0.000 HD
BRANCH   7   9
ATOM      9  C   UNL     1      -1.139  10.919  18.313  0.00  0.00    +0.000 A 
ATOM     10  C   UNL     1      -1.869  10.119  17.430  0.00  0.00    +0.000 A 
ATOM     11  C   UNL     1      -3.258  10.275  17.302  0.00  0.00    +0.000 A 
ATOM     12  C   UNL     1      -3.935  11.215  18.085  0.00  0.00    +0.000 A 
ATOM     13  C   UNL     1      -3.217  11.993  18.998  0.00  0.00    +0.000 A 
ATOM     14  C   UNL     1      -1.832  11.842  19.115  0.00  0.00    +0.000 A 
BRANCH  12  15
ATOM     15  C   UNL     1      -5.353  11.377  17.956  0.00  0.00    +0.000 C 
ATOM     16  N   UNL     1      -6.503  11.513  17.851  0.00  0.00    +0.000 NA
ENDBRANCH  12  15
ENDBRANCH   7   9
ENDBRANCH   4   7
BRANCH   1  17
ATOM     17  C   UNL     1       3.298   5.926  19.539  0.00  0.00    +0.000 C 
BRANCH  17  18
ATOM     18  N   UNL     1       2.466   4.826  20.060  0.00  0.00    +0.000 N 
ATOM     19  C   UNL     1       2.574   4.145  21.240  0.00  0.00    +0.000 A 
ATOM     20  C   UNL     1       1.538   3.242  21.245  0.00  0.00    +0.000 A 
ATOM     21  N   UNL     1       0.816   3.331  20.091  0.00  0.00    +0.000 NA
ATOM     22  C   UNL     1       1.401   4.275  19.388  0.00  0.00    +0.000 A 
ENDBRANCH  17  18
BRANCH  17  23
ATOM     23  C   UNL     1       4.379   5.528  18.458  0.00  0.00    +0.000 C 
ATOM     24  C   UNL     1       4.823   6.783  17.659  0.00  0.00    +0.000 C 
ATOM     25  C   UNL     1       3.809   4.541  17.414  0.00  0.00    +0.000 C 
BRANCH  23  26
ATOM     26  C   UNL     1       5.562   4.805  19.107  0.00  0.00    +0.000 C 
ATOM     27  O   UNL     1       5.724   3.592  19.094  0.00  0.00    +0.000 OA
BRANCH  26  29
ATOM     28  C   UNL     1       7.778   5.559  19.228  0.00  0.00    +0.000 C 
ATOM     29  O   UNL     1       6.433   5.666  19.702  0.00  0.00    +0.000 OA
ENDBRANCH  26  29
ENDBRANCH  23  26
ENDBRANCH  17  23
ENDBRANCH   1  17
TORSDOF 8
ENDMDL
MODEL 7
REMARK VINA RESULT:      -7.9      0.758      1.334
REMARK  Name = 
REMARK  11 active torsions:
REMARK  status: ('A' for Active; 'I' for Inactive)
REMARK    1  A    between atoms: C_1  and  O_2
REMARK    2  A    between atoms: O_2  and  C_3
REMARK    3  A    between atoms: C_3  and  C_5
REMARK    4  A    between atoms: C_5  and  C_6
REMARK    5  A    between atoms: C_5  and  C_7
REMARK    6  A    between atoms: C_5  and  C_8
REMARK    7  A    between atoms: C_8  and  C_9
REMARK    8  A    between atoms: C_8  and  N_24
REMARK    9  A    between atoms: C_12  and  N_13
REMARK   10  A    between atoms: N_13  and  C_14
REMARK   11  A    between atoms: C_17  and  C_18
REMARK                            x       y       z     vdW  Elec       q    Type
REMARK                         _______ _______ _______ _____ _____    ______ ____
ROOT
ATOM      1  C   UNL     1       2.568   7.173  19.194  0.00  0.00    +0.000 A 
ATOM      2  C   UNL     1       1.836   7.852  20.181  0.00  0.00    +0.000 A 
ATOM      3  C   UNL     1       1.132   9.028  19.886  0.00  0.00    +0.000 A 
ATOM      4  C   UNL     1       1.161   9.580  18.603  0.00  0.00    +0.000 A 
ATOM      5  C   UNL     1       1.903   8.916  17.620  0.00  0.00    +0.000 A 
ATOM      6  C   UNL     1       2.603   7.738  17.909  0.00  0.00    +0.000 A 
ENDROOT
BRANCH   4   7
ATOM      7  N   UNL     1       0.397  10.728  18.300  0.00  0.00    +0.000 N 
ATOM      8  H   UNL     1       0.827  11.311  17.587  0.00  0.00    +0.000 HD
BRANCH   7   9
ATOM      9  C   UNL     1      -1.010  10.824  18.246  0.00  0.00    +0.000 A 
ATOM     10  C   UNL     1      -1.727   9.926  17.452  0.00  0.00    +0.000 A 
ATOM     11  C   UNL     1      -3.127   9.986  17.385  0.00  0.00    +0.000 A 
ATOM     12  C   UNL     1      -3.827  10.929  18.144  0.00  0.00    +0.000 A 
ATOM     13  C   UNL     1      -3.120  11.807  18.971  0.00  0.00    +0.000 A 
ATOM     14  C   UNL     1      -1.723  11.751  19.026  0.00  0.00    +0.000 A 
BRANCH  12  15
ATOM     15  C   UNL     1      -5.257  10.994  18.078  0.00  0.00    +0.000 C 
ATOM     16  N   UNL     1      -6.417  11.050  18.024  0.00  0.00    +0.000 NA
ENDBRANCH  12  15
ENDBRANCH   7   9
ENDBRANCH   4   7
BRANCH   1  17
ATOM     17  C   UNL     1       3.268   5.833  19.465  0.00  0.00    +0.000 C 
BRANCH  17  18
ATOM     18  N   UNL     1       2.298   4.832  19.945  0.00  0.00    +0.000 N 
ATOM     19  C   UNL     1       1.306   4.189  19.256  0.00  0.00    +0.000 A 
ATOM     20  C   UNL     1       0.713   3.343  20.162  0.00  0.00    +0.000 A 
ATOM     21  N   UNL     1       1.292   3.468  21.391  0.00  0.00    +0.000 NA
ATOM     22  C   UNL     1       2.228   4.379  21.240  0.00  0.00    +0.000 A 
ENDBRANCH  17  18
BRANCH  17  23
ATOM     23  C   UNL     1       4.288   5.339  18.365  0.00  0.00    +0.000 C 
ATOM     24  C   UNL     1       5.104   6.541  17.816  0.00  0.00    +0.000 C 
ATOM     25  C   UNL     1       3.564   4.727  17.145  0.00  0.00    +0.000 C 
BRANCH  23  26
ATOM     26  C   UNL     1       5.188   4.228  18.911  0.00  0.00    +0.000 C 
ATOM     27  O   UNL     1       6.249   4.418  19.490  0.00  0.00    +0.000 OA
BRANCH  26  29
ATOM     28  C   UNL     1       4.535   2.192  19.871  0.00  0.00    +0.000 C 
ATOM     29  O   UNL     1       4.671   2.988  18.691  0.00  0.00    +0.000 OA
ENDBRANCH  26  29
ENDBRANCH  23  26
ENDBRANCH  17  23
ENDBRANCH   1  17
TORSDOF 8
ENDMDL
MODEL 8
REMARK VINA RESULT:      -7.9      1.943      2.871
REMARK  Name = 
REMARK  11 active torsions:
REMARK  status: ('A' for Active; 'I' for Inactive)
REMARK    1  A    between atoms: C_1  and  O_2
REMARK    2  A    between atoms: O_2  and  C_3
REMARK    3  A    between atoms: C_3  and  C_5
REMARK    4  A    between atoms: C_5  and  C_6
REMARK    5  A    between atoms: C_5  and  C_7
REMARK    6  A    between atoms: C_5  and  C_8
REMARK    7  A    between atoms: C_8  and  C_9
REMARK    8  A    between atoms: C_8  and  N_24
REMARK    9  A    between atoms: C_12  and  N_13
REMARK   10  A    between atoms: N_13  and  C_14
REMARK   11  A    between atoms: C_17  and  C_18
REMARK                            x       y       z     vdW  Elec       q    Type
REMARK                         _______ _______ _______ _____ _____    ______ ____
ROOT
ATOM      1  C   UNL     1       3.563   6.458  18.427  0.00  0.00    +0.000 A 
ATOM      2  C   UNL     1       3.438   7.545  17.547  0.00  0.00    +0.000 A 
ATOM      3  C   UNL     1       2.614   8.637  17.853  0.00  0.00    +0.000 A 
ATOM      4  C   UNL     1       1.865   8.665  19.032  0.00  0.00    +0.000 A 
ATOM      5  C   UNL     1       1.973   7.576  19.903  0.00  0.00    +0.000 A 
ATOM      6  C   UNL     1       2.799   6.485  19.604  0.00  0.00    +0.000 A 
ENDROOT
BRANCH   4   7
ATOM      7  N   UNL     1       1.089   9.798  19.360  0.00  0.00    +0.000 N 
ATOM      8  H   UNL     1       1.652  10.624  19.540  0.00  0.00    +0.000 HD
BRANCH   7   9
ATOM      9  C   UNL     1      -0.167  10.153  18.823  0.00  0.00    +0.000 A 
ATOM     10  C   UNL     1      -0.908  11.170  19.431  0.00  0.00    +0.000 A 
ATOM     11  C   UNL     1      -2.155  11.556  18.916  0.00  0.00    +0.000 A 
ATOM     12  C   UNL     1      -2.658  10.947  17.762  0.00  0.00    +0.000 A 
ATOM     13  C   UNL     1      -1.906   9.955  17.126  0.00  0.00    +0.000 A 
ATOM     14  C   UNL     1      -0.668   9.566  17.649  0.00  0.00    +0.000 A 
BRANCH  12  15
ATOM     15  C   UNL     1      -3.931  11.339  17.234  0.00  0.00    +0.000 C 
ATOM     16  N   UNL     1      -4.962  11.657  16.802  0.00  0.00    +0.000 NA
ENDBRANCH  12  15
ENDBRANCH   7   9
ENDBRANCH   4   7
BRANCH   1  17
ATOM     17  C   UNL     1       4.531   5.294  18.163  0.00  0.00    +0.000 C 
BRANCH  17  18
ATOM     18  N   UNL     1       3.794   4.021  18.074  0.00  0.00    +0.000 N 
ATOM     19  C   UNL     1       3.973   2.867  18.787  0.00  0.00    +0.000 A 
ATOM     20  C   UNL     1       3.009   1.997  18.335  0.00  0.00    +0.000 A 
ATOM     21  N   UNL     1       2.263   2.574  17.348  0.00  0.00    +0.000 NA
ATOM     22  C   UNL     1       2.763   3.781  17.197  0.00  0.00    +0.000 A 
ENDBRANCH  17  18
BRANCH  17  23
ATOM     23  C   UNL     1       5.635   5.537  17.061  0.00  0.00    +0.000 C 
ATOM     24  C   UNL     1       5.042   6.351  15.879  0.00  0.00    +0.000 C 
ATOM     25  C   UNL     1       6.137   4.209  16.451  0.00  0.00    +0.000 C 
BRANCH  23  26
ATOM     26  C   UNL     1       6.872   6.207  17.664  0.00  0.00    +0.000 C 
ATOM     27  O   UNL     1       7.411   5.858  18.705  0.00  0.00    +0.000 OA
BRANCH  26  29
ATOM     28  C   UNL     1       7.749   8.381  17.658  0.00  0.00    +0.000 C 
ATOM     29  O   UNL     1       7.322   7.244  16.904  0.00  0.00    +0.000 OA
ENDBRANCH  26  29
ENDBRANCH  23  26
ENDBRANCH  17  23
ENDBRANCH   1  17
TORSDOF 8
ENDMDL
MODEL 9
REMARK VINA RESULT:      -7.8      1.712      3.031
REMARK  Name = 
REMARK  11 active torsions:
REMARK  status: ('A' for Active; 'I' for Inactive)
REMARK    1  A    between atoms: C_1  and  O_2
REMARK    2  A    between atoms: O_2  and  C_3
REMARK    3  A    between atoms: C_3  and  C_5
REMARK    4  A    between atoms: C_5  and  C_6
REMARK    5  A    between atoms: C_5  and  C_7
REMARK    6  A    between atoms: C_5  and  C_8
REMARK    7  A    between atoms: C_8  and  C_9
REMARK    8  A    between atoms: C_8  and  N_24
REMARK    9  A    between atoms: C_12  and  N_13
REMARK   10  A    between atoms: N_13  and  C_14
REMARK   11  A    between atoms: C_17  and  C_18
REMARK                            x       y       z     vdW  Elec       q    Type
REMARK                         _______ _______ _______ _____ _____    ______ ____
ROOT
ATOM      1  C   UNL     1       3.088   6.438  18.325  0.00  0.00    +0.000 A 
ATOM      2  C   UNL     1       2.506   6.590  19.595  0.00  0.00    +0.000 A 
ATOM      3  C   UNL     1       1.837   7.769  19.952  0.00  0.00    +0.000 A 
ATOM      4  C   UNL     1       1.754   8.845  19.065  0.00  0.00    +0.000 A 
ATOM      5  C   UNL     1       2.347   8.705  17.806  0.00  0.00    +0.000 A 
ATOM      6  C   UNL     1       3.011   7.527  17.442  0.00  0.00    +0.000 A 
ENDROOT
BRANCH   4   7
ATOM      7  N   UNL     1       1.023  10.003  19.411  0.00  0.00    +0.000 N 
ATOM      8  H   UNL     1       1.618  10.810  19.578  0.00  0.00    +0.000 HD
BRANCH   7   9
ATOM      9  C   UNL     1      -0.231  10.401  18.900  0.00  0.00    +0.000 A 
ATOM     10  C   UNL     1      -0.759   9.738  17.790  0.00  0.00    +0.000 A 
ATOM     11  C   UNL     1      -2.009  10.101  17.264  0.00  0.00    +0.000 A 
ATOM     12  C   UNL     1      -2.759  11.112  17.870  0.00  0.00    +0.000 A 
ATOM     13  C   UNL     1      -2.256  11.755  19.005  0.00  0.00    +0.000 A 
ATOM     14  C   UNL     1      -1.005  11.398  19.519  0.00  0.00    +0.000 A 
BRANCH  12  15
ATOM     15  C   UNL     1      -4.036  11.485  17.336  0.00  0.00    +0.000 C 
ATOM     16  N   UNL     1      -5.069  11.790  16.900  0.00  0.00    +0.000 NA
ENDBRANCH  12  15
ENDBRANCH   7   9
ENDBRANCH   4   7
BRANCH   1  17
ATOM     17  C   UNL     1       3.742   5.124  17.873  0.00  0.00    +0.000 C 
BRANCH  17  18
ATOM     18  N   UNL     1       5.171   5.109  18.231  0.00  0.00    +0.000 N 
ATOM     19  C   UNL     1       5.802   5.693  19.295  0.00  0.00    +0.000 A 
ATOM     20  C   UNL     1       7.128   5.351  19.176  0.00  0.00    +0.000 A 
ATOM     21  N   UNL     1       7.333   4.598  18.056  0.00  0.00    +0.000 NA
ATOM     22  C   UNL     1       6.148   4.481  17.497  0.00  0.00    +0.000 A 
ENDBRANCH  17  18
BRANCH  17  23
ATOM     23  C   UNL     1       2.935   3.799  18.174  0.00  0.00    +0.000 C 
ATOM     24  C   UNL     1       3.234   2.732  17.086  0.00  0.00    +0.000 C 
ATOM     25  C   UNL     1       1.409   4.035  18.128  0.00  0.00    +0.000 C 
BRANCH  23  26
ATOM     26  C   UNL     1       3.231   3.287  19.586  0.00  0.00    +0.000 C 
ATOM     27  O   UNL     1       4.233   2.658  19.899  0.00  0.00    +0.000 OA
BRANCH  26  29
ATOM     28  C   UNL     1       2.169   2.748  21.604  0.00  0.00    +0.000 C 
ATOM     29  O   UNL     1       2.252   3.618  20.473  0.00  0.00    +0.000 OA
ENDBRANCH  26  29
ENDBRANCH  23  26
ENDBRANCH  17  23
ENDBRANCH   1  17
TORSDOF 8
ENDMDL
