MODEL 1
REMARK VINA RESULT:      -8.5      0.000      0.000
REMARK  Name = 
REMARK  4 active torsions:
REMARK  status: ('A' for Active; 'I' for Inactive)
REMARK    1  A    between atoms: S_2  and  C_4
REMARK    2  A    between atoms: S_2  and  N_11
REMARK    3  A    between atoms: C_19  and  C_20
REMARK    4  A    between atoms: C_20  and  C_21
REMARK                            x       y       z     vdW  Elec       q    Type
REMARK                         _______ _______ _______ _____ _____    ______ ____
ROOT
ATOM      1  N   UNL     1       4.232   4.569  18.661  0.00  0.00    +0.000 NA
ATOM      2  C   UNL     1       4.525   3.502  19.705  0.00  0.00    +0.000 C 
ATOM      3  C   UNL     1       3.338   3.104  20.484  0.00  0.00    +0.000 A 
ATOM      4  C   UNL     1       3.161   2.068  21.372  0.00  0.00    +0.000 A 
ATOM      5  N   UNL     1       1.892   2.208  21.862  0.00  0.00    +0.000 N 
ATOM      6  N   UNL     1       1.237   3.262  21.342  0.00  0.00    +0.000 NA
ATOM      7  C   UNL     1       2.122   3.793  20.494  0.00  0.00    +0.000 A 
ATOM      8  C   UNL     1       1.858   4.975  19.648  0.00  0.00    +0.000 C 
ATOM      9  C   UNL     1       3.186   5.616  19.161  0.00  0.00    +0.000 C 
ATOM     10  H   UNL     1       1.418   1.632  22.548  0.00  0.00    +0.000 HD
ENDROOT
BRANCH   1  12
ATOM     11  O   UNL     1       6.788   4.577  18.941  0.00  0.00    +0.000 OA
ATOM     12  S   UNL     1       5.766   5.272  18.191  0.00  0.00    +0.000 S 
ATOM     13  O   UNL     1       5.673   6.713  18.230  0.00  0.00    +0.000 OA
BRANCH  12  14
ATOM     14  C   UNL     1       5.971   4.832  16.463  0.00  0.00    +0.000 A 
ATOM     15  C   UNL     1       7.135   5.210  15.786  0.00  0.00    +0.000 A 
ATOM     16  C   UNL     1       7.299   4.832  14.445  0.00  0.00    +0.000 A 
ATOM     17  C   UNL     1       6.322   4.084  13.799  0.00  0.00    +0.000 A 
ATOM     18 CL   UNL     1       6.540   3.614  12.157  0.00  0.00    +0.000 Cl
ATOM     19  C   UNL     1       5.161   3.706  14.477  0.00  0.00    +0.000 A 
ATOM     20  C   UNL     1       4.983   4.080  15.813  0.00  0.00    +0.000 A 
ENDBRANCH  12  14
ENDBRANCH   1  12
BRANCH   9  21
ATOM     21  C   UNL     1       2.837   6.789  18.198  0.00  0.00    +0.000 C 
BRANCH  21  22
ATOM     22  C   UNL     1       2.187   8.079  18.671  0.00  0.00    +0.000 A 
ATOM     23  C   UNL     1       1.791   9.068  17.743  0.00  0.00    +0.000 A 
ATOM     24  C   UNL     1       0.942  10.114  18.120  0.00  0.00    +0.000 A 
ATOM     25  C   UNL     1       0.470  10.195  19.428  0.00  0.00    +0.000 A 
ATOM     26  C   UNL     1       0.901   9.263  20.368  0.00  0.00    +0.000 A 
ATOM     27  C   UNL     1       1.768   8.231  19.995  0.00  0.00    +0.000 A 
ENDBRANCH  21  22
ENDBRANCH   9  21
TORSDOF 4
ENDMDL
MODEL 2
REMARK VINA RESULT:      -8.4      0.209      1.353
REMARK  Name = 
REMARK  4 active torsions:
REMARK  status: ('A' for Active; 'I' for Inactive)
REMARK    1  A    between atoms: S_2  and  C_4
REMARK    2  A    between atoms: S_2  and  N_11
REMARK    3  A    between atoms: C_19  and  C_20
REMARK    4  A    between atoms: C_20  and  C_21
REMARK                            x       y       z     vdW  Elec       q    Type
REMARK                         _______ _______ _______ _____ _____    ______ ____
ROOT
ATOM      1  N   UNL     1       4.258   4.669  18.560  0.00  0.00    +0.000 NA
ATOM      2  C   UNL     1       4.539   3.562  19.564  0.00  0.00    +0.000 C 
ATOM      3  C   UNL     1       3.359   3.184  20.364  0.00  0.00    +0.000 A 
ATOM      4  C   UNL     1       3.167   2.129  21.226  0.00  0.00    +0.000 A 
ATOM      5  N   UNL     1       1.917   2.301  21.755  0.00  0.00    +0.000 N 
ATOM      6  N   UNL     1       1.289   3.394  21.284  0.00  0.00    +0.000 NA
ATOM      7  C   UNL     1       2.171   3.918  20.428  0.00  0.00    +0.000 A 
ATOM      8  C   UNL     1       1.929   5.133  19.625  0.00  0.00    +0.000 C 
ATOM      9  C   UNL     1       3.266   5.739  19.119  0.00  0.00    +0.000 C 
ATOM     10  H   UNL     1       1.441   1.723  22.437  0.00  0.00    +0.000 HD
ENDROOT
BRANCH   1  12
ATOM     11  O   UNL     1       6.811   4.668  18.868  0.00  0.00    +0.000 OA
ATOM     12  S   UNL     1       5.805   5.329  18.068  0.00  0.00    +0.000 S 
ATOM     13  O   UNL     1       5.727   6.770  18.023  0.00  0.00    +0.000 OA
BRANCH  12  14
ATOM     14  C   UNL     1       6.024   4.788  16.370  0.00  0.00    +0.000 A 
ATOM     15  C   UNL     1       5.017   4.045  15.746  0.00  0.00    +0.000 A 
ATOM     16  C   UNL     1       5.185   3.655  14.409  0.00  0.00    +0.000 A 
ATOM     17  C   UNL     1       6.333   4.011  13.710  0.00  0.00    +0.000 A 
ATOM     18 CL   UNL     1       6.522   3.539  12.064  0.00  0.00    +0.000 Cl
ATOM     19  C   UNL     1       7.336   4.754  14.334  0.00  0.00    +0.000 A 
ATOM     20  C   UNL     1       7.183   5.145  15.669  0.00  0.00    +0.000 A 
ENDBRANCH  12  14
ENDBRANCH   1  12
BRANCH   9  21
ATOM     21  C   UNL     1       2.936   6.952  18.201  0.00  0.00    +0.000 C 
BRANCH  21  22
ATOM     22  C   UNL     1       2.052   8.107  18.645  0.00  0.00    +0.000 A 
ATOM     23  C   UNL     1       1.611   8.201  19.984  0.00  0.00    +0.000 A 
ATOM     24  C   UNL     1       1.052   9.385  20.478  0.00  0.00    +0.000 A 
ATOM     25  C   UNL     1       0.922  10.497  19.649  0.00  0.00    +0.000 A 
ATOM     26  C   UNL     1       1.295  10.398  18.312  0.00  0.00    +0.000 A 
ATOM     27  C   UNL     1       1.833   9.207  17.813  0.00  0.00    +0.000 A 
ENDBRANCH  21  22
ENDBRANCH   9  21
TORSDOF 4
ENDMDL
MODEL 3
REMARK VINA RESULT:      -8.0      1.562      1.894
REMARK  Name = 
REMARK  4 active torsions:
REMARK  status: ('A' for Active; 'I' for Inactive)
REMARK    1  A    between atoms: S_2  and  C_4
REMARK    2  A    between atoms: S_2  and  N_11
REMARK    3  A    between atoms: C_19  and  C_20
REMARK    4  A    between atoms: C_20  and  C_21
REMARK                            x       y       z     vdW  Elec       q    Type
REMARK                         _______ _______ _______ _____ _____    ______ ____
ROOT
ATOM      1  N   UNL     1       4.193   5.039  16.923  0.00  0.00    +0.000 NA
ATOM      2  C   UNL     1       4.374   3.566  17.256  0.00  0.00    +0.000 C 
ATOM      3  C   UNL     1       3.225   2.981  17.971  0.00  0.00    +0.000 A 
ATOM      4  C   UNL     1       2.938   1.671  18.277  0.00  0.00    +0.000 A 
ATOM      5  N   UNL     1       1.787   1.703  19.015  0.00  0.00    +0.000 N 
ATOM      6  N   UNL     1       1.310   2.948  19.198  0.00  0.00    +0.000 NA
ATOM      7  C   UNL     1       2.186   3.718  18.547  0.00  0.00    +0.000 A 
ATOM      8  C   UNL     1       2.078   5.186  18.433  0.00  0.00    +0.000 C 
ATOM      9  C   UNL     1       3.447   5.815  18.056  0.00  0.00    +0.000 C 
ATOM     10  H   UNL     1       1.285   0.924  19.426  0.00  0.00    +0.000 HD
ENDROOT
BRANCH   1  12
ATOM     11  O   UNL     1       6.692   5.131  17.521  0.00  0.00    +0.000 OA
ATOM     12  S   UNL     1       5.777   5.686  16.549  0.00  0.00    +0.000 S 
ATOM     13  O   UNL     1       5.686   7.114  16.353  0.00  0.00    +0.000 OA
BRANCH  12  14
ATOM     14  C   UNL     1       6.200   4.989  14.950  0.00  0.00    +0.000 A 
ATOM     15  C   UNL     1       7.417   5.326  14.348  0.00  0.00    +0.000 A 
ATOM     16  C   UNL     1       7.751   4.750  13.113  0.00  0.00    +0.000 A 
ATOM     17  C   UNL     1       6.889   3.848  12.500  0.00  0.00    +0.000 A 
ATOM     18 CL   UNL     1       7.316   3.136  10.992  0.00  0.00    +0.000 Cl
ATOM     19  C   UNL     1       5.676   3.511  13.103  0.00  0.00    +0.000 A 
ATOM     20  C   UNL     1       5.328   4.083  14.332  0.00  0.00    +0.000 A 
ENDBRANCH  12  14
ENDBRANCH   1  12
BRANCH   9  21
ATOM     21  C   UNL     1       3.243   7.345  17.854  0.00  0.00    +0.000 C 
BRANCH  21  22
ATOM     22  C   UNL     1       2.113   8.120  18.514  0.00  0.00    +0.000 A 
ATOM     23  C   UNL     1       1.888   8.018  19.906  0.00  0.00    +0.000 A 
ATOM     24  C   UNL     1       1.060   8.929  20.572  0.00  0.00    +0.000 A 
ATOM     25  C   UNL     1       0.442   9.958  19.865  0.00  0.00    +0.000 A 
ATOM     26  C   UNL     1       0.605  10.034  18.486  0.00  0.00    +0.000 A 
ATOM     27  C   UNL     1       1.415   9.109  17.818  0.00  0.00    +0.000 A 
ENDBRANCH  21  22
ENDBRANCH   9  21
TORSDOF 4
ENDMDL
MODEL 4
REMARK VINA RESULT:      -7.8      1.243      1.835
REMARK  Name = 
REMARK  4 active torsions:
REMARK  status: ('A' for Active; 'I' for Inactive)
REMARK    1  A    between atoms: S_2  and  C_4
REMARK    2  A    between atoms: S_2  and  N_11
REMARK    3  A    between atoms: C_19  and  C_20
REMARK    4  A    between atoms: C_20  and  C_21
REMARK                            x       y       z     vdW  Elec       q    Type
REMARK                         _______ _______ _______ _____ _____    ______ ____
ROOT
ATOM      1  N   UNL     1       4.105   4.753  17.533  0.00  0.00    +0.000 NA
ATOM      2  C   UNL     1       4.112   3.279  17.908  0.00  0.00    +0.000 C 
ATOM      3  C   UNL     1       2.829   2.809  18.462  0.00  0.00    +0.000 A 
ATOM      4  C   UNL     1       2.392   1.535  18.743  0.00  0.00    +0.000 A 
ATOM      5  N   UNL     1       1.156   1.680  19.311  0.00  0.00    +0.000 N 
ATOM      6  N   UNL     1       0.766   2.964  19.407  0.00  0.00    +0.000 NA
ATOM      7  C   UNL     1       1.786   3.642  18.875  0.00  0.00    +0.000 A 
ATOM      8  C   UNL     1       1.820   5.112  18.727  0.00  0.00    +0.000 C 
ATOM      9  C   UNL     1       3.276   5.617  18.538  0.00  0.00    +0.000 C 
ATOM     10  H   UNL     1       0.538   0.956  19.656  0.00  0.00    +0.000 HD
ENDROOT
BRANCH   1  12
ATOM     11  O   UNL     1       6.551   4.396  18.240  0.00  0.00    +0.000 OA
ATOM     12  S   UNL     1       5.775   5.259  17.378  0.00  0.00    +0.000 S 
ATOM     13  O   UNL     1       5.862   6.695  17.499  0.00  0.00    +0.000 OA
BRANCH  12  14
ATOM     14  C   UNL     1       6.223   4.873  15.683  0.00  0.00    +0.000 A 
ATOM     15  C   UNL     1       5.353   4.114  14.893  0.00  0.00    +0.000 A 
ATOM     16  C   UNL     1       5.699   3.845  13.560  0.00  0.00    +0.000 A 
ATOM     17  C   UNL     1       6.886   4.336  13.028  0.00  0.00    +0.000 A 
ATOM     18 CL   UNL     1       7.293   4.012  11.386  0.00  0.00    +0.000 Cl
ATOM     19  C   UNL     1       7.752   5.094  13.817  0.00  0.00    +0.000 A 
ATOM     20  C   UNL     1       7.421   5.365  15.149  0.00  0.00    +0.000 A 
ENDBRANCH  12  14
ENDBRANCH   1  12
BRANCH   9  21
ATOM     21  C   UNL     1       3.232   7.152  18.288  0.00  0.00    +0.000 C 
BRANCH  21  22
ATOM     22  C   UNL     1       2.089   8.033  18.767  0.00  0.00    +0.000 A 
ATOM     23  C   UNL     1       1.772   8.118  20.141  0.00  0.00    +0.000 A 
ATOM     24  C   UNL     1       0.933   9.127  20.628  0.00  0.00    +0.000 A 
ATOM     25  C   UNL     1       0.394  10.070  19.756  0.00  0.00    +0.000 A 
ATOM     26  C   UNL     1       0.647   9.961  18.392  0.00  0.00    +0.000 A 
ATOM     27  C   UNL     1       1.468   8.939  17.904  0.00  0.00    +0.000 A 
ENDBRANCH  21  22
ENDBRANCH   9  21
TORSDOF 4
ENDMDL
MODEL 5
REMARK VINA RESULT:      -7.8      1.550      1.871
REMARK  Name = 
REMARK  4 active torsions:
REMARK  status: ('A' for Active; 'I' for Inactive)
REMARK    1  A    between atoms: S_2  and  C_4
REMARK    2  A    between atoms: S_2  and  N_11
REMARK    3  A    between atoms: C_19  and  C_20
REMARK    4  A    between atoms: C_20  and  C_21
REMARK                            x       y       z     vdW  Elec       q    Type
REMARK                         _______ _______ _______ _____ _____    ______ ____
ROOT
ATOM      1  N   UNL     1       4.050   5.011  16.962  0.00  0.00    +0.000 NA
ATOM      2  C   UNL     1       4.255   3.567  17.397  0.00  0.00    +0.000 C 
ATOM      3  C   UNL     1       3.080   2.987  18.075  0.00  0.00    +0.000 A 
ATOM      4  C   UNL     1       2.815   1.689  18.443  0.00  0.00    +0.000 A 
ATOM      5  N   UNL     1       1.618   1.725  19.105  0.00  0.00    +0.000 N 
ATOM      6  N   UNL     1       1.092   2.961  19.180  0.00  0.00    +0.000 NA
ATOM      7  C   UNL     1       1.984   3.720  18.538  0.00  0.00    +0.000 A 
ATOM      8  C   UNL     1       1.839   5.175  18.326  0.00  0.00    +0.000 C 
ATOM      9  C   UNL     1       3.209   5.827  17.996  0.00  0.00    +0.000 C 
ATOM     10  H   UNL     1       1.115   0.956  19.531  0.00  0.00    +0.000 HD
ENDROOT
BRANCH   1  12
ATOM     11  O   UNL     1       6.518   5.165  17.665  0.00  0.00    +0.000 OA
ATOM     12  S   UNL     1       5.634   5.689  16.648  0.00  0.00    +0.000 S 
ATOM     13  O   UNL     1       5.520   7.112  16.431  0.00  0.00    +0.000 OA
BRANCH  12  14
ATOM     14  C   UNL     1       6.140   4.983  15.077  0.00  0.00    +0.000 A 
ATOM     15  C   UNL     1       5.290   4.091  14.414  0.00  0.00    +0.000 A 
ATOM     16  C   UNL     1       5.682   3.571  13.171  0.00  0.00    +0.000 A 
ATOM     17  C   UNL     1       6.894   3.943  12.602  0.00  0.00    +0.000 A 
ATOM     18 CL   UNL     1       7.358   3.310  11.069  0.00  0.00    +0.000 Cl
ATOM     19  C   UNL     1       7.740   4.834  13.264  0.00  0.00    +0.000 A 
ATOM     20  C   UNL     1       7.363   5.357  14.507  0.00  0.00    +0.000 A 
ENDBRANCH  12  14
ENDBRANCH   1  12
BRANCH   9  21
ATOM     21  C   UNL     1       2.970   7.334  17.687  0.00  0.00    +0.000 C 
BRANCH  21  22
ATOM     22  C   UNL     1       2.179   8.250  18.607  0.00  0.00    +0.000 A 
ATOM     23  C   UNL     1       1.401   9.304  18.078  0.00  0.00    +0.000 A 
ATOM     24  C   UNL     1       0.450   9.965  18.863  0.00  0.00    +0.000 A 
ATOM     25  C   UNL     1       0.254   9.587  20.189  0.00  0.00    +0.000 A 
ATOM     26  C   UNL     1       1.055   8.592  20.741  0.00  0.00    +0.000 A 
ATOM     27  C   UNL     1       2.021   7.948  19.962  0.00  0.00    +0.000 A 
ENDBRANCH  21  22
ENDBRANCH   9  21
TORSDOF 4
ENDMDL
MODEL 6
REMARK VINA RESULT:      -7.3      0.983      1.278
REMARK  Name = 
REMARK  4 active torsions:
REMARK  status: ('A' for Active; 'I' for Inactive)
REMARK    1  A    between atoms: S_2  and  C_4
REMARK    2  A    between atoms: S_2  and  N_11
REMARK    3  A    between atoms: C_19  and  C_20
REMARK    4  A    between atoms: C_20  and  C_21
REMARK                            x       y       z     vdW  Elec       q    Type
REMARK                         _______ _______ _______ _____ _____    ______ ____
ROOT
ATOM      1  N   UNL     1       3.718   5.228  18.731  0.00  0.00    +0.000 NA
ATOM      2  C   UNL     1       4.231   3.998  19.464  0.00  0.00    +0.000 C 
ATOM      3  C   UNL     1       3.237   3.403  20.376  0.00  0.00    +0.000 A 
ATOM      4  C   UNL     1       3.257   2.210  21.061  0.00  0.00    +0.000 A 
ATOM      5  N   UNL     1       2.118   2.194  21.819  0.00  0.00    +0.000 N 
ATOM      6  N   UNL     1       1.362   3.296  21.660  0.00  0.00    +0.000 NA
ATOM      7  C   UNL     1       2.046   4.020  20.770  0.00  0.00    +0.000 A 
ATOM      8  C   UNL     1       1.602   5.327  20.244  0.00  0.00    +0.000 C 
ATOM      9  C   UNL     1       2.794   6.111  19.630  0.00  0.00    +0.000 C 
ATOM     10  H   UNL     1       1.804   1.477  22.461  0.00  0.00    +0.000 HD
ENDROOT
BRANCH   1  12
ATOM     11  O   UNL     1       6.218   5.772  18.986  0.00  0.00    +0.000 OA
ATOM     12  S   UNL     1       5.114   6.080  18.104  0.00  0.00    +0.000 S 
ATOM     13  O   UNL     1       4.761   7.450  17.815  0.00  0.00    +0.000 OA
BRANCH  12  14
ATOM     14  C   UNL     1       5.458   5.308  16.520  0.00  0.00    +0.000 A 
ATOM     15  C   UNL     1       5.825   3.960  16.472  0.00  0.00    +0.000 A 
ATOM     16  C   UNL     1       6.060   3.358  15.226  0.00  0.00    +0.000 A 
ATOM     17  C   UNL     1       5.920   4.091  14.053  0.00  0.00    +0.000 A 
ATOM     18 CL   UNL     1       6.197   3.340  12.529  0.00  0.00    +0.000 Cl
ATOM     19  C   UNL     1       5.553   5.437  14.102  0.00  0.00    +0.000 A 
ATOM     20  C   UNL     1       5.321   6.050  15.339  0.00  0.00    +0.000 A 
ENDBRANCH  12  14
ENDBRANCH   1  12
BRANCH   9  21
ATOM     21  C   UNL     1       2.243   7.427  19.008  0.00  0.00    +0.000 C 
BRANCH  21  22
ATOM     22  C   UNL     1       1.539   8.497  19.829  0.00  0.00    +0.000 A 
ATOM     23  C   UNL     1       0.898   9.584  19.195  0.00  0.00    +0.000 A 
ATOM     24  C   UNL     1       0.010  10.407  19.896  0.00  0.00    +0.000 A 
ATOM     25  C   UNL     1      -0.256  10.163  21.241  0.00  0.00    +0.000 A 
ATOM     26  C   UNL     1       0.415   9.133  21.894  0.00  0.00    +0.000 A 
ATOM     27  C   UNL     1       1.320   8.325  21.197  0.00  0.00    +0.000 A 
ENDBRANCH  21  22
ENDBRANCH   9  21
TORSDOF 4
ENDMDL
MODEL 7
REMARK VINA RESULT:      -7.3      3.394      5.984
REMARK  Name = 
REMARK  4 active torsions:
REMARK  status: ('A' for Active; 'I' for Inactive)
REMARK    1  A    between atoms: S_2  and  C_4
REMARK    2  A    between atoms: S_2  and  N_11
REMARK    3  A    between atoms: C_19  and  C_20
REMARK    4  A    between atoms: C_20  and  C_21
REMARK                            x       y       z     vdW  Elec       q    Type
REMARK                         _______ _______ _______ _____ _____    ______ ____
ROOT
ATOM      1  N   UNL     1       4.152   4.156  17.352  0.00  0.00    +0.000 NA
ATOM      2  C   UNL     1       4.807   3.835  16.017  0.00  0.00    +0.000 C 
ATOM      3  C   UNL     1       6.004   4.650  15.741  0.00  0.00    +0.000 A 
ATOM      4  C   UNL     1       6.952   4.536  14.750  0.00  0.00    +0.000 A 
ATOM      5  N   UNL     1       7.798   5.598  14.917  0.00  0.00    +0.000 N 
ATOM      6  N   UNL     1       7.461   6.384  15.956  0.00  0.00    +0.000 NA
ATOM      7  C   UNL     1       6.375   5.791  16.459  0.00  0.00    +0.000 A 
ATOM      8  C   UNL     1       5.640   6.271  17.646  0.00  0.00    +0.000 C 
ATOM      9  C   UNL     1       4.204   5.682  17.686  0.00  0.00    +0.000 C 
ATOM     10  H   UNL     1       8.608   5.846  14.362  0.00  0.00    +0.000 HD
ENDROOT
BRANCH   1  12
ATOM     11  O   UNL     1       2.616   2.227  16.625  0.00  0.00    +0.000 OA
ATOM     12  S   UNL     1       2.529   3.499  17.306  0.00  0.00    +0.000 S 
ATOM     13  O   UNL     1       1.604   4.514  16.859  0.00  0.00    +0.000 OA
BRANCH  12  14
ATOM     14  C   UNL     1       2.113   3.165  19.021  0.00  0.00    +0.000 A 
ATOM     15  C   UNL     1       0.797   3.341  19.460  0.00  0.00    +0.000 A 
ATOM     16  C   UNL     1       0.476   3.047  20.794  0.00  0.00    +0.000 A 
ATOM     17  C   UNL     1       1.452   2.577  21.665  0.00  0.00    +0.000 A 
ATOM     18 CL   UNL     1       1.044   2.204  23.296  0.00  0.00    +0.000 Cl
ATOM     19  C   UNL     1       2.765   2.401  21.225  0.00  0.00    +0.000 A 
ATOM     20  C   UNL     1       3.099   2.695  19.898  0.00  0.00    +0.000 A 
ENDBRANCH  12  14
ENDBRANCH   1  12
BRANCH   9  21
ATOM     21  C   UNL     1       3.522   6.145  19.007  0.00  0.00    +0.000 C 
BRANCH  21  22
ATOM     22  C   UNL     1       2.464   7.236  19.051  0.00  0.00    +0.000 A 
ATOM     23  C   UNL     1       1.859   7.602  20.274  0.00  0.00    +0.000 A 
ATOM     24  C   UNL     1       1.112   8.780  20.386  0.00  0.00    +0.000 A 
ATOM     25  C   UNL     1       0.954   9.615  19.282  0.00  0.00    +0.000 A 
ATOM     26  C   UNL     1       1.493   9.236  18.056  0.00  0.00    +0.000 A 
ATOM     27  C   UNL     1       2.220   8.047  17.940  0.00  0.00    +0.000 A 
ENDBRANCH  21  22
ENDBRANCH   9  21
TORSDOF 4
ENDMDL
MODEL 8
REMARK VINA RESULT:      -7.3      6.024      9.387
REMARK  Name = 
REMARK  4 active torsions:
REMARK  status: ('A' for Active; 'I' for Inactive)
REMARK    1  A    between atoms: S_2  and  C_4
REMARK    2  A    between atoms: S_2  and  N_11
REMARK    3  A    between atoms: C_19  and  C_20
REMARK    4  A    between atoms: C_20  and  C_21
REMARK                            x       y       z     vdW  Elec       q    Type
REMARK                         _______ _______ _______ _____ _____    ______ ____
ROOT
ATOM      1  N   UNL     1      -0.900  11.281  19.987  0.00  0.00    +0.000 NA
ATOM      2  C   UNL     1      -2.259  11.925  19.755  0.00  0.00    +0.000 C 
ATOM      3  C   UNL     1      -2.947  11.424  18.550  0.00  0.00    +0.000 A 
ATOM      4  C   UNL     1      -4.236  11.621  18.112  0.00  0.00    +0.000 A 
ATOM      5  N   UNL     1      -4.320  10.992  16.901  0.00  0.00    +0.000 N 
ATOM      6  N   UNL     1      -3.171  10.396  16.534  0.00  0.00    +0.000 NA
ATOM      7  C   UNL     1      -2.345  10.654  17.551  0.00  0.00    +0.000 A 
ATOM      8  C   UNL     1      -0.949  10.179  17.629  0.00  0.00    +0.000 C 
ATOM      9  C   UNL     1      -0.134  11.017  18.651  0.00  0.00    +0.000 C 
ATOM     10  H   UNL     1      -5.117  10.937  16.278  0.00  0.00    +0.000 HD
ENDROOT
BRANCH   1  12
ATOM     11  O   UNL     1       1.041  11.495  21.659  0.00  0.00    +0.000 OA
ATOM     12  S   UNL     1      -0.028  12.301  21.112  0.00  0.00    +0.000 S 
ATOM     13  O   UNL     1      -0.961  12.977  21.982  0.00  0.00    +0.000 OA
BRANCH  12  14
ATOM     14  C   UNL     1       0.724  13.577  20.098  0.00  0.00    +0.000 A 
ATOM     15  C   UNL     1      -0.076  14.583  19.546  0.00  0.00    +0.000 A 
ATOM     16  C   UNL     1       0.527  15.594  18.782  0.00  0.00    +0.000 A 
ATOM     17  C   UNL     1       1.903  15.601  18.583  0.00  0.00    +0.000 A 
ATOM     18 CL   UNL     1       2.634  16.854  17.656  0.00  0.00    +0.000 Cl
ATOM     19  C   UNL     1       2.700  14.596  19.135  0.00  0.00    +0.000 A 
ATOM     20  C   UNL     1       2.111  13.580  19.896  0.00  0.00    +0.000 A 
ENDBRANCH  12  14
ENDBRANCH   1  12
BRANCH   9  21
ATOM     21  C   UNL     1       1.293  10.404  18.759  0.00  0.00    +0.000 C 
BRANCH  21  22
ATOM     22  C   UNL     1       1.538   8.917  18.967  0.00  0.00    +0.000 A 
ATOM     23  C   UNL     1       2.124   8.135  17.946  0.00  0.00    +0.000 A 
ATOM     24  C   UNL     1       2.620   6.855  18.213  0.00  0.00    +0.000 A 
ATOM     25  C   UNL     1       2.544   6.329  19.501  0.00  0.00    +0.000 A 
ATOM     26  C   UNL     1       1.914   7.063  20.502  0.00  0.00    +0.000 A 
ATOM     27  C   UNL     1       1.398   8.334  20.228  0.00  0.00    +0.000 A 
ENDBRANCH  21  22
ENDBRANCH   9  21
TORSDOF 4
ENDMDL
MODEL 9
REMARK VINA RESULT:      -7.2      5.502      8.023
REMARK  Name = 
REMARK  4 active torsions:
REMARK  status: ('A' for Active; 'I' for Inactive)
REMARK    1  A    between atoms: S_2  and  C_4
REMARK    2  A    between atoms: S_2  and  N_11
REMARK    3  A    between atoms: C_19  and  C_20
REMARK    4  A    between atoms: C_20  and  C_21
REMARK                            x       y       z     vdW  Elec       q    Type
REMARK                         _______ _______ _______ _____ _____    ______ ____
ROOT
ATOM      1  N   UNL     1      -0.419  10.569  19.860  0.00  0.00    +0.000 NA
ATOM      2  C   UNL     1      -1.085   9.668  18.831  0.00  0.00    +0.000 C 
ATOM      3  C   UNL     1      -2.193  10.320  18.109  0.00  0.00    +0.000 A 
ATOM      4  C   UNL     1      -2.905   9.907  17.007  0.00  0.00    +0.000 A 
ATOM      5  N   UNL     1      -3.868  10.858  16.805  0.00  0.00    +0.000 N 
ATOM      6  N   UNL     1      -3.817  11.861  17.702  0.00  0.00    +0.000 NA
ATOM      7  C   UNL     1      -2.785  11.530  18.483  0.00  0.00    +0.000 A 
ATOM      8  C   UNL     1      -2.306  12.346  19.618  0.00  0.00    +0.000 C 
ATOM      9  C   UNL     1      -1.446  11.494  20.590  0.00  0.00    +0.000 C 
ATOM     10  H   UNL     1      -4.585  10.881  16.090  0.00  0.00    +0.000 HD
ENDROOT
BRANCH   1  12
ATOM     11  O   UNL     1      -0.461   8.682  21.605  0.00  0.00    +0.000 OA
ATOM     12  S   UNL     1       0.495   9.538  20.940  0.00  0.00    +0.000 S 
ATOM     13  O   UNL     1       1.427  10.336  21.703  0.00  0.00    +0.000 OA
BRANCH  12  14
ATOM     14  C   UNL     1       1.491   8.501  19.864  0.00  0.00    +0.000 A 
ATOM     15  C   UNL     1       1.901   8.989  18.620  0.00  0.00    +0.000 A 
ATOM     16  C   UNL     1       2.705   8.183  17.800  0.00  0.00    +0.000 A 
ATOM     17  C   UNL     1       3.097   6.918  18.225  0.00  0.00    +0.000 A 
ATOM     18 CL   UNL     1       4.097   5.942  17.217  0.00  0.00    +0.000 Cl
ATOM     19  C   UNL     1       2.688   6.433  19.468  0.00  0.00    +0.000 A 
ATOM     20  C   UNL     1       1.882   7.226  20.292  0.00  0.00    +0.000 A 
ENDBRANCH  12  14
ENDBRANCH   1  12
BRANCH   9  21
ATOM     21  C   UNL     1      -0.893  12.432  21.702  0.00  0.00    +0.000 C 
BRANCH  21  22
ATOM     22  C   UNL     1      -1.716  12.858  22.907  0.00  0.00    +0.000 A 
ATOM     23  C   UNL     1      -1.457  14.084  23.559  0.00  0.00    +0.000 A 
ATOM     24  C   UNL     1      -2.372  14.626  24.469  0.00  0.00    +0.000 A 
ATOM     25  C   UNL     1      -3.561  13.957  24.747  0.00  0.00    +0.000 A 
ATOM     26  C   UNL     1      -3.801  12.719  24.159  0.00  0.00    +0.000 A 
ATOM     27  C   UNL     1      -2.876  12.167  23.267  0.00  0.00    +0.000 A 
ENDBRANCH  21  22
ENDBRANCH   9  21
TORSDOF 4
ENDMDL
