MODEL 1
REMARK VINA RESULT:      -8.7      0.000      0.000
REMARK  Name = 
REMARK  11 active torsions:
REMARK  status: ('A' for Active; 'I' for Inactive)
REMARK    1  A    between atoms: C_1  and  N_2
REMARK    2  A    between atoms: N_5  and  C_6
REMARK    3  A    between atoms: C_6  and  C_7
REMARK    4  A    between atoms: C_7  and  C_8
REMARK    5  A    between atoms: C_7  and  C_9
REMARK    6  A    between atoms: C_7  and  C_10
REMARK    7  A    between atoms: C_14  and  C_15
REMARK    8  A    between atoms: C_18  and  C_19
REMARK    9  A    between atoms: C_18  and  C_20
REMARK   10  A    between atoms: C_21  and  N_22
REMARK   11  A    between atoms: C_23  and  C_25
REMARK                            x       y       z     vdW  Elec       q    Type
REMARK                         _______ _______ _______ _____ _____    ______ ____
ROOT
ATOM      1  C   UNL     1       2.660   6.731  19.364  0.00  0.00    +0.000 C 
ATOM      2  C   UNL     1       1.817   5.558  19.880  0.00  0.00    +0.000 C 
ATOM      3  C   UNL     1       2.704   4.321  20.001  0.00  0.00    +0.000 C 
ATOM      4  C   UNL     1       3.376   3.898  18.667  0.00  0.00    +0.000 C 
ATOM      5  C   UNL     1       2.325   3.254  17.739  0.00  0.00    +0.000 C 
ATOM      6  C   UNL     1       4.419   2.817  19.023  0.00  0.00    +0.000 C 
ATOM      7  C   UNL     1       4.064   5.141  18.000  0.00  0.00    +0.000 C 
ATOM      8  C   UNL     1       3.139   6.379  17.936  0.00  0.00    +0.000 C 
ENDROOT
BRANCH   1  17
ATOM      9  C   UNL     1       0.055   9.405  23.339  0.00  0.00    +0.000 C 
ATOM     10  N   UNL     1       0.128  10.022  22.050  0.00  0.00    +0.000 N 
ATOM     11  C   UNL     1      -0.410  11.287  21.725  0.00  0.00    +0.000 A 
ATOM     12  O   UNL     1      -0.988  12.052  22.474  0.00  0.00    +0.000 OA
ATOM     13  N   UNL     1      -0.127  11.495  20.356  0.00  0.00    +0.000 N 
ATOM     14  C   UNL     1       0.592  10.393  19.882  0.00  0.00    +0.000 A 
ATOM     15  C   UNL     1       1.112  10.137  18.635  0.00  0.00    +0.000 A 
ATOM     16  C   UNL     1       1.780   8.929  18.460  0.00  0.00    +0.000 A 
ATOM     17  C   UNL     1       1.933   8.054  19.544  0.00  0.00    +0.000 A 
ATOM     18  N   UNL     1       1.412   8.309  20.790  0.00  0.00    +0.000 NA
ATOM     19  C   UNL     1       0.754   9.477  20.916  0.00  0.00    +0.000 A 
BRANCH  13  20
ATOM     20  C   UNL     1      -0.428  12.685  19.598  0.00  0.00    +0.000 C 
BRANCH  20  21
ATOM     21  C   UNL     1       0.671  13.782  19.590  0.00  0.00    +0.000 C 
ATOM     22  C   UNL     1       1.585  13.616  18.368  0.00  0.00    +0.000 C 
ATOM     23  C   UNL     1      -0.042  15.153  19.559  0.00  0.00    +0.000 C 
ATOM     24  C   UNL     1       1.554  13.760  20.848  0.00  0.00    +0.000 C 
ENDBRANCH  20  21
ENDBRANCH  13  20
ENDBRANCH   1  17
BRANCH   7  25
ATOM     25  N   UNL     1       4.647   4.840  16.696  0.00  0.00    +0.000 N 
ATOM     26  C   UNL     1       5.757   5.516  16.219  0.00  0.00    +0.000 C 
ATOM     27  O   UNL     1       6.282   6.451  16.817  0.00  0.00    +0.000 OA
ATOM     28  H   UNL     1       4.358   4.020  16.169  0.00  0.00    +0.000 HD
BRANCH  26  29
ATOM     29  C   UNL     1       6.292   5.033  14.943  0.00  0.00    +0.000 A 
ATOM     30  C   UNL     1       5.644   4.043  14.125  0.00  0.00    +0.000 A 
ATOM     31  N   UNL     1       6.278   3.712  12.997  0.00  0.00    +0.000 NA
ATOM     32  S   UNL     1       7.666   4.647  13.006  0.00  0.00    +0.000 S 
ATOM     33  N   UNL     1       7.453   5.491  14.441  0.00  0.00    +0.000 NA
ENDBRANCH  26  29
ENDBRANCH   7  25
TORSDOF 5
ENDMDL
MODEL 2
REMARK VINA RESULT:      -8.3      0.604      1.067
REMARK  Name = 
REMARK  11 active torsions:
REMARK  status: ('A' for Active; 'I' for Inactive)
REMARK    1  A    between atoms: C_1  and  N_2
REMARK    2  A    between atoms: N_5  and  C_6
REMARK    3  A    between atoms: C_6  and  C_7
REMARK    4  A    between atoms: C_7  and  C_8
REMARK    5  A    between atoms: C_7  and  C_9
REMARK    6  A    between atoms: C_7  and  C_10
REMARK    7  A    between atoms: C_14  and  C_15
REMARK    8  A    between atoms: C_18  and  C_19
REMARK    9  A    between atoms: C_18  and  C_20
REMARK   10  A    between atoms: C_21  and  N_22
REMARK   11  A    between atoms: C_23  and  C_25
REMARK                            x       y       z     vdW  Elec       q    Type
REMARK                         _______ _______ _______ _____ _____    ______ ____
ROOT
ATOM      1  C   UNL     1       2.720   6.699  19.315  0.00  0.00    +0.000 C 
ATOM      2  C   UNL     1       1.926   5.561  19.968  0.00  0.00    +0.000 C 
ATOM      3  C   UNL     1       2.830   4.338  20.108  0.00  0.00    +0.000 C 
ATOM      4  C   UNL     1       3.410   3.828  18.761  0.00  0.00    +0.000 C 
ATOM      5  C   UNL     1       2.300   3.119  17.955  0.00  0.00    +0.000 C 
ATOM      6  C   UNL     1       4.484   2.778  19.113  0.00  0.00    +0.000 C 
ATOM      7  C   UNL     1       4.037   5.026  17.964  0.00  0.00    +0.000 C 
ATOM      8  C   UNL     1       3.100   6.253  17.884  0.00  0.00    +0.000 C 
ENDROOT
BRANCH   1  17
ATOM      9  C   UNL     1       0.060   9.461  23.192  0.00  0.00    +0.000 C 
ATOM     10  N   UNL     1       0.158  10.053  21.893  0.00  0.00    +0.000 N 
ATOM     11  C   UNL     1      -0.368  11.314  21.535  0.00  0.00    +0.000 A 
ATOM     12  O   UNL     1      -0.954  12.096  22.258  0.00  0.00    +0.000 OA
ATOM     13  N   UNL     1      -0.059  11.495  20.167  0.00  0.00    +0.000 N 
ATOM     14  C   UNL     1       0.662  10.381  19.727  0.00  0.00    +0.000 A 
ATOM     15  C   UNL     1       1.202  10.098  18.494  0.00  0.00    +0.000 A 
ATOM     16  C   UNL     1       1.868   8.884  18.354  0.00  0.00    +0.000 A 
ATOM     17  C   UNL     1       1.997   8.029  19.457  0.00  0.00    +0.000 A 
ATOM     18  N   UNL     1       1.455   8.310  20.689  0.00  0.00    +0.000 NA
ATOM     19  C   UNL     1       0.802   9.484  20.780  0.00  0.00    +0.000 A 
BRANCH  13  20
ATOM     20  C   UNL     1      -0.341  12.671  19.381  0.00  0.00    +0.000 C 
BRANCH  20  21
ATOM     21  C   UNL     1       0.789  13.734  19.319  0.00  0.00    +0.000 C 
ATOM     22  C   UNL     1       0.195  15.135  19.121  0.00  0.00    +0.000 C 
ATOM     23  C   UNL     1       1.575  13.655  20.647  0.00  0.00    +0.000 C 
ATOM     24  C   UNL     1       1.793  13.480  18.183  0.00  0.00    +0.000 C 
ENDBRANCH  20  21
ENDBRANCH  13  20
ENDBRANCH   1  17
BRANCH   7  25
ATOM     25  N   UNL     1       4.529   4.639  16.645  0.00  0.00    +0.000 N 
ATOM     26  C   UNL     1       5.476   5.391  15.970  0.00  0.00    +0.000 C 
ATOM     27  O   UNL     1       5.913   6.458  16.393  0.00  0.00    +0.000 OA
ATOM     28  H   UNL     1       4.315   3.727  16.253  0.00  0.00    +0.000 HD
BRANCH  26  29
ATOM     29  C   UNL     1       5.949   4.823  14.705  0.00  0.00    +0.000 A 
ATOM     30  C   UNL     1       7.222   5.135  14.112  0.00  0.00    +0.000 A 
ATOM     31  N   UNL     1       7.488   4.534  12.950  0.00  0.00    +0.000 NA
ATOM     32  S   UNL     1       6.131   3.605  12.638  0.00  0.00    +0.000 S 
ATOM     33  N   UNL     1       5.208   3.954  13.995  0.00  0.00    +0.000 NA
ENDBRANCH  26  29
ENDBRANCH   7  25
TORSDOF 5
ENDMDL
MODEL 3
REMARK VINA RESULT:      -8.2      1.756      2.874
REMARK  Name = 
REMARK  11 active torsions:
REMARK  status: ('A' for Active; 'I' for Inactive)
REMARK    1  A    between atoms: C_1  and  N_2
REMARK    2  A    between atoms: N_5  and  C_6
REMARK    3  A    between atoms: C_6  and  C_7
REMARK    4  A    between atoms: C_7  and  C_8
REMARK    5  A    between atoms: C_7  and  C_9
REMARK    6  A    between atoms: C_7  and  C_10
REMARK    7  A    between atoms: C_14  and  C_15
REMARK    8  A    between atoms: C_18  and  C_19
REMARK    9  A    between atoms: C_18  and  C_20
REMARK   10  A    between atoms: C_21  and  N_22
REMARK   11  A    between atoms: C_23  and  C_25
REMARK                            x       y       z     vdW  Elec       q    Type
REMARK                         _______ _______ _______ _____ _____    ______ ____
ROOT
ATOM      1  C   UNL     1       1.864   7.120  20.504  0.00  0.00    +0.000 C 
ATOM      2  C   UNL     1       0.814   6.014  20.665  0.00  0.00    +0.000 C 
ATOM      3  C   UNL     1       1.514   4.656  20.653  0.00  0.00    +0.000 C 
ATOM      4  C   UNL     1       2.330   4.382  19.361  0.00  0.00    +0.000 C 
ATOM      5  C   UNL     1       1.366   4.077  18.195  0.00  0.00    +0.000 C 
ATOM      6  C   UNL     1       3.165   3.112  19.629  0.00  0.00    +0.000 C 
ATOM      7  C   UNL     1       3.259   5.607  19.048  0.00  0.00    +0.000 C 
ATOM      8  C   UNL     1       2.513   6.960  19.110  0.00  0.00    +0.000 C 
ENDROOT
BRANCH   1  17
ATOM      9  C   UNL     1       1.901  12.167  18.438  0.00  0.00    +0.000 C 
ATOM     10  N   UNL     1       1.182  11.945  19.656  0.00  0.00    +0.000 N 
ATOM     11  C   UNL     1       0.460  12.932  20.363  0.00  0.00    +0.000 A 
ATOM     12  O   UNL     1       0.313  14.097  20.050  0.00  0.00    +0.000 OA
ATOM     13  N   UNL     1      -0.075  12.287  21.502  0.00  0.00    +0.000 N 
ATOM     14  C   UNL     1       0.293  10.939  21.459  0.00  0.00    +0.000 A 
ATOM     15  C   UNL     1       0.001   9.907  22.319  0.00  0.00    +0.000 A 
ATOM     16  C   UNL     1       0.526   8.655  22.013  0.00  0.00    +0.000 A 
ATOM     17  C   UNL     1       1.284   8.484  20.846  0.00  0.00    +0.000 A 
ATOM     18  N   UNL     1       1.577   9.515  19.987  0.00  0.00    +0.000 NA
ATOM     19  C   UNL     1       1.069  10.715  20.327  0.00  0.00    +0.000 A 
BRANCH  13  20
ATOM     20  C   UNL     1      -0.943  12.885  22.486  0.00  0.00    +0.000 C 
BRANCH  20  21
ATOM     21  C   UNL     1      -2.430  13.052  22.070  0.00  0.00    +0.000 C 
ATOM     22  C   UNL     1      -3.353  12.419  23.120  0.00  0.00    +0.000 C 
ATOM     23  C   UNL     1      -2.708  14.566  21.938  0.00  0.00    +0.000 C 
ATOM     24  C   UNL     1      -2.751  12.412  20.710  0.00  0.00    +0.000 C 
ENDBRANCH  20  21
ENDBRANCH  13  20
ENDBRANCH   1  17
BRANCH   7  25
ATOM     25  N   UNL     1       3.998   5.459  17.797  0.00  0.00    +0.000 N 
ATOM     26  C   UNL     1       5.352   5.172  17.779  0.00  0.00    +0.000 C 
ATOM     27  O   UNL     1       6.035   5.091  18.796  0.00  0.00    +0.000 OA
ATOM     28  H   UNL     1       3.513   5.402  16.906  0.00  0.00    +0.000 HD
BRANCH  26  29
ATOM     29  C   UNL     1       5.933   4.949  16.452  0.00  0.00    +0.000 A 
ATOM     30  C   UNL     1       7.180   5.518  16.016  0.00  0.00    +0.000 A 
ATOM     31  N   UNL     1       7.556   5.218  14.771  0.00  0.00    +0.000 NA
ATOM     32  S   UNL     1       6.329   4.240  14.188  0.00  0.00    +0.000 S 
ATOM     33  N   UNL     1       5.324   4.182  15.530  0.00  0.00    +0.000 NA
ENDBRANCH  26  29
ENDBRANCH   7  25
TORSDOF 5
ENDMDL
MODEL 4
REMARK VINA RESULT:      -8.2      1.685      2.270
REMARK  Name = 
REMARK  11 active torsions:
REMARK  status: ('A' for Active; 'I' for Inactive)
REMARK    1  A    between atoms: C_1  and  N_2
REMARK    2  A    between atoms: N_5  and  C_6
REMARK    3  A    between atoms: C_6  and  C_7
REMARK    4  A    between atoms: C_7  and  C_8
REMARK    5  A    between atoms: C_7  and  C_9
REMARK    6  A    between atoms: C_7  and  C_10
REMARK    7  A    between atoms: C_14  and  C_15
REMARK    8  A    between atoms: C_18  and  C_19
REMARK    9  A    between atoms: C_18  and  C_20
REMARK   10  A    between atoms: C_21  and  N_22
REMARK   11  A    between atoms: C_23  and  C_25
REMARK                            x       y       z     vdW  Elec       q    Type
REMARK                         _______ _______ _______ _____ _____    ______ ____
ROOT
ATOM      1  C   UNL     1       2.837   7.235  18.895  0.00  0.00    +0.000 C 
ATOM      2  C   UNL     1       2.477   6.037  19.783  0.00  0.00    +0.000 C 
ATOM      3  C   UNL     1       3.713   5.158  19.959  0.00  0.00    +0.000 C 
ATOM      4  C   UNL     1       4.301   4.626  18.624  0.00  0.00    +0.000 C 
ATOM      5  C   UNL     1       3.389   3.514  18.063  0.00  0.00    +0.000 C 
ATOM      6  C   UNL     1       5.666   3.991  18.966  0.00  0.00    +0.000 C 
ATOM      7  C   UNL     1       4.472   5.811  17.610  0.00  0.00    +0.000 C 
ATOM      8  C   UNL     1       3.209   6.694  17.495  0.00  0.00    +0.000 C 
ENDROOT
BRANCH   1  17
ATOM      9  C   UNL     1       0.008   9.900  22.721  0.00  0.00    +0.000 C 
ATOM     10  N   UNL     1      -0.259  10.210  21.350  0.00  0.00    +0.000 N 
ATOM     11  C   UNL     1      -1.192  11.172  20.903  0.00  0.00    +0.000 A 
ATOM     12  O   UNL     1      -1.887  11.894  21.592  0.00  0.00    +0.000 OA
ATOM     13  N   UNL     1      -1.144  11.141  19.491  0.00  0.00    +0.000 N 
ATOM     14  C   UNL     1      -0.180  10.204  19.103  0.00  0.00    +0.000 A 
ATOM     15  C   UNL     1       0.247   9.830  17.851  0.00  0.00    +0.000 A 
ATOM     16  C   UNL     1       1.230   8.847  17.781  0.00  0.00    +0.000 A 
ATOM     17  C   UNL     1       1.765   8.311  18.961  0.00  0.00    +0.000 A 
ATOM     18  N   UNL     1       1.336   8.684  20.212  0.00  0.00    +0.000 NA
ATOM     19  C   UNL     1       0.371   9.622  20.239  0.00  0.00    +0.000 A 
BRANCH  13  20
ATOM     20  C   UNL     1      -1.879  12.001  18.597  0.00  0.00    +0.000 C 
BRANCH  20  21
ATOM     21  C   UNL     1      -3.054  11.337  17.828  0.00  0.00    +0.000 C 
ATOM     22  C   UNL     1      -4.378  12.038  18.166  0.00  0.00    +0.000 C 
ATOM     23  C   UNL     1      -2.745  11.448  16.319  0.00  0.00    +0.000 C 
ATOM     24  C   UNL     1      -3.216   9.842  18.148  0.00  0.00    +0.000 C 
ENDBRANCH  20  21
ENDBRANCH  13  20
ENDBRANCH   1  17
BRANCH   7  25
ATOM     25  N   UNL     1       4.943   5.376  16.298  0.00  0.00    +0.000 N 
ATOM     26  C   UNL     1       6.229   5.641  15.859  0.00  0.00    +0.000 C 
ATOM     27  O   UNL     1       7.033   6.311  16.500  0.00  0.00    +0.000 OA
ATOM     28  H   UNL     1       4.399   4.728  15.734  0.00  0.00    +0.000 HD
BRANCH  26  29
ATOM     29  C   UNL     1       6.590   5.051  14.566  0.00  0.00    +0.000 A 
ATOM     30  C   UNL     1       5.883   3.956  13.959  0.00  0.00    +0.000 A 
ATOM     31  N   UNL     1       6.355   3.536  12.783  0.00  0.00    +0.000 NA
ATOM     32  S   UNL     1       7.672   4.524  12.484  0.00  0.00    +0.000 S 
ATOM     33  N   UNL     1       7.632   5.502  13.846  0.00  0.00    +0.000 NA
ENDBRANCH  26  29
ENDBRANCH   7  25
TORSDOF 5
ENDMDL
MODEL 5
REMARK VINA RESULT:      -8.0      1.515      2.512
REMARK  Name = 
REMARK  11 active torsions:
REMARK  status: ('A' for Active; 'I' for Inactive)
REMARK    1  A    between atoms: C_1  and  N_2
REMARK    2  A    between atoms: N_5  and  C_6
REMARK    3  A    between atoms: C_6  and  C_7
REMARK    4  A    between atoms: C_7  and  C_8
REMARK    5  A    between atoms: C_7  and  C_9
REMARK    6  A    between atoms: C_7  and  C_10
REMARK    7  A    between atoms: C_14  and  C_15
REMARK    8  A    between atoms: C_18  and  C_19
REMARK    9  A    between atoms: C_18  and  C_20
REMARK   10  A    between atoms: C_21  and  N_22
REMARK   11  A    between atoms: C_23  and  C_25
REMARK                            x       y       z     vdW  Elec       q    Type
REMARK                         _______ _______ _______ _____ _____    ______ ____
ROOT
ATOM      1  C   UNL     1       2.211   7.002  19.928  0.00  0.00    +0.000 C 
ATOM      2  C   UNL     1       1.506   5.765  20.499  0.00  0.00    +0.000 C 
ATOM      3  C   UNL     1       2.522   4.635  20.646  0.00  0.00    +0.000 C 
ATOM      4  C   UNL     1       3.217   4.239  19.315  0.00  0.00    +0.000 C 
ATOM      5  C   UNL     1       2.228   3.454  18.428  0.00  0.00    +0.000 C 
ATOM      6  C   UNL     1       4.375   3.289  19.688  0.00  0.00    +0.000 C 
ATOM      7  C   UNL     1       3.757   5.524  18.594  0.00  0.00    +0.000 C 
ATOM      8  C   UNL     1       2.704   6.653  18.505  0.00  0.00    +0.000 C 
ENDROOT
BRANCH   1  17
ATOM      9  C   UNL     1       2.209  12.161  18.160  0.00  0.00    +0.000 C 
ATOM     10  N   UNL     1       1.150  11.748  19.029  0.00  0.00    +0.000 N 
ATOM     11  C   UNL     1       0.085  12.572  19.456  0.00  0.00    +0.000 A 
ATOM     12  O   UNL     1      -0.117  13.730  19.145  0.00  0.00    +0.000 OA
ATOM     13  N   UNL     1      -0.713  11.773  20.307  0.00  0.00    +0.000 N 
ATOM     14  C   UNL     1      -0.154  10.492  20.361  0.00  0.00    +0.000 A 
ATOM     15  C   UNL     1      -0.572   9.364  21.028  0.00  0.00    +0.000 A 
ATOM     16  C   UNL     1       0.211   8.221  20.897  0.00  0.00    +0.000 A 
ATOM     17  C   UNL     1       1.348   8.245  20.077  0.00  0.00    +0.000 A 
ATOM     18  N   UNL     1       1.766   9.373  19.412  0.00  0.00    +0.000 NA
ATOM     19  C   UNL     1       0.996  10.464  19.579  0.00  0.00    +0.000 A 
BRANCH  13  20
ATOM     20  C   UNL     1      -1.952  12.170  20.929  0.00  0.00    +0.000 C 
BRANCH  20  21
ATOM     21  C   UNL     1      -1.826  12.864  22.313  0.00  0.00    +0.000 C 
ATOM     22  C   UNL     1      -2.823  14.026  22.422  0.00  0.00    +0.000 C 
ATOM     23  C   UNL     1      -2.107  11.798  23.395  0.00  0.00    +0.000 C 
ATOM     24  C   UNL     1      -0.419  13.421  22.582  0.00  0.00    +0.000 C 
ENDBRANCH  20  21
ENDBRANCH  13  20
ENDBRANCH   1  17
BRANCH   7  25
ATOM     25  N   UNL     1       4.351   5.241  17.291  0.00  0.00    +0.000 N 
ATOM     26  C   UNL     1       5.681   5.513  17.020  0.00  0.00    +0.000 C 
ATOM     27  O   UNL     1       6.430   6.067  17.820  0.00  0.00    +0.000 OA
ATOM     28  H   UNL     1       3.854   4.690  16.597  0.00  0.00    +0.000 HD
BRANCH  26  29
ATOM     29  C   UNL     1       6.161   5.078  15.705  0.00  0.00    +0.000 A 
ATOM     30  C   UNL     1       5.468   4.134  14.870  0.00  0.00    +0.000 A 
ATOM     31  N   UNL     1       6.053   3.842  13.707  0.00  0.00    +0.000 NA
ATOM     32  S   UNL     1       7.456   4.756  13.704  0.00  0.00    +0.000 S 
ATOM     33  N   UNL     1       7.310   5.540  15.180  0.00  0.00    +0.000 NA
ENDBRANCH  26  29
ENDBRANCH   7  25
TORSDOF 5
ENDMDL
MODEL 6
REMARK VINA RESULT:      -7.9      4.053     10.362
REMARK  Name = 
REMARK  11 active torsions:
REMARK  status: ('A' for Active; 'I' for Inactive)
REMARK    1  A    between atoms: C_1  and  N_2
REMARK    2  A    between atoms: N_5  and  C_6
REMARK    3  A    between atoms: C_6  and  C_7
REMARK    4  A    between atoms: C_7  and  C_8
REMARK    5  A    between atoms: C_7  and  C_9
REMARK    6  A    between atoms: C_7  and  C_10
REMARK    7  A    between atoms: C_14  and  C_15
REMARK    8  A    between atoms: C_18  and  C_19
REMARK    9  A    between atoms: C_18  and  C_20
REMARK   10  A    between atoms: C_21  and  N_22
REMARK   11  A    between atoms: C_23  and  C_25
REMARK                            x       y       z     vdW  Elec       q    Type
REMARK                         _______ _______ _______ _____ _____    ______ ____
ROOT
ATOM      1  C   UNL     1       1.133  10.047  19.732  0.00  0.00    +0.000 C 
ATOM      2  C   UNL     1       1.222  10.737  18.365  0.00  0.00    +0.000 C 
ATOM      3  C   UNL     1       0.981  12.234  18.545  0.00  0.00    +0.000 C 
ATOM      4  C   UNL     1      -0.392  12.576  19.185  0.00  0.00    +0.000 C 
ATOM      5  C   UNL     1      -1.515  12.355  18.149  0.00  0.00    +0.000 C 
ATOM      6  C   UNL     1      -0.356  14.081  19.528  0.00  0.00    +0.000 C 
ATOM      7  C   UNL     1      -0.608  11.712  20.477  0.00  0.00    +0.000 C 
ATOM      8  C   UNL     1      -0.314  10.211  20.253  0.00  0.00    +0.000 C 
ENDROOT
BRANCH   1  17
ATOM      9  C   UNL     1       4.358   7.107  16.462  0.00  0.00    +0.000 C 
ATOM     10  N   UNL     1       3.814   6.467  17.622  0.00  0.00    +0.000 N 
ATOM     11  C   UNL     1       4.063   5.129  18.001  0.00  0.00    +0.000 A 
ATOM     12  O   UNL     1       4.779   4.328  17.433  0.00  0.00    +0.000 OA
ATOM     13  N   UNL     1       3.323   4.913  19.186  0.00  0.00    +0.000 N 
ATOM     14  C   UNL     1       2.674   6.105  19.525  0.00  0.00    +0.000 A 
ATOM     15  C   UNL     1       1.862   6.406  20.593  0.00  0.00    +0.000 A 
ATOM     16  C   UNL     1       1.346   7.697  20.656  0.00  0.00    +0.000 A 
ATOM     17  C   UNL     1       1.693   8.635  19.674  0.00  0.00    +0.000 A 
ATOM     18  N   UNL     1       2.503   8.333  18.606  0.00  0.00    +0.000 NA
ATOM     19  C   UNL     1       2.967   7.070  18.567  0.00  0.00    +0.000 A 
BRANCH  13  20
ATOM     20  C   UNL     1       3.320   3.707  19.977  0.00  0.00    +0.000 C 
BRANCH  20  21
ATOM     21  C   UNL     1       2.202   2.681  19.647  0.00  0.00    +0.000 C 
ATOM     22  C   UNL     1       2.793   1.459  18.930  0.00  0.00    +0.000 C 
ATOM     23  C   UNL     1       1.543   2.267  20.981  0.00  0.00    +0.000 C 
ATOM     24  C   UNL     1       1.093   3.263  18.756  0.00  0.00    +0.000 C 
ENDBRANCH  20  21
ENDBRANCH  13  20
ENDBRANCH   1  17
BRANCH   7  25
ATOM     25  N   UNL     1      -1.917  11.917  21.089  0.00  0.00    +0.000 N 
ATOM     26  C   UNL     1      -2.061  12.137  22.448  0.00  0.00    +0.000 C 
ATOM     27  O   UNL     1      -1.120  12.108  23.237  0.00  0.00    +0.000 OA
ATOM     28  H   UNL     1      -2.745  12.065  20.519  0.00  0.00    +0.000 HD
BRANCH  26  29
ATOM     29  C   UNL     1      -3.424  12.430  22.901  0.00  0.00    +0.000 A 
ATOM     30  C   UNL     1      -4.412  13.093  22.093  0.00  0.00    +0.000 A 
ATOM     31  N   UNL     1      -5.601  13.290  22.669  0.00  0.00    +0.000 NA
ATOM     32  S   UNL     1      -5.435  12.643  24.203  0.00  0.00    +0.000 S 
ATOM     33  N   UNL     1      -3.851  12.094  24.131  0.00  0.00    +0.000 NA
ENDBRANCH  26  29
ENDBRANCH   7  25
TORSDOF 5
ENDMDL
MODEL 7
REMARK VINA RESULT:      -7.7      3.976     10.351
REMARK  Name = 
REMARK  11 active torsions:
REMARK  status: ('A' for Active; 'I' for Inactive)
REMARK    1  A    between atoms: C_1  and  N_2
REMARK    2  A    between atoms: N_5  and  C_6
REMARK    3  A    between atoms: C_6  and  C_7
REMARK    4  A    between atoms: C_7  and  C_8
REMARK    5  A    between atoms: C_7  and  C_9
REMARK    6  A    between atoms: C_7  and  C_10
REMARK    7  A    between atoms: C_14  and  C_15
REMARK    8  A    between atoms: C_18  and  C_19
REMARK    9  A    between atoms: C_18  and  C_20
REMARK   10  A    between atoms: C_21  and  N_22
REMARK   11  A    between atoms: C_23  and  C_25
REMARK                            x       y       z     vdW  Elec       q    Type
REMARK                         _______ _______ _______ _____ _____    ______ ____
ROOT
ATOM      1  C   UNL     1       1.242   9.971  19.740  0.00  0.00    +0.000 C 
ATOM      2  C   UNL     1       1.358  10.709  18.401  0.00  0.00    +0.000 C 
ATOM      3  C   UNL     1       1.125  12.200  18.631  0.00  0.00    +0.000 C 
ATOM      4  C   UNL     1      -0.255  12.531  19.261  0.00  0.00    +0.000 C 
ATOM      5  C   UNL     1      -1.363  12.356  18.201  0.00  0.00    +0.000 C 
ATOM      6  C   UNL     1      -0.212  14.022  19.658  0.00  0.00    +0.000 C 
ATOM      7  C   UNL     1      -0.497  11.623  20.517  0.00  0.00    +0.000 C 
ATOM      8  C   UNL     1      -0.211  10.128  20.245  0.00  0.00    +0.000 C 
ENDROOT
BRANCH   1  17
ATOM      9  C   UNL     1       4.491   7.121  16.414  0.00  0.00    +0.000 C 
ATOM     10  N   UNL     1       3.926   6.446  17.543  0.00  0.00    +0.000 N 
ATOM     11  C   UNL     1       4.158   5.094  17.878  0.00  0.00    +0.000 A 
ATOM     12  O   UNL     1       4.876   4.306  17.293  0.00  0.00    +0.000 OA
ATOM     13  N   UNL     1       3.400   4.842  19.045  0.00  0.00    +0.000 N 
ATOM     14  C   UNL     1       2.755   6.026  19.416  0.00  0.00    +0.000 A 
ATOM     15  C   UNL     1       1.930   6.296  20.482  0.00  0.00    +0.000 A 
ATOM     16  C   UNL     1       1.423   7.588  20.583  0.00  0.00    +0.000 A 
ATOM     17  C   UNL     1       1.792   8.557  19.640  0.00  0.00    +0.000 A 
ATOM     18  N   UNL     1       2.615   8.287  18.573  0.00  0.00    +0.000 NA
ATOM     19  C   UNL     1       3.070   7.022  18.497  0.00  0.00    +0.000 A 
BRANCH  13  20
ATOM     20  C   UNL     1       3.377   3.609  19.792  0.00  0.00    +0.000 C 
BRANCH  20  21
ATOM     21  C   UNL     1       2.159   2.680  19.533  0.00  0.00    +0.000 C 
ATOM     22  C   UNL     1       1.324   2.524  20.812  0.00  0.00    +0.000 C 
ATOM     23  C   UNL     1       1.319   3.318  18.405  0.00  0.00    +0.000 C 
ATOM     24  C   UNL     1       2.563   1.275  19.058  0.00  0.00    +0.000 C 
ENDBRANCH  20  21
ENDBRANCH  13  20
ENDBRANCH   1  17
BRANCH   7  25
ATOM     25  N   UNL     1      -1.814  11.817  21.117  0.00  0.00    +0.000 N 
ATOM     26  C   UNL     1      -1.965  12.231  22.429  0.00  0.00    +0.000 C 
ATOM     27  O   UNL     1      -1.020  12.397  23.194  0.00  0.00    +0.000 OA
ATOM     28  H   UNL     1      -2.656  11.810  20.546  0.00  0.00    +0.000 HD
BRANCH  26  29
ATOM     29  C   UNL     1      -3.344  12.483  22.857  0.00  0.00    +0.000 A 
ATOM     30  C   UNL     1      -3.838  12.200  24.178  0.00  0.00    +0.000 A 
ATOM     31  N   UNL     1      -5.125  12.483  24.394  0.00  0.00    +0.000 NA
ATOM     32  S   UNL     1      -5.672  13.085  22.931  0.00  0.00    +0.000 S 
ATOM     33  N   UNL     1      -4.263  13.004  22.025  0.00  0.00    +0.000 NA
ENDBRANCH  26  29
ENDBRANCH   7  25
TORSDOF 5
ENDMDL
MODEL 8
REMARK VINA RESULT:      -7.7      1.660      2.618
REMARK  Name = 
REMARK  11 active torsions:
REMARK  status: ('A' for Active; 'I' for Inactive)
REMARK    1  A    between atoms: C_1  and  N_2
REMARK    2  A    between atoms: N_5  and  C_6
REMARK    3  A    between atoms: C_6  and  C_7
REMARK    4  A    between atoms: C_7  and  C_8
REMARK    5  A    between atoms: C_7  and  C_9
REMARK    6  A    between atoms: C_7  and  C_10
REMARK    7  A    between atoms: C_14  and  C_15
REMARK    8  A    between atoms: C_18  and  C_19
REMARK    9  A    between atoms: C_18  and  C_20
REMARK   10  A    between atoms: C_21  and  N_22
REMARK   11  A    between atoms: C_23  and  C_25
REMARK                            x       y       z     vdW  Elec       q    Type
REMARK                         _______ _______ _______ _____ _____    ______ ____
ROOT
ATOM      1  C   UNL     1       2.211   6.901  20.221  0.00  0.00    +0.000 C 
ATOM      2  C   UNL     1       1.336   5.729  20.684  0.00  0.00    +0.000 C 
ATOM      3  C   UNL     1       2.199   4.473  20.785  0.00  0.00    +0.000 C 
ATOM      4  C   UNL     1       2.892   4.078  19.452  0.00  0.00    +0.000 C 
ATOM      5  C   UNL     1       1.849   3.482  18.483  0.00  0.00    +0.000 C 
ATOM      6  C   UNL     1       3.908   2.969  19.796  0.00  0.00    +0.000 C 
ATOM      7  C   UNL     1       3.614   5.329  18.838  0.00  0.00    +0.000 C 
ATOM      8  C   UNL     1       2.713   6.584  18.794  0.00  0.00    +0.000 C 
ENDROOT
BRANCH   1  17
ATOM      9  C   UNL     1      -1.264  10.102  17.496  0.00  0.00    +0.000 C 
ATOM     10  N   UNL     1      -0.809  10.543  18.779  0.00  0.00    +0.000 N 
ATOM     11  C   UNL     1      -1.205  11.743  19.410  0.00  0.00    +0.000 A 
ATOM     12  O   UNL     1      -1.995  12.566  18.990  0.00  0.00    +0.000 OA
ATOM     13  N   UNL     1      -0.510  11.788  20.641  0.00  0.00    +0.000 N 
ATOM     14  C   UNL     1       0.259  10.624  20.756  0.00  0.00    +0.000 A 
ATOM     15  C   UNL     1       1.083  10.197  21.770  0.00  0.00    +0.000 A 
ATOM     16  C   UNL     1       1.733   8.980  21.590  0.00  0.00    +0.000 A 
ATOM     17  C   UNL     1       1.503   8.231  20.428  0.00  0.00    +0.000 A 
ATOM     18  N   UNL     1       0.680   8.660  19.414  0.00  0.00    +0.000 NA
ATOM     19  C   UNL     1       0.084   9.850  19.614  0.00  0.00    +0.000 A 
BRANCH  13  20
ATOM     20  C   UNL     1      -0.648  12.801  21.657  0.00  0.00    +0.000 C 
BRANCH  20  21
ATOM     21  C   UNL     1      -1.827  12.612  22.650  0.00  0.00    +0.000 C 
ATOM     22  C   UNL     1      -1.754  11.228  23.311  0.00  0.00    +0.000 C 
ATOM     23  C   UNL     1      -1.727  13.731  23.710  0.00  0.00    +0.000 C 
ATOM     24  C   UNL     1      -3.205  12.744  21.981  0.00  0.00    +0.000 C 
ENDBRANCH  20  21
ENDBRANCH  13  20
ENDBRANCH   1  17
BRANCH   7  25
ATOM     25  N   UNL     1       4.220   5.057  17.537  0.00  0.00    +0.000 N 
ATOM     26  C   UNL     1       5.387   5.681  17.131  0.00  0.00    +0.000 C 
ATOM     27  O   UNL     1       5.952   6.546  17.794  0.00  0.00    +0.000 OA
ATOM     28  H   UNL     1       3.895   4.287  16.959  0.00  0.00    +0.000 HD
BRANCH  26  29
ATOM     29  C   UNL     1       5.930   5.229  15.847  0.00  0.00    +0.000 A 
ATOM     30  C   UNL     1       5.254   4.316  14.966  0.00  0.00    +0.000 A 
ATOM     31  N   UNL     1       5.900   4.004  13.840  0.00  0.00    +0.000 NA
ATOM     32  S   UNL     1       7.335   4.859  13.929  0.00  0.00    +0.000 S 
ATOM     33  N   UNL     1       7.128   5.646  15.397  0.00  0.00    +0.000 NA
ENDBRANCH  26  29
ENDBRANCH   7  25
TORSDOF 5
ENDMDL
MODEL 9
REMARK VINA RESULT:      -7.7      0.766      1.236
REMARK  Name = 
REMARK  11 active torsions:
REMARK  status: ('A' for Active; 'I' for Inactive)
REMARK    1  A    between atoms: C_1  and  N_2
REMARK    2  A    between atoms: N_5  and  C_6
REMARK    3  A    between atoms: C_6  and  C_7
REMARK    4  A    between atoms: C_7  and  C_8
REMARK    5  A    between atoms: C_7  and  C_9
REMARK    6  A    between atoms: C_7  and  C_10
REMARK    7  A    between atoms: C_14  and  C_15
REMARK    8  A    between atoms: C_18  and  C_19
REMARK    9  A    between atoms: C_18  and  C_20
REMARK   10  A    between atoms: C_21  and  N_22
REMARK   11  A    between atoms: C_23  and  C_25
REMARK                            x       y       z     vdW  Elec       q    Type
REMARK                         _______ _______ _______ _____ _____    ______ ____
ROOT
ATOM      1  C   UNL     1       2.601   6.643  19.462  0.00  0.00    +0.000 C 
ATOM      2  C   UNL     1       1.604   5.526  19.795  0.00  0.00    +0.000 C 
ATOM      3  C   UNL     1       2.340   4.188  19.806  0.00  0.00    +0.000 C 
ATOM      4  C   UNL     1       3.039   3.844  18.463  0.00  0.00    +0.000 C 
ATOM      5  C   UNL     1       1.979   3.438  17.417  0.00  0.00    +0.000 C 
ATOM      6  C   UNL     1       3.932   2.615  18.733  0.00  0.00    +0.000 C 
ATOM      7  C   UNL     1       3.897   5.067  17.982  0.00  0.00    +0.000 C 
ATOM      8  C   UNL     1       3.121   6.403  18.026  0.00  0.00    +0.000 C 
ENDROOT
BRANCH   1  17
ATOM      9  C   UNL     1       0.051   9.122  23.597  0.00  0.00    +0.000 C 
ATOM     10  N   UNL     1       0.278   9.873  22.399  0.00  0.00    +0.000 N 
ATOM     11  C   UNL     1      -0.092  11.223  22.207  0.00  0.00    +0.000 A 
ATOM     12  O   UNL     1      -0.629  11.957  23.013  0.00  0.00    +0.000 OA
ATOM     13  N   UNL     1       0.304  11.555  20.891  0.00  0.00    +0.000 N 
ATOM     14  C   UNL     1       0.925  10.439  20.322  0.00  0.00    +0.000 A 
ATOM     15  C   UNL     1       1.495  10.271  19.082  0.00  0.00    +0.000 A 
ATOM     16  C   UNL     1       2.035   9.021  18.794  0.00  0.00    +0.000 A 
ATOM     17  C   UNL     1       2.015   8.013  19.767  0.00  0.00    +0.000 A 
ATOM     18  N   UNL     1       1.444   8.180  21.006  0.00  0.00    +0.000 NA
ATOM     19  C   UNL     1       0.914   9.395  21.241  0.00  0.00    +0.000 A 
BRANCH  13  20
ATOM     20  C   UNL     1       0.189  12.853  20.273  0.00  0.00    +0.000 C 
BRANCH  20  21
ATOM     21  C   UNL     1      -1.144  13.134  19.527  0.00  0.00    +0.000 C 
ATOM     22  C   UNL     1      -2.142  13.834  20.460  0.00  0.00    +0.000 C 
ATOM     23  C   UNL     1      -0.816  14.026  18.309  0.00  0.00    +0.000 C 
ATOM     24  C   UNL     1      -1.814  11.860  18.988  0.00  0.00    +0.000 C 
ENDBRANCH  20  21
ENDBRANCH  13  20
ENDBRANCH   1  17
BRANCH   7  25
ATOM     25  N   UNL     1       4.520   4.850  16.679  0.00  0.00    +0.000 N 
ATOM     26  C   UNL     1       5.765   5.370  16.370  0.00  0.00    +0.000 C 
ATOM     27  O   UNL     1       6.397   6.098  17.130  0.00  0.00    +0.000 OA
ATOM     28  H   UNL     1       4.134   4.181  16.019  0.00  0.00    +0.000 HD
BRANCH  26  29
ATOM     29  C   UNL     1       6.305   4.982  15.064  0.00  0.00    +0.000 A 
ATOM     30  C   UNL     1       5.692   4.012  14.198  0.00  0.00    +0.000 A 
ATOM     31  N   UNL     1       6.326   3.771  13.048  0.00  0.00    +0.000 NA
ATOM     32  S   UNL     1       7.672   4.763  13.096  0.00  0.00    +0.000 S 
ATOM     33  N   UNL     1       7.440   5.517  14.577  0.00  0.00    +0.000 NA
ENDBRANCH  26  29
ENDBRANCH   7  25
TORSDOF 5
ENDMDL
