MODEL 1
REMARK VINA RESULT:      -7.0      0.000      0.000
REMARK  Name = 
REMARK  10 active torsions:
REMARK  status: ('A' for Active; 'I' for Inactive)
REMARK    1  A    between atoms: C_1  and  O_2
REMARK    2  A    between atoms: O_2  and  C_3
REMARK    3  A    between atoms: C_8  and  O_9
REMARK    4  A    between atoms: O_9  and  C_10
REMARK    5  A    between atoms: C_13  and  C_14
REMARK    6  A    between atoms: C_14  and  O_16
REMARK    7  A    between atoms: O_16  and  C_17
REMARK    8  A    between atoms: C_17  and  C_18
REMARK    9  A    between atoms: N_20  and  C_21
REMARK   10  A    between atoms: C_21  and  C_22
REMARK                            x       y       z     vdW  Elec       q    Type
REMARK                         _______ _______ _______ _____ _____    ______ ____
ROOT
ATOM      1  C   UNL     1       0.586  10.413  21.498  0.00  0.00    +0.000 A 
ATOM      2  C   UNL     1       0.874   9.036  21.505  0.00  0.00    +0.000 A 
ATOM      3  C   UNL     1       1.362   8.439  20.370  0.00  0.00    +0.000 A 
ATOM      4  C   UNL     1       1.515   9.185  19.217  0.00  0.00    +0.000 A 
ATOM      5  C   UNL     1       1.192  10.530  19.140  0.00  0.00    +0.000 A 
ATOM      6  C   UNL     1       0.721  11.168  20.297  0.00  0.00    +0.000 A 
ATOM      7  C   UNL     1       2.067   8.312  18.196  0.00  0.00    +0.000 C 
ATOM      8  O   UNL     1       2.307   8.669  17.050  0.00  0.00    +0.000 OA
ATOM      9  C   UNL     1       2.304   6.936  18.770  0.00  0.00    +0.000 C 
ATOM     10  C   UNL     1       1.770   7.008  20.207  0.00  0.00    +0.000 C 
ENDROOT
BRANCH   1  12
ATOM     11  C   UNL     1      -1.090  10.555  23.146  0.00  0.00    +0.000 C 
ATOM     12  O   UNL     1       0.158  11.046  22.646  0.00  0.00    +0.000 OA
ENDBRANCH   1  12
BRANCH   6  13
ATOM     13  O   UNL     1       0.399  12.504  20.342  0.00  0.00    +0.000 OA
ATOM     14  C   UNL     1       1.482  13.439  20.337  0.00  0.00    +0.000 C 
ENDBRANCH   6  13
BRANCH   9  15
ATOM     15  C   UNL     1       3.762   6.573  18.730  0.00  0.00    +0.000 C 
ATOM     16  O   UNL     1       4.356   5.960  19.607  0.00  0.00    +0.000 OA
BRANCH  15  17
ATOM     17  O   UNL     1       4.341   7.051  17.597  0.00  0.00    +0.000 OA
BRANCH  17  18
ATOM     18  C   UNL     1       5.307   6.158  17.008  0.00  0.00    +0.000 C 
BRANCH  18  19
ATOM     19  C   UNL     1       4.699   4.899  16.476  0.00  0.00    +0.000 C 
ATOM     20  C   UNL     1       5.536   3.852  15.789  0.00  0.00    +0.000 C 
ATOM     21  N   UNL     1       5.024   3.626  17.140  0.00  0.00    +0.000 NA
BRANCH  21  22
ATOM     22  C   UNL     1       3.908   2.670  17.185  0.00  0.00    +0.000 C 
BRANCH  22  23
ATOM     23  C   UNL     1       3.065   2.872  18.428  0.00  0.00    +0.000 A 
ATOM     24  C   UNL     1       1.738   3.319  18.335  0.00  0.00    +0.000 A 
ATOM     25  C   UNL     1       0.974   3.524  19.487  0.00  0.00    +0.000 A 
ATOM     26  C   UNL     1       1.526   3.284  20.745  0.00  0.00    +0.000 A 
ATOM     27  C   UNL     1       2.841   2.839  20.851  0.00  0.00    +0.000 A 
ATOM     28  C   UNL     1       3.608   2.639  19.700  0.00  0.00    +0.000 A 
ENDBRANCH  22  23
ENDBRANCH  21  22
ENDBRANCH  18  19
ENDBRANCH  17  18
ENDBRANCH  15  17
ENDBRANCH   9  15
TORSDOF 8
ENDMDL
MODEL 2
REMARK VINA RESULT:      -6.9      3.154      7.829
REMARK  Name = 
REMARK  10 active torsions:
REMARK  status: ('A' for Active; 'I' for Inactive)
REMARK    1  A    between atoms: C_1  and  O_2
REMARK    2  A    between atoms: O_2  and  C_3
REMARK    3  A    between atoms: C_8  and  O_9
REMARK    4  A    between atoms: O_9  and  C_10
REMARK    5  A    between atoms: C_13  and  C_14
REMARK    6  A    between atoms: C_14  and  O_16
REMARK    7  A    between atoms: O_16  and  C_17
REMARK    8  A    between atoms: C_17  and  C_18
REMARK    9  A    between atoms: N_20  and  C_21
REMARK   10  A    between atoms: C_21  and  C_22
REMARK                            x       y       z     vdW  Elec       q    Type
REMARK                         _______ _______ _______ _____ _____    ______ ____
ROOT
ATOM      1  C   UNL     1       5.932   4.963  16.140  0.00  0.00    +0.000 A 
ATOM      2  C   UNL     1       4.774   4.171  16.035  0.00  0.00    +0.000 A 
ATOM      3  C   UNL     1       4.295   3.519  17.142  0.00  0.00    +0.000 A 
ATOM      4  C   UNL     1       4.984   3.603  18.337  0.00  0.00    +0.000 A 
ATOM      5  C   UNL     1       6.160   4.321  18.480  0.00  0.00    +0.000 A 
ATOM      6  C   UNL     1       6.652   5.021  17.368  0.00  0.00    +0.000 A 
ATOM      7  C   UNL     1       4.242   2.847  19.330  0.00  0.00    +0.000 C 
ATOM      8  O   UNL     1       4.599   2.714  20.493  0.00  0.00    +0.000 OA
ATOM      9  C   UNL     1       2.984   2.283  18.712  0.00  0.00    +0.000 C 
ATOM     10  C   UNL     1       3.057   2.681  17.232  0.00  0.00    +0.000 C 
ENDROOT
BRANCH   1  12
ATOM     11  C   UNL     1       6.872   4.860  13.983  0.00  0.00    +0.000 C 
ATOM     12  O   UNL     1       6.393   5.679  15.055  0.00  0.00    +0.000 OA
ENDBRANCH   1  12
BRANCH   6  13
ATOM     13  O   UNL     1       7.792   5.789  17.405  0.00  0.00    +0.000 OA
ATOM     14  C   UNL     1       7.785   6.931  18.266  0.00  0.00    +0.000 C 
ENDBRANCH   6  13
BRANCH   9  15
ATOM     15  C   UNL     1       1.756   2.831  19.382  0.00  0.00    +0.000 C 
ATOM     16  O   UNL     1       0.606   2.560  19.065  0.00  0.00    +0.000 OA
BRANCH  15  17
ATOM     17  O   UNL     1       2.098   3.701  20.369  0.00  0.00    +0.000 OA
BRANCH  17  18
ATOM     18  C   UNL     1       1.248   4.860  20.453  0.00  0.00    +0.000 C 
BRANCH  18  19
ATOM     19  C   UNL     1       2.001   6.128  20.702  0.00  0.00    +0.000 C 
ATOM     20  C   UNL     1       2.193   7.155  19.616  0.00  0.00    +0.000 C 
ATOM     21  N   UNL     1       1.258   7.398  20.714  0.00  0.00    +0.000 NA
BRANCH  21  22
ATOM     22  C   UNL     1       1.753   8.376  21.693  0.00  0.00    +0.000 C 
BRANCH  22  23
ATOM     23  C   UNL     1       0.752   9.493  21.906  0.00  0.00    +0.000 A 
ATOM     24  C   UNL     1      -0.113   9.486  23.010  0.00  0.00    +0.000 A 
ATOM     25  C   UNL     1      -1.049  10.509  23.187  0.00  0.00    +0.000 A 
ATOM     26  C   UNL     1      -1.131  11.550  22.264  0.00  0.00    +0.000 A 
ATOM     27  C   UNL     1      -0.277  11.570  21.163  0.00  0.00    +0.000 A 
ATOM     28  C   UNL     1       0.655  10.545  20.983  0.00  0.00    +0.000 A 
ENDBRANCH  22  23
ENDBRANCH  21  22
ENDBRANCH  18  19
ENDBRANCH  17  18
ENDBRANCH  15  17
ENDBRANCH   9  15
TORSDOF 8
ENDMDL
MODEL 3
REMARK VINA RESULT:      -6.7      3.086      4.922
REMARK  Name = 
REMARK  10 active torsions:
REMARK  status: ('A' for Active; 'I' for Inactive)
REMARK    1  A    between atoms: C_1  and  O_2
REMARK    2  A    between atoms: O_2  and  C_3
REMARK    3  A    between atoms: C_8  and  O_9
REMARK    4  A    between atoms: O_9  and  C_10
REMARK    5  A    between atoms: C_13  and  C_14
REMARK    6  A    between atoms: C_14  and  O_16
REMARK    7  A    between atoms: O_16  and  C_17
REMARK    8  A    between atoms: C_17  and  C_18
REMARK    9  A    between atoms: N_20  and  C_21
REMARK   10  A    between atoms: C_21  and  C_22
REMARK                            x       y       z     vdW  Elec       q    Type
REMARK                         _______ _______ _______ _____ _____    ______ ____
ROOT
ATOM      1  C   UNL     1      -2.701  10.746  17.210  0.00  0.00    +0.000 A 
ATOM      2  C   UNL     1      -1.502  10.038  17.009  0.00  0.00    +0.000 A 
ATOM      3  C   UNL     1      -0.555  10.011  18.001  0.00  0.00    +0.000 A 
ATOM      4  C   UNL     1      -0.765  10.723  19.167  0.00  0.00    +0.000 A 
ATOM      5  C   UNL     1      -1.901  11.483  19.391  0.00  0.00    +0.000 A 
ATOM      6  C   UNL     1      -2.897  11.500  18.404  0.00  0.00    +0.000 A 
ATOM      7  C   UNL     1       0.375  10.492  20.037  0.00  0.00    +0.000 C 
ATOM      8  O   UNL     1       0.500  10.997  21.144  0.00  0.00    +0.000 OA
ATOM      9  C   UNL     1       1.342   9.541  19.374  0.00  0.00    +0.000 C 
ATOM     10  C   UNL     1       0.747   9.272  17.986  0.00  0.00    +0.000 C 
ENDROOT
BRANCH   1  12
ATOM     11  C   UNL     1      -3.214  10.496  14.925  0.00  0.00    +0.000 C 
ATOM     12  O   UNL     1      -3.694  10.732  16.253  0.00  0.00    +0.000 OA
ENDBRANCH   1  12
BRANCH   6  13
ATOM     13  O   UNL     1      -4.075  12.195  18.534  0.00  0.00    +0.000 OA
ATOM     14  C   UNL     1      -5.231  11.455  18.935  0.00  0.00    +0.000 C 
ENDBRANCH   6  13
BRANCH   9  15
ATOM     15  C   UNL     1       1.497   8.278  20.173  0.00  0.00    +0.000 C 
ATOM     16  O   UNL     1       0.926   8.042  21.229  0.00  0.00    +0.000 OA
BRANCH  15  17
ATOM     17  O   UNL     1       2.390   7.443  19.578  0.00  0.00    +0.000 OA
BRANCH  17  18
ATOM     18  C   UNL     1       2.018   6.052  19.626  0.00  0.00    +0.000 C 
BRANCH  18  19
ATOM     19  C   UNL     1       3.137   5.155  20.049  0.00  0.00    +0.000 C 
ATOM     20  C   UNL     1       2.953   3.663  20.152  0.00  0.00    +0.000 C 
ATOM     21  N   UNL     1       3.724   4.244  19.054  0.00  0.00    +0.000 NA
BRANCH  21  22
ATOM     22  C   UNL     1       5.174   4.051  19.197  0.00  0.00    +0.000 C 
BRANCH  22  23
ATOM     23  C   UNL     1       5.942   5.221  18.617  0.00  0.00    +0.000 A 
ATOM     24  C   UNL     1       5.432   5.954  17.535  0.00  0.00    +0.000 A 
ATOM     25  C   UNL     1       6.158   7.018  16.992  0.00  0.00    +0.000 A 
ATOM     26  C   UNL     1       7.400   7.363  17.523  0.00  0.00    +0.000 A 
ATOM     27  C   UNL     1       7.917   6.644  18.599  0.00  0.00    +0.000 A 
ATOM     28  C   UNL     1       7.195   5.577  19.140  0.00  0.00    +0.000 A 
ENDBRANCH  22  23
ENDBRANCH  21  22
ENDBRANCH  18  19
ENDBRANCH  17  18
ENDBRANCH  15  17
ENDBRANCH   9  15
TORSDOF 8
ENDMDL
MODEL 4
REMARK VINA RESULT:      -6.7      2.276      4.851
REMARK  Name = 
REMARK  10 active torsions:
REMARK  status: ('A' for Active; 'I' for Inactive)
REMARK    1  A    between atoms: C_1  and  O_2
REMARK    2  A    between atoms: O_2  and  C_3
REMARK    3  A    between atoms: C_8  and  O_9
REMARK    4  A    between atoms: O_9  and  C_10
REMARK    5  A    between atoms: C_13  and  C_14
REMARK    6  A    between atoms: C_14  and  O_16
REMARK    7  A    between atoms: O_16  and  C_17
REMARK    8  A    between atoms: C_17  and  C_18
REMARK    9  A    between atoms: N_20  and  C_21
REMARK   10  A    between atoms: C_21  and  C_22
REMARK                            x       y       z     vdW  Elec       q    Type
REMARK                         _______ _______ _______ _____ _____    ______ ____
ROOT
ATOM      1  C   UNL     1       1.675   7.780  20.388  0.00  0.00    +0.000 A 
ATOM      2  C   UNL     1       1.654   6.471  20.902  0.00  0.00    +0.000 A 
ATOM      3  C   UNL     1       1.979   5.416  20.087  0.00  0.00    +0.000 A 
ATOM      4  C   UNL     1       2.272   5.646  18.756  0.00  0.00    +0.000 A 
ATOM      5  C   UNL     1       2.250   6.908  18.186  0.00  0.00    +0.000 A 
ATOM      6  C   UNL     1       1.950   8.005  19.008  0.00  0.00    +0.000 A 
ATOM      7  C   UNL     1       2.602   4.368  18.150  0.00  0.00    +0.000 C 
ATOM      8  O   UNL     1       2.894   4.229  16.970  0.00  0.00    +0.000 OA
ATOM      9  C   UNL     1       2.542   3.275  19.190  0.00  0.00    +0.000 C 
ATOM     10  C   UNL     1       2.061   3.972  20.470  0.00  0.00    +0.000 C 
ENDROOT
BRANCH   1  12
ATOM     11  C   UNL     1       0.044   8.969  21.603  0.00  0.00    +0.000 C 
ATOM     12  O   UNL     1       1.415   8.860  21.207  0.00  0.00    +0.000 OA
ENDBRANCH   1  12
BRANCH   6  13
ATOM     13  O   UNL     1       1.930   9.303  18.555  0.00  0.00    +0.000 OA
ATOM     14  C   UNL     1       0.732   9.755  17.918  0.00  0.00    +0.000 C 
ENDBRANCH   6  13
BRANCH   9  15
ATOM     15  C   UNL     1       3.883   2.624  19.374  0.00  0.00    +0.000 C 
ATOM     16  O   UNL     1       4.118   1.711  20.153  0.00  0.00    +0.000 OA
BRANCH  15  17
ATOM     17  O   UNL     1       4.814   3.216  18.578  0.00  0.00    +0.000 OA
BRANCH  17  18
ATOM     18  C   UNL     1       5.640   4.181  19.256  0.00  0.00    +0.000 C 
BRANCH  18  19
ATOM     19  C   UNL     1       6.339   5.119  18.324  0.00  0.00    +0.000 C 
ATOM     20  C   UNL     1       7.792   4.936  17.969  0.00  0.00    +0.000 C 
ATOM     21  N   UNL     1       6.743   4.623  16.999  0.00  0.00    +0.000 NA
BRANCH  21  22
ATOM     22  C   UNL     1       6.630   5.619  15.924  0.00  0.00    +0.000 C 
BRANCH  22  23
ATOM     23  C   UNL     1       6.576   4.953  14.564  0.00  0.00    +0.000 A 
ATOM     24  C   UNL     1       5.533   4.075  14.231  0.00  0.00    +0.000 A 
ATOM     25  C   UNL     1       5.503   3.448  12.983  0.00  0.00    +0.000 A 
ATOM     26  C   UNL     1       6.512   3.690  12.053  0.00  0.00    +0.000 A 
ATOM     27  C   UNL     1       7.553   4.560  12.370  0.00  0.00    +0.000 A 
ATOM     28  C   UNL     1       7.588   5.184  13.619  0.00  0.00    +0.000 A 
ENDBRANCH  22  23
ENDBRANCH  21  22
ENDBRANCH  18  19
ENDBRANCH  17  18
ENDBRANCH  15  17
ENDBRANCH   9  15
TORSDOF 8
ENDMDL
MODEL 5
REMARK VINA RESULT:      -6.7      3.318      7.501
REMARK  Name = 
REMARK  10 active torsions:
REMARK  status: ('A' for Active; 'I' for Inactive)
REMARK    1  A    between atoms: C_1  and  O_2
REMARK    2  A    between atoms: O_2  and  C_3
REMARK    3  A    between atoms: C_8  and  O_9
REMARK    4  A    between atoms: O_9  and  C_10
REMARK    5  A    between atoms: C_13  and  C_14
REMARK    6  A    between atoms: C_14  and  O_16
REMARK    7  A    between atoms: O_16  and  C_17
REMARK    8  A    between atoms: C_17  and  C_18
REMARK    9  A    between atoms: N_20  and  C_21
REMARK   10  A    between atoms: C_21  and  C_22
REMARK                            x       y       z     vdW  Elec       q    Type
REMARK                         _______ _______ _______ _____ _____    ______ ____
ROOT
ATOM      1  C   UNL     1       5.714   4.979  16.296  0.00  0.00    +0.000 A 
ATOM      2  C   UNL     1       4.676   4.042  16.141  0.00  0.00    +0.000 A 
ATOM      3  C   UNL     1       4.269   3.295  17.217  0.00  0.00    +0.000 A 
ATOM      4  C   UNL     1       4.918   3.432  18.429  0.00  0.00    +0.000 A 
ATOM      5  C   UNL     1       5.983   4.297  18.620  0.00  0.00    +0.000 A 
ATOM      6  C   UNL     1       6.396   5.093  17.542  0.00  0.00    +0.000 A 
ATOM      7  C   UNL     1       4.266   2.551  19.382  0.00  0.00    +0.000 C 
ATOM      8  O   UNL     1       4.617   2.428  20.547  0.00  0.00    +0.000 OA
ATOM      9  C   UNL     1       3.109   1.843  18.718  0.00  0.00    +0.000 C 
ATOM     10  C   UNL     1       3.155   2.295  17.252  0.00  0.00    +0.000 C 
ENDROOT
BRANCH   1  12
ATOM     11  C   UNL     1       6.928   5.129  14.283  0.00  0.00    +0.000 C 
ATOM     12  O   UNL     1       6.094   5.786  15.244  0.00  0.00    +0.000 OA
ENDBRANCH   1  12
BRANCH   6  13
ATOM     13  O   UNL     1       7.420   6.006  17.628  0.00  0.00    +0.000 OA
ATOM     14  C   UNL     1       7.931   6.297  18.933  0.00  0.00    +0.000 C 
ENDBRANCH   6  13
BRANCH   9  15
ATOM     15  C   UNL     1       1.805   2.198  19.375  0.00  0.00    +0.000 C 
ATOM     16  O   UNL     1       0.719   2.219  18.812  0.00  0.00    +0.000 OA
BRANCH  15  17
ATOM     17  O   UNL     1       2.002   2.528  20.679  0.00  0.00    +0.000 OA
BRANCH  17  18
ATOM     18  C   UNL     1       1.291   3.708  21.101  0.00  0.00    +0.000 C 
BRANCH  18  19
ATOM     19  C   UNL     1       2.035   4.976  20.824  0.00  0.00    +0.000 C 
ATOM     20  C   UNL     1       2.141   5.537  19.430  0.00  0.00    +0.000 C 
ATOM     21  N   UNL     1       1.270   6.167  20.422  0.00  0.00    +0.000 NA
BRANCH  21  22
ATOM     22  C   UNL     1       1.806   7.431  20.945  0.00  0.00    +0.000 C 
BRANCH  22  23
ATOM     23  C   UNL     1       1.173   8.622  20.254  0.00  0.00    +0.000 A 
ATOM     24  C   UNL     1       0.086   9.297  20.831  0.00  0.00    +0.000 A 
ATOM     25  C   UNL     1      -0.506  10.380  20.176  0.00  0.00    +0.000 A 
ATOM     26  C   UNL     1      -0.020  10.802  18.939  0.00  0.00    +0.000 A 
ATOM     27  C   UNL     1       1.059  10.142  18.357  0.00  0.00    +0.000 A 
ATOM     28  C   UNL     1       1.649   9.055  19.007  0.00  0.00    +0.000 A 
ENDBRANCH  22  23
ENDBRANCH  21  22
ENDBRANCH  18  19
ENDBRANCH  17  18
ENDBRANCH  15  17
ENDBRANCH   9  15
TORSDOF 8
ENDMDL
MODEL 6
REMARK VINA RESULT:      -6.7      3.388      5.248
REMARK  Name = 
REMARK  10 active torsions:
REMARK  status: ('A' for Active; 'I' for Inactive)
REMARK    1  A    between atoms: C_1  and  O_2
REMARK    2  A    between atoms: O_2  and  C_3
REMARK    3  A    between atoms: C_8  and  O_9
REMARK    4  A    between atoms: O_9  and  C_10
REMARK    5  A    between atoms: C_13  and  C_14
REMARK    6  A    between atoms: C_14  and  O_16
REMARK    7  A    between atoms: O_16  and  C_17
REMARK    8  A    between atoms: C_17  and  C_18
REMARK    9  A    between atoms: N_20  and  C_21
REMARK   10  A    between atoms: C_21  and  C_22
REMARK                            x       y       z     vdW  Elec       q    Type
REMARK                         _______ _______ _______ _____ _____    ______ ____
ROOT
ATOM      1  C   UNL     1      -3.300  10.719  16.862  0.00  0.00    +0.000 A 
ATOM      2  C   UNL     1      -2.037  10.100  16.859  0.00  0.00    +0.000 A 
ATOM      3  C   UNL     1      -1.209  10.244  17.944  0.00  0.00    +0.000 A 
ATOM      4  C   UNL     1      -1.602  11.037  19.005  0.00  0.00    +0.000 A 
ATOM      5  C   UNL     1      -2.810  11.715  19.032  0.00  0.00    +0.000 A 
ATOM      6  C   UNL     1      -3.686  11.558  17.947  0.00  0.00    +0.000 A 
ATOM      7  C   UNL     1      -0.555  10.983  20.009  0.00  0.00    +0.000 C 
ATOM      8  O   UNL     1      -0.593  11.595  21.068  0.00  0.00    +0.000 OA
ATOM      9  C   UNL     1       0.550  10.062  19.549  0.00  0.00    +0.000 C 
ATOM     10  C   UNL     1       0.138   9.621  18.139  0.00  0.00    +0.000 C 
ENDROOT
BRANCH   1  12
ATOM     11  C   UNL     1      -3.531  10.217  14.572  0.00  0.00    +0.000 C 
ATOM     12  O   UNL     1      -4.175  10.535  15.811  0.00  0.00    +0.000 OA
ENDBRANCH   1  12
BRANCH   6  13
ATOM     13  O   UNL     1      -4.921  12.159  17.884  0.00  0.00    +0.000 OA
ATOM     14  C   UNL     1      -5.521  12.557  19.120  0.00  0.00    +0.000 C 
ENDBRANCH   6  13
BRANCH   9  15
ATOM     15  C   UNL     1       0.708   8.894  20.481  0.00  0.00    +0.000 C 
ATOM     16  O   UNL     1      -0.175   8.448  21.201  0.00  0.00    +0.000 OA
BRANCH  15  17
ATOM     17  O   UNL     1       1.981   8.419  20.440  0.00  0.00    +0.000 OA
BRANCH  17  18
ATOM     18  C   UNL     1       2.220   7.464  19.388  0.00  0.00    +0.000 C 
BRANCH  18  19
ATOM     19  C   UNL     1       2.772   6.166  19.884  0.00  0.00    +0.000 C 
ATOM     20  C   UNL     1       1.908   4.937  20.000  0.00  0.00    +0.000 C 
ATOM     21  N   UNL     1       2.903   5.049  18.935  0.00  0.00    +0.000 NA
BRANCH  21  22
ATOM     22  C   UNL     1       4.087   4.207  19.157  0.00  0.00    +0.000 C 
BRANCH  22  23
ATOM     23  C   UNL     1       5.048   4.295  17.988  0.00  0.00    +0.000 A 
ATOM     24  C   UNL     1       6.396   4.631  18.186  0.00  0.00    +0.000 A 
ATOM     25  C   UNL     1       7.270   4.732  17.100  0.00  0.00    +0.000 A 
ATOM     26  C   UNL     1       6.810   4.498  15.806  0.00  0.00    +0.000 A 
ATOM     27  C   UNL     1       5.474   4.162  15.596  0.00  0.00    +0.000 A 
ATOM     28  C   UNL     1       4.598   4.066  16.679  0.00  0.00    +0.000 A 
ENDBRANCH  22  23
ENDBRANCH  21  22
ENDBRANCH  18  19
ENDBRANCH  17  18
ENDBRANCH  15  17
ENDBRANCH   9  15
TORSDOF 8
ENDMDL
MODEL 7
REMARK VINA RESULT:      -6.7      3.042      7.885
REMARK  Name = 
REMARK  10 active torsions:
REMARK  status: ('A' for Active; 'I' for Inactive)
REMARK    1  A    between atoms: C_1  and  O_2
REMARK    2  A    between atoms: O_2  and  C_3
REMARK    3  A    between atoms: C_8  and  O_9
REMARK    4  A    between atoms: O_9  and  C_10
REMARK    5  A    between atoms: C_13  and  C_14
REMARK    6  A    between atoms: C_14  and  O_16
REMARK    7  A    between atoms: O_16  and  C_17
REMARK    8  A    between atoms: C_17  and  C_18
REMARK    9  A    between atoms: N_20  and  C_21
REMARK   10  A    between atoms: C_21  and  C_22
REMARK                            x       y       z     vdW  Elec       q    Type
REMARK                         _______ _______ _______ _____ _____    ______ ____
ROOT
ATOM      1  C   UNL     1       6.282   4.578  16.601  0.00  0.00    +0.000 A 
ATOM      2  C   UNL     1       5.100   3.894  16.263  0.00  0.00    +0.000 A 
ATOM      3  C   UNL     1       4.310   3.371  17.255  0.00  0.00    +0.000 A 
ATOM      4  C   UNL     1       4.710   3.475  18.574  0.00  0.00    +0.000 A 
ATOM      5  C   UNL     1       5.893   4.086  18.956  0.00  0.00    +0.000 A 
ATOM      6  C   UNL     1       6.701   4.655  17.961  0.00  0.00    +0.000 A 
ATOM      7  C   UNL     1       3.681   2.865  19.397  0.00  0.00    +0.000 C 
ATOM      8  O   UNL     1       3.744   2.781  20.616  0.00  0.00    +0.000 OA
ATOM      9  C   UNL     1       2.547   2.380  18.526  0.00  0.00    +0.000 C 
ATOM     10  C   UNL     1       3.002   2.663  17.088  0.00  0.00    +0.000 C 
ENDROOT
BRANCH   1  12
ATOM     11  C   UNL     1       6.771   4.702  14.301  0.00  0.00    +0.000 C 
ATOM     12  O   UNL     1       7.056   5.169  15.624  0.00  0.00    +0.000 OA
ENDBRANCH   1  12
BRANCH   6  13
ATOM     13  O   UNL     1       7.878   5.312  18.230  0.00  0.00    +0.000 OA
ATOM     14  C   UNL     1       7.975   5.995  19.484  0.00  0.00    +0.000 C 
ENDBRANCH   6  13
BRANCH   9  15
ATOM     15  C   UNL     1       1.264   3.088  18.859  0.00  0.00    +0.000 C 
ATOM     16  O   UNL     1       0.174   2.545  18.976  0.00  0.00    +0.000 OA
BRANCH  15  17
ATOM     17  O   UNL     1       1.475   4.426  18.979  0.00  0.00    +0.000 OA
BRANCH  17  18
ATOM     18  C   UNL     1       1.054   4.977  20.242  0.00  0.00    +0.000 C 
BRANCH  18  19
ATOM     19  C   UNL     1       1.831   6.190  20.645  0.00  0.00    +0.000 C 
ATOM     20  C   UNL     1       2.173   7.270  19.652  0.00  0.00    +0.000 C 
ATOM     21  N   UNL     1       1.144   7.490  20.668  0.00  0.00    +0.000 NA
BRANCH  21  22
ATOM     22  C   UNL     1       1.580   8.382  21.752  0.00  0.00    +0.000 C 
BRANCH  22  23
ATOM     23  C   UNL     1       0.625   9.546  21.921  0.00  0.00    +0.000 A 
ATOM     24  C   UNL     1       0.588  10.591  20.984  0.00  0.00    +0.000 A 
ATOM     25  C   UNL     1      -0.280  11.672  21.160  0.00  0.00    +0.000 A 
ATOM     26  C   UNL     1      -1.121  11.723  22.271  0.00  0.00    +0.000 A 
ATOM     27  C   UNL     1      -1.095  10.692  23.207  0.00  0.00    +0.000 A 
ATOM     28  C   UNL     1      -0.224   9.613  23.036  0.00  0.00    +0.000 A 
ENDBRANCH  22  23
ENDBRANCH  21  22
ENDBRANCH  18  19
ENDBRANCH  17  18
ENDBRANCH  15  17
ENDBRANCH   9  15
TORSDOF 8
ENDMDL
MODEL 8
REMARK VINA RESULT:      -6.6      3.389      5.076
REMARK  Name = 
REMARK  10 active torsions:
REMARK  status: ('A' for Active; 'I' for Inactive)
REMARK    1  A    between atoms: C_1  and  O_2
REMARK    2  A    between atoms: O_2  and  C_3
REMARK    3  A    between atoms: C_8  and  O_9
REMARK    4  A    between atoms: O_9  and  C_10
REMARK    5  A    between atoms: C_13  and  C_14
REMARK    6  A    between atoms: C_14  and  O_16
REMARK    7  A    between atoms: O_16  and  C_17
REMARK    8  A    between atoms: C_17  and  C_18
REMARK    9  A    between atoms: N_20  and  C_21
REMARK   10  A    between atoms: C_21  and  C_22
REMARK                            x       y       z     vdW  Elec       q    Type
REMARK                         _______ _______ _______ _____ _____    ______ ____
ROOT
ATOM      1  C   UNL     1      -3.041  10.165  16.575  0.00  0.00    +0.000 A 
ATOM      2  C   UNL     1      -1.695   9.876  16.862  0.00  0.00    +0.000 A 
ATOM      3  C   UNL     1      -1.114  10.396  17.991  0.00  0.00    +0.000 A 
ATOM      4  C   UNL     1      -1.842  11.241  18.807  0.00  0.00    +0.000 A 
ATOM      5  C   UNL     1      -3.152  11.604  18.539  0.00  0.00    +0.000 A 
ATOM      6  C   UNL     1      -3.775  11.060  17.407  0.00  0.00    +0.000 A 
ATOM      7  C   UNL     1      -0.995  11.612  19.927  0.00  0.00    +0.000 C 
ATOM      8  O   UNL     1      -1.343  12.368  20.824  0.00  0.00    +0.000 OA
ATOM      9  C   UNL     1       0.341  10.917  19.812  0.00  0.00    +0.000 C 
ATOM     10  C   UNL     1       0.280  10.156  18.481  0.00  0.00    +0.000 C 
ENDROOT
BRANCH   1  12
ATOM     11  C   UNL     1      -3.321  10.221  14.237  0.00  0.00    +0.000 C 
ATOM     12  O   UNL     1      -3.663   9.600  15.481  0.00  0.00    +0.000 OA
ENDBRANCH   1  12
BRANCH   6  13
ATOM     13  O   UNL     1      -5.079  11.328  17.063  0.00  0.00    +0.000 OA
ATOM     14  C   UNL     1      -5.745  12.371  17.781  0.00  0.00    +0.000 C 
ENDBRANCH   6  13
BRANCH   9  15
ATOM     15  C   UNL     1       0.578   9.997  20.976  0.00  0.00    +0.000 C 
ATOM     16  O   UNL     1       0.775  10.360  22.127  0.00  0.00    +0.000 OA
BRANCH  15  17
ATOM     17  O   UNL     1       0.579   8.701  20.567  0.00  0.00    +0.000 OA
BRANCH  17  18
ATOM     18  C   UNL     1       1.891   8.113  20.478  0.00  0.00    +0.000 C 
BRANCH  18  19
ATOM     19  C   UNL     1       2.063   7.228  19.284  0.00  0.00    +0.000 C 
ATOM     20  C   UNL     1       2.820   7.690  18.066  0.00  0.00    +0.000 C 
ATOM     21  N   UNL     1       3.406   6.710  18.979  0.00  0.00    +0.000 NA
BRANCH  21  22
ATOM     22  C   UNL     1       3.414   5.344  18.437  0.00  0.00    +0.000 C 
BRANCH  22  23
ATOM     23  C   UNL     1       2.588   4.408  19.297  0.00  0.00    +0.000 A 
ATOM     24  C   UNL     1       2.897   4.212  20.651  0.00  0.00    +0.000 A 
ATOM     25  C   UNL     1       2.144   3.330  21.432  0.00  0.00    +0.000 A 
ATOM     26  C   UNL     1       1.075   2.635  20.869  0.00  0.00    +0.000 A 
ATOM     27  C   UNL     1       0.757   2.822  19.526  0.00  0.00    +0.000 A 
ATOM     28  C   UNL     1       1.511   3.699  18.743  0.00  0.00    +0.000 A 
ENDBRANCH  22  23
ENDBRANCH  21  22
ENDBRANCH  18  19
ENDBRANCH  17  18
ENDBRANCH  15  17
ENDBRANCH   9  15
TORSDOF 8
ENDMDL
MODEL 9
REMARK VINA RESULT:      -6.6      2.091      4.573
REMARK  Name = 
REMARK  10 active torsions:
REMARK  status: ('A' for Active; 'I' for Inactive)
REMARK    1  A    between atoms: C_1  and  O_2
REMARK    2  A    between atoms: O_2  and  C_3
REMARK    3  A    between atoms: C_8  and  O_9
REMARK    4  A    between atoms: O_9  and  C_10
REMARK    5  A    between atoms: C_13  and  C_14
REMARK    6  A    between atoms: C_14  and  O_16
REMARK    7  A    between atoms: O_16  and  C_17
REMARK    8  A    between atoms: C_17  and  C_18
REMARK    9  A    between atoms: N_20  and  C_21
REMARK   10  A    between atoms: C_21  and  C_22
REMARK                            x       y       z     vdW  Elec       q    Type
REMARK                         _______ _______ _______ _____ _____    ______ ____
ROOT
ATOM      1  C   UNL     1       1.757   7.610  20.201  0.00  0.00    +0.000 A 
ATOM      2  C   UNL     1       1.514   6.323  20.716  0.00  0.00    +0.000 A 
ATOM      3  C   UNL     1       1.636   5.230  19.896  0.00  0.00    +0.000 A 
ATOM      4  C   UNL     1       1.945   5.408  18.561  0.00  0.00    +0.000 A 
ATOM      5  C   UNL     1       2.137   6.656  17.991  0.00  0.00    +0.000 A 
ATOM      6  C   UNL     1       2.047   7.786  18.817  0.00  0.00    +0.000 A 
ATOM      7  C   UNL     1       2.036   4.094  17.949  0.00  0.00    +0.000 C 
ATOM      8  O   UNL     1       2.282   3.908  16.765  0.00  0.00    +0.000 OA
ATOM      9  C   UNL     1       1.800   3.026  18.991  0.00  0.00    +0.000 C 
ATOM     10  C   UNL     1       1.469   3.792  20.278  0.00  0.00    +0.000 C 
ENDROOT
BRANCH   1  12
ATOM     11  C   UNL     1       0.438   8.898  21.666  0.00  0.00    +0.000 C 
ATOM     12  O   UNL     1       1.704   8.716  21.024  0.00  0.00    +0.000 OA
ENDBRANCH   1  12
BRANCH   6  13
ATOM     13  O   UNL     1       2.248   9.068  18.365  0.00  0.00    +0.000 OA
ATOM     14  C   UNL     1       1.094   9.806  17.954  0.00  0.00    +0.000 C 
ENDBRANCH   6  13
BRANCH   9  15
ATOM     15  C   UNL     1       3.009   2.148  19.154  0.00  0.00    +0.000 C 
ATOM     16  O   UNL     1       3.238   1.142  18.497  0.00  0.00    +0.000 OA
BRANCH  15  17
ATOM     17  O   UNL     1       3.800   2.607  20.160  0.00  0.00    +0.000 OA
BRANCH  17  18
ATOM     18  C   UNL     1       5.185   2.758  19.797  0.00  0.00    +0.000 C 
BRANCH  18  19
ATOM     19  C   UNL     1       5.469   4.032  19.067  0.00  0.00    +0.000 C 
ATOM     20  C   UNL     1       5.098   5.371  19.649  0.00  0.00    +0.000 C 
ATOM     21  N   UNL     1       6.494   4.939  19.607  0.00  0.00    +0.000 NA
BRANCH  21  22
ATOM     22  C   UNL     1       7.285   5.632  18.580  0.00  0.00    +0.000 C 
BRANCH  22  23
ATOM     23  C   UNL     1       6.690   5.429  17.201  0.00  0.00    +0.000 A 
ATOM     24  C   UNL     1       7.097   4.358  16.390  0.00  0.00    +0.000 A 
ATOM     25  C   UNL     1       6.560   4.191  15.111  0.00  0.00    +0.000 A 
ATOM     26  C   UNL     1       5.610   5.089  14.627  0.00  0.00    +0.000 A 
ATOM     27  C   UNL     1       5.196   6.155  15.423  0.00  0.00    +0.000 A 
ATOM     28  C   UNL     1       5.736   6.327  16.699  0.00  0.00    +0.000 A 
ENDBRANCH  22  23
ENDBRANCH  21  22
ENDBRANCH  18  19
ENDBRANCH  17  18
ENDBRANCH  15  17
ENDBRANCH   9  15
TORSDOF 8
ENDMDL
