MODEL 1
REMARK VINA RESULT:      -7.8      0.000      0.000
REMARK  Name = 
REMARK  7 active torsions:
REMARK  status: ('A' for Active; 'I' for Inactive)
REMARK    1  A    between atoms: C_1  and  C_2
REMARK    2  A    between atoms: N_4  and  C_5
REMARK    3  A    between atoms: C_8  and  C_9
REMARK    4  A    between atoms: C_9  and  N_10
REMARK    5  A    between atoms: N_10  and  C_11
REMARK    6  A    between atoms: N_14  and  C_15
REMARK    7  A    between atoms: C_15  and  C_16
REMARK                            x       y       z     vdW  Elec       q    Type
REMARK                         _______ _______ _______ _____ _____    ______ ____
ROOT
ATOM      1  C   UNL     1       1.237   8.113  20.966  0.00  0.00    +0.000 A 
ATOM      2  N   UNL     1       0.521   8.677  21.974  0.00  0.00    +0.000 NA
ATOM      3  C   UNL     1       0.020   9.915  21.865  0.00  0.00    +0.000 A 
ATOM      4  N   UNL     1      -0.814  10.348  22.900  0.00  0.00    +0.000 N 
ATOM      5  N   UNL     1       0.212  10.709  20.820  0.00  0.00    +0.000 NA
ATOM      6  C   UNL     1       0.905  10.182  19.794  0.00  0.00    +0.000 A 
ATOM      7  C   UNL     1       1.241  10.903  18.612  0.00  0.00    +0.000 A 
ATOM      8  C   UNL     1       1.973  10.151  17.730  0.00  0.00    +0.000 A 
ATOM      9  S   UNL     1       2.143   8.553  18.275  0.00  0.00    +0.000 S 
ATOM     10  C   UNL     1       1.395   8.880  19.799  0.00  0.00    +0.000 A 
ATOM     11  H   UNL     1      -1.692   9.857  22.757  0.00  0.00    +0.000 HD
ENDROOT
BRANCH   1  12
ATOM     12  N   UNL     1       1.752   6.865  21.252  0.00  0.00    +0.000 N 
ATOM     13  H   UNL     1       2.657   6.929  21.707  0.00  0.00    +0.000 HD
BRANCH  12  14
ATOM     14  C   UNL     1       1.419   5.612  20.609  0.00  0.00    +0.000 C 
BRANCH  14  18
ATOM     15  C   UNL     1       4.168   4.485  17.445  0.00  0.00    +0.000 A 
ATOM     16  C   UNL     1       4.646   5.049  18.625  0.00  0.00    +0.000 A 
ATOM     17  C   UNL     1       3.785   5.353  19.682  0.00  0.00    +0.000 A 
ATOM     18  C   UNL     1       2.408   5.147  19.562  0.00  0.00    +0.000 A 
ATOM     19  C   UNL     1       1.924   4.555  18.383  0.00  0.00    +0.000 A 
ATOM     20  C   UNL     1       2.794   4.244  17.327  0.00  0.00    +0.000 A 
BRANCH  15  24
ATOM     21  C   UNL     1       6.296   4.416  14.321  0.00  0.00    +0.000 C 
ATOM     22  C   UNL     1       5.493   5.077  15.423  0.00  0.00    +0.000 C 
ATOM     23  O   UNL     1       5.339   6.296  15.430  0.00  0.00    +0.000 OA
ATOM     24  N   UNL     1       5.000   4.176  16.349  0.00  0.00    +0.000 N 
ATOM     25  H   UNL     1       5.313   3.217  16.276  0.00  0.00    +0.000 HD
ENDBRANCH  15  24
ENDBRANCH  14  18
ENDBRANCH  12  14
ENDBRANCH   1  12
BRANCH   4  26
ATOM     26  C   UNL     1      -1.011  11.792  22.931  0.00  0.00    +0.000 C 
BRANCH  26  27
ATOM     27  C   UNL     1      -2.452  12.211  22.793  0.00  0.00    +0.000 A 
ATOM     28  C   UNL     1      -3.421  12.293  23.775  0.00  0.00    +0.000 A 
ATOM     29  C   UNL     1      -4.670  12.757  23.268  0.00  0.00    +0.000 A 
ATOM     30  C   UNL     1      -4.614  13.016  21.917  0.00  0.00    +0.000 A 
ATOM     31  S   UNL     1      -3.067  12.699  21.267  0.00  0.00    +0.000 S 
ENDBRANCH  26  27
ENDBRANCH   4  26
TORSDOF 6
ENDMDL
MODEL 2
REMARK VINA RESULT:      -7.7      3.377      5.593
REMARK  Name = 
REMARK  7 active torsions:
REMARK  status: ('A' for Active; 'I' for Inactive)
REMARK    1  A    between atoms: C_1  and  C_2
REMARK    2  A    between atoms: N_4  and  C_5
REMARK    3  A    between atoms: C_8  and  C_9
REMARK    4  A    between atoms: C_9  and  N_10
REMARK    5  A    between atoms: N_10  and  C_11
REMARK    6  A    between atoms: N_14  and  C_15
REMARK    7  A    between atoms: C_15  and  C_16
REMARK                            x       y       z     vdW  Elec       q    Type
REMARK                         _______ _______ _______ _____ _____    ______ ____
ROOT
ATOM      1  C   UNL     1       3.318   4.901  18.151  0.00  0.00    +0.000 A 
ATOM      2  N   UNL     1       3.040   6.229  18.238  0.00  0.00    +0.000 NA
ATOM      3  C   UNL     1       2.371   6.735  19.283  0.00  0.00    +0.000 A 
ATOM      4  N   UNL     1       2.257   8.126  19.342  0.00  0.00    +0.000 N 
ATOM      5  N   UNL     1       1.881   6.007  20.279  0.00  0.00    +0.000 NA
ATOM      6  C   UNL     1       2.147   4.688  20.236  0.00  0.00    +0.000 A 
ATOM      7  C   UNL     1       1.665   3.753  21.197  0.00  0.00    +0.000 A 
ATOM      8  C   UNL     1       2.053   2.468  20.916  0.00  0.00    +0.000 A 
ATOM      9  S   UNL     1       3.091   2.416  19.575  0.00  0.00    +0.000 S 
ATOM     10  C   UNL     1       2.897   4.098  19.225  0.00  0.00    +0.000 A 
ATOM     11  H   UNL     1       3.176   8.456  19.625  0.00  0.00    +0.000 HD
ENDROOT
BRANCH   1  12
ATOM     12  N   UNL     1       3.946   4.518  16.984  0.00  0.00    +0.000 N 
ATOM     13  H   UNL     1       3.285   4.152  16.306  0.00  0.00    +0.000 HD
BRANCH  12  14
ATOM     14  C   UNL     1       5.337   4.158  16.815  0.00  0.00    +0.000 C 
BRANCH  14  18
ATOM     15  C   UNL     1       7.971   7.210  18.422  0.00  0.00    +0.000 A 
ATOM     16  C   UNL     1       7.899   5.955  19.023  0.00  0.00    +0.000 A 
ATOM     17  C   UNL     1       7.111   4.938  18.479  0.00  0.00    +0.000 A 
ATOM     18  C   UNL     1       6.330   5.170  17.343  0.00  0.00    +0.000 A 
ATOM     19  C   UNL     1       6.420   6.426  16.720  0.00  0.00    +0.000 A 
ATOM     20  C   UNL     1       7.219   7.443  17.265  0.00  0.00    +0.000 A 
BRANCH  15  24
ATOM     21  C   UNL     1       9.698  10.468  19.255  0.00  0.00    +0.000 C 
ATOM     22  C   UNL     1       8.683   9.591  18.551  0.00  0.00    +0.000 C 
ATOM     23  O   UNL     1       7.913  10.076  17.725  0.00  0.00    +0.000 OA
ATOM     24  N   UNL     1       8.743   8.268  18.946  0.00  0.00    +0.000 N 
ATOM     25  H   UNL     1       9.348   8.043  19.725  0.00  0.00    +0.000 HD
ENDBRANCH  15  24
ENDBRANCH  14  18
ENDBRANCH  12  14
ENDBRANCH   1  12
BRANCH   4  26
ATOM     26  C   UNL     1       1.220   8.593  20.253  0.00  0.00    +0.000 C 
BRANCH  26  27
ATOM     27  C   UNL     1       0.592   9.900  19.840  0.00  0.00    +0.000 A 
ATOM     28  C   UNL     1      -0.116  10.186  18.688  0.00  0.00    +0.000 A 
ATOM     29  C   UNL     1      -0.582  11.533  18.658  0.00  0.00    +0.000 A 
ATOM     30  C   UNL     1      -0.217  12.231  19.787  0.00  0.00    +0.000 A 
ATOM     31  S   UNL     1       0.683  11.267  20.873  0.00  0.00    +0.000 S 
ENDBRANCH  26  27
ENDBRANCH   4  26
TORSDOF 6
ENDMDL
MODEL 3
REMARK VINA RESULT:      -7.6      2.583      4.649
REMARK  Name = 
REMARK  7 active torsions:
REMARK  status: ('A' for Active; 'I' for Inactive)
REMARK    1  A    between atoms: C_1  and  C_2
REMARK    2  A    between atoms: N_4  and  C_5
REMARK    3  A    between atoms: C_8  and  C_9
REMARK    4  A    between atoms: C_9  and  N_10
REMARK    5  A    between atoms: N_10  and  C_11
REMARK    6  A    between atoms: N_14  and  C_15
REMARK    7  A    between atoms: C_15  and  C_16
REMARK                            x       y       z     vdW  Elec       q    Type
REMARK                         _______ _______ _______ _____ _____    ______ ____
ROOT
ATOM      1  C   UNL     1       3.556   5.673  19.434  0.00  0.00    +0.000 A 
ATOM      2  N   UNL     1       3.029   6.849  19.862  0.00  0.00    +0.000 NA
ATOM      3  C   UNL     1       1.894   6.887  20.574  0.00  0.00    +0.000 A 
ATOM      4  N   UNL     1       1.511   8.132  21.079  0.00  0.00    +0.000 N 
ATOM      5  N   UNL     1       1.167   5.820  20.877  0.00  0.00    +0.000 NA
ATOM      6  C   UNL     1       1.664   4.633  20.482  0.00  0.00    +0.000 A 
ATOM      7  C   UNL     1       0.997   3.389  20.684  0.00  0.00    +0.000 A 
ATOM      8  C   UNL     1       1.698   2.330  20.168  0.00  0.00    +0.000 A 
ATOM      9  S   UNL     1       3.202   2.824  19.557  0.00  0.00    +0.000 S 
ATOM     10  C   UNL     1       2.871   4.503  19.804  0.00  0.00    +0.000 A 
ATOM     11  H   UNL     1       2.140   8.308  21.858  0.00  0.00    +0.000 HD
ENDROOT
BRANCH   1  12
ATOM     12  N   UNL     1       4.685   5.797  18.650  0.00  0.00    +0.000 N 
ATOM     13  H   UNL     1       5.534   5.706  19.199  0.00  0.00    +0.000 HD
BRANCH  12  14
ATOM     14  C   UNL     1       4.792   6.459  17.368  0.00  0.00    +0.000 C 
BRANCH  14  18
ATOM     15  C   UNL     1       6.098   3.912  14.105  0.00  0.00    +0.000 A 
ATOM     16  C   UNL     1       6.108   5.298  13.964  0.00  0.00    +0.000 A 
ATOM     17  C   UNL     1       5.759   6.135  15.026  0.00  0.00    +0.000 A 
ATOM     18  C   UNL     1       5.338   5.601  16.247  0.00  0.00    +0.000 A 
ATOM     19  C   UNL     1       5.349   4.204  16.401  0.00  0.00    +0.000 A 
ATOM     20  C   UNL     1       5.708   3.367  15.334  0.00  0.00    +0.000 A 
BRANCH  15  24
ATOM     21  C   UNL     1       6.248   1.687  11.053  0.00  0.00    +0.000 C 
ATOM     22  C   UNL     1       5.635   2.731  11.964  0.00  0.00    +0.000 C 
ATOM     23  O   UNL     1       4.540   3.219  11.696  0.00  0.00    +0.000 OA
ATOM     24  N   UNL     1       6.429   3.031  13.055  0.00  0.00    +0.000 N 
ATOM     25  H   UNL     1       7.360   2.635  13.074  0.00  0.00    +0.000 HD
ENDBRANCH  15  24
ENDBRANCH  14  18
ENDBRANCH  12  14
ENDBRANCH   1  12
BRANCH   4  26
ATOM     26  C   UNL     1       0.116   8.194  21.498  0.00  0.00    +0.000 C 
BRANCH  26  27
ATOM     27  C   UNL     1      -0.360   9.587  21.821  0.00  0.00    +0.000 A 
ATOM     28  C   UNL     1      -0.744  10.100  23.045  0.00  0.00    +0.000 A 
ATOM     29  C   UNL     1      -1.110  11.476  22.966  0.00  0.00    +0.000 A 
ATOM     30  C   UNL     1      -0.993  11.968  21.686  0.00  0.00    +0.000 A 
ATOM     31  S   UNL     1      -0.446  10.778  20.589  0.00  0.00    +0.000 S 
ENDBRANCH  26  27
ENDBRANCH   4  26
TORSDOF 6
ENDMDL
MODEL 4
REMARK VINA RESULT:      -7.6      3.455     10.322
REMARK  Name = 
REMARK  7 active torsions:
REMARK  status: ('A' for Active; 'I' for Inactive)
REMARK    1  A    between atoms: C_1  and  C_2
REMARK    2  A    between atoms: N_4  and  C_5
REMARK    3  A    between atoms: C_8  and  C_9
REMARK    4  A    between atoms: C_9  and  N_10
REMARK    5  A    between atoms: N_10  and  C_11
REMARK    6  A    between atoms: N_14  and  C_15
REMARK    7  A    between atoms: C_15  and  C_16
REMARK                            x       y       z     vdW  Elec       q    Type
REMARK                         _______ _______ _______ _____ _____    ______ ____
ROOT
ATOM      1  C   UNL     1       2.950   5.929  18.159  0.00  0.00    +0.000 A 
ATOM      2  N   UNL     1       3.997   6.370  17.413  0.00  0.00    +0.000 NA
ATOM      3  C   UNL     1       4.820   5.515  16.792  0.00  0.00    +0.000 A 
ATOM      4  N   UNL     1       5.780   6.072  15.943  0.00  0.00    +0.000 N 
ATOM      5  N   UNL     1       4.731   4.194  16.883  0.00  0.00    +0.000 NA
ATOM      6  C   UNL     1       3.698   3.718  17.603  0.00  0.00    +0.000 A 
ATOM      7  C   UNL     1       3.473   2.331  17.841  0.00  0.00    +0.000 A 
ATOM      8  C   UNL     1       2.370   2.107  18.624  0.00  0.00    +0.000 A 
ATOM      9  S   UNL     1       1.548   3.553  18.960  0.00  0.00    +0.000 S 
ATOM     10  C   UNL     1       2.759   4.539  18.217  0.00  0.00    +0.000 A 
ATOM     11  H   UNL     1       5.267   6.358  15.113  0.00  0.00    +0.000 HD
ENDROOT
BRANCH   1  12
ATOM     12  N   UNL     1       2.237   6.923  18.798  0.00  0.00    +0.000 N 
ATOM     13  H   UNL     1       1.494   6.540  19.374  0.00  0.00    +0.000 HD
BRANCH  12  14
ATOM     14  C   UNL     1       2.122   8.311  18.404  0.00  0.00    +0.000 C 
BRANCH  14  18
ATOM     15  C   UNL     1      -0.330  10.744  21.032  0.00  0.00    +0.000 A 
ATOM     16  C   UNL     1       0.305   9.603  21.517  0.00  0.00    +0.000 A 
ATOM     17  C   UNL     1       1.153   8.847  20.706  0.00  0.00    +0.000 A 
ATOM     18  C   UNL     1       1.348   9.188  19.364  0.00  0.00    +0.000 A 
ATOM     19  C   UNL     1       0.729  10.352  18.877  0.00  0.00    +0.000 A 
ATOM     20  C   UNL     1      -0.116  11.112  19.698  0.00  0.00    +0.000 A 
BRANCH  15  24
ATOM     21  C   UNL     1      -2.024  13.253  23.295  0.00  0.00    +0.000 C 
ATOM     22  C   UNL     1      -0.877  12.692  22.479  0.00  0.00    +0.000 C 
ATOM     23  O   UNL     1       0.206  13.271  22.457  0.00  0.00    +0.000 OA
ATOM     24  N   UNL     1      -1.205  11.527  21.813  0.00  0.00    +0.000 N 
ATOM     25  H   UNL     1      -2.174  11.238  21.832  0.00  0.00    +0.000 HD
ENDBRANCH  15  24
ENDBRANCH  14  18
ENDBRANCH  12  14
ENDBRANCH   1  12
BRANCH   4  26
ATOM     26  C   UNL     1       6.867   5.161  15.607  0.00  0.00    +0.000 C 
BRANCH  26  27
ATOM     27  C   UNL     1       6.803   4.632  14.197  0.00  0.00    +0.000 A 
ATOM     28  C   UNL     1       5.912   3.723  13.661  0.00  0.00    +0.000 A 
ATOM     29  C   UNL     1       6.147   3.483  12.275  0.00  0.00    +0.000 A 
ATOM     30  C   UNL     1       7.209   4.218  11.798  0.00  0.00    +0.000 A 
ATOM     31  S   UNL     1       7.916   5.187  13.015  0.00  0.00    +0.000 S 
ENDBRANCH  26  27
ENDBRANCH   4  26
TORSDOF 6
ENDMDL
MODEL 5
REMARK VINA RESULT:      -7.4      3.337      5.647
REMARK  Name = 
REMARK  7 active torsions:
REMARK  status: ('A' for Active; 'I' for Inactive)
REMARK    1  A    between atoms: C_1  and  C_2
REMARK    2  A    between atoms: N_4  and  C_5
REMARK    3  A    between atoms: C_8  and  C_9
REMARK    4  A    between atoms: C_9  and  N_10
REMARK    5  A    between atoms: N_10  and  C_11
REMARK    6  A    between atoms: N_14  and  C_15
REMARK    7  A    between atoms: C_15  and  C_16
REMARK                            x       y       z     vdW  Elec       q    Type
REMARK                         _______ _______ _______ _____ _____    ______ ____
ROOT
ATOM      1  C   UNL     1       3.337   4.612  18.341  0.00  0.00    +0.000 A 
ATOM      2  N   UNL     1       2.975   5.921  18.335  0.00  0.00    +0.000 NA
ATOM      3  C   UNL     1       2.411   6.494  19.407  0.00  0.00    +0.000 A 
ATOM      4  N   UNL     1       2.202   7.874  19.346  0.00  0.00    +0.000 N 
ATOM      5  N   UNL     1       2.111   5.848  20.527  0.00  0.00    +0.000 NA
ATOM      6  C   UNL     1       2.467   4.550  20.577  0.00  0.00    +0.000 A 
ATOM      7  C   UNL     1       2.185   3.694  21.680  0.00  0.00    +0.000 A 
ATOM      8  C   UNL     1       2.629   2.413  21.476  0.00  0.00    +0.000 A 
ATOM      9  S   UNL     1       3.484   2.283  20.016  0.00  0.00    +0.000 S 
ATOM     10  C   UNL     1       3.121   3.903  19.534  0.00  0.00    +0.000 A 
ATOM     11  H   UNL     1       3.123   8.288  19.467  0.00  0.00    +0.000 HD
ENDROOT
BRANCH   1  12
ATOM     12  N   UNL     1       3.835   4.146  17.141  0.00  0.00    +0.000 N 
ATOM     13  H   UNL     1       3.253   3.409  16.755  0.00  0.00    +0.000 HD
BRANCH  12  14
ATOM     14  C   UNL     1       5.199   4.229  16.667  0.00  0.00    +0.000 C 
BRANCH  14  18
ATOM     15  C   UNL     1       7.776   7.329  18.276  0.00  0.00    +0.000 A 
ATOM     16  C   UNL     1       6.929   7.603  17.205  0.00  0.00    +0.000 A 
ATOM     17  C   UNL     1       6.042   6.640  16.719  0.00  0.00    +0.000 A 
ATOM     18  C   UNL     1       6.018   5.352  17.264  0.00  0.00    +0.000 A 
ATOM     19  C   UNL     1       6.854   5.079  18.361  0.00  0.00    +0.000 A 
ATOM     20  C   UNL     1       7.737   6.053  18.850  0.00  0.00    +0.000 A 
BRANCH  15  24
ATOM     21  C   UNL     1       9.853  10.354  19.185  0.00  0.00    +0.000 C 
ATOM     22  C   UNL     1       8.681   9.630  18.552  0.00  0.00    +0.000 C 
ATOM     23  O   UNL     1       7.841  10.256  17.912  0.00  0.00    +0.000 OA
ATOM     24  N   UNL     1       8.695   8.268  18.788  0.00  0.00    +0.000 N 
ATOM     25  H   UNL     1       9.387   7.916  19.436  0.00  0.00    +0.000 HD
ENDBRANCH  15  24
ENDBRANCH  14  18
ENDBRANCH  12  14
ENDBRANCH   1  12
BRANCH   4  26
ATOM     26  C   UNL     1       1.260   8.371  20.341  0.00  0.00    +0.000 C 
BRANCH  26  27
ATOM     27  C   UNL     1       0.575   9.653  19.941  0.00  0.00    +0.000 A 
ATOM     28  C   UNL     1      -0.495  10.280  20.549  0.00  0.00    +0.000 A 
ATOM     29  C   UNL     1      -0.854  11.497  19.899  0.00  0.00    +0.000 A 
ATOM     30  C   UNL     1      -0.045  11.760  18.816  0.00  0.00    +0.000 A 
ATOM     31  S   UNL     1       1.135  10.547  18.588  0.00  0.00    +0.000 S 
ENDBRANCH  26  27
ENDBRANCH   4  26
TORSDOF 6
ENDMDL
MODEL 6
REMARK VINA RESULT:      -7.4      3.229      4.775
REMARK  Name = 
REMARK  7 active torsions:
REMARK  status: ('A' for Active; 'I' for Inactive)
REMARK    1  A    between atoms: C_1  and  C_2
REMARK    2  A    between atoms: N_4  and  C_5
REMARK    3  A    between atoms: C_8  and  C_9
REMARK    4  A    between atoms: C_9  and  N_10
REMARK    5  A    between atoms: N_10  and  C_11
REMARK    6  A    between atoms: N_14  and  C_15
REMARK    7  A    between atoms: C_15  and  C_16
REMARK                            x       y       z     vdW  Elec       q    Type
REMARK                         _______ _______ _______ _____ _____    ______ ____
ROOT
ATOM      1  C   UNL     1      -1.086  11.024  18.301  0.00  0.00    +0.000 A 
ATOM      2  N   UNL     1      -1.068  11.532  19.562  0.00  0.00    +0.000 NA
ATOM      3  C   UNL     1      -2.172  12.043  20.123  0.00  0.00    +0.000 A 
ATOM      4  N   UNL     1      -2.079  12.414  21.467  0.00  0.00    +0.000 N 
ATOM      5  N   UNL     1      -3.343  12.150  19.507  0.00  0.00    +0.000 NA
ATOM      6  C   UNL     1      -3.405  11.644  18.261  0.00  0.00    +0.000 A 
ATOM      7  C   UNL     1      -4.566  11.710  17.438  0.00  0.00    +0.000 A 
ATOM      8  C   UNL     1      -4.365  11.147  16.204  0.00  0.00    +0.000 A 
ATOM      9  S   UNL     1      -2.827  10.438  16.092  0.00  0.00    +0.000 S 
ATOM     10  C   UNL     1      -2.323  11.032  17.636  0.00  0.00    +0.000 A 
ATOM     11  H   UNL     1      -2.082  11.539  21.985  0.00  0.00    +0.000 HD
ENDROOT
BRANCH   1  12
ATOM     12  N   UNL     1       0.141  10.603  17.831  0.00  0.00    +0.000 N 
ATOM     13  H   UNL     1       0.051  10.082  16.965  0.00  0.00    +0.000 HD
BRANCH  12  14
ATOM     14  C   UNL     1       1.354  10.413  18.596  0.00  0.00    +0.000 C 
BRANCH  14  18
ATOM     15  C   UNL     1       2.154   6.494  20.281  0.00  0.00    +0.000 A 
ATOM     16  C   UNL     1       1.416   7.432  20.999  0.00  0.00    +0.000 A 
ATOM     17  C   UNL     1       1.089   8.671  20.446  0.00  0.00    +0.000 A 
ATOM     18  C   UNL     1       1.539   9.025  19.171  0.00  0.00    +0.000 A 
ATOM     19  C   UNL     1       2.262   8.073  18.433  0.00  0.00    +0.000 A 
ATOM     20  C   UNL     1       2.582   6.825  18.990  0.00  0.00    +0.000 A 
BRANCH  15  24
ATOM     21  C   UNL     1       2.386   2.928  21.514  0.00  0.00    +0.000 C 
ATOM     22  C   UNL     1       1.736   4.096  20.801  0.00  0.00    +0.000 C 
ATOM     23  O   UNL     1       0.627   3.969  20.289  0.00  0.00    +0.000 OA
ATOM     24  N   UNL     1       2.518   5.237  20.807  0.00  0.00    +0.000 N 
ATOM     25  H   UNL     1       3.461   5.152  21.163  0.00  0.00    +0.000 HD
ENDBRANCH  15  24
ENDBRANCH  14  18
ENDBRANCH  12  14
ENDBRANCH   1  12
BRANCH   4  26
ATOM     26  C   UNL     1      -3.150  13.297  21.909  0.00  0.00    +0.000 C 
BRANCH  26  27
ATOM     27  C   UNL     1      -2.828  14.060  23.170  0.00  0.00    +0.000 A 
ATOM     28  C   UNL     1      -3.697  14.530  24.135  0.00  0.00    +0.000 A 
ATOM     29  C   UNL     1      -3.019  15.186  25.204  0.00  0.00    +0.000 A 
ATOM     30  C   UNL     1      -1.655  15.194  25.020  0.00  0.00    +0.000 A 
ATOM     31  S   UNL     1      -1.198  14.418  23.569  0.00  0.00    +0.000 S 
ENDBRANCH  26  27
ENDBRANCH   4  26
TORSDOF 6
ENDMDL
MODEL 7
REMARK VINA RESULT:      -7.3      3.542     10.348
REMARK  Name = 
REMARK  7 active torsions:
REMARK  status: ('A' for Active; 'I' for Inactive)
REMARK    1  A    between atoms: C_1  and  C_2
REMARK    2  A    between atoms: N_4  and  C_5
REMARK    3  A    between atoms: C_8  and  C_9
REMARK    4  A    between atoms: C_9  and  N_10
REMARK    5  A    between atoms: N_10  and  C_11
REMARK    6  A    between atoms: N_14  and  C_15
REMARK    7  A    between atoms: C_15  and  C_16
REMARK                            x       y       z     vdW  Elec       q    Type
REMARK                         _______ _______ _______ _____ _____    ______ ____
ROOT
ATOM      1  C   UNL     1       3.044   6.650  18.145  0.00  0.00    +0.000 A 
ATOM      2  N   UNL     1       4.034   6.924  17.256  0.00  0.00    +0.000 NA
ATOM      3  C   UNL     1       4.816   5.955  16.763  0.00  0.00    +0.000 A 
ATOM      4  N   UNL     1       5.712   6.322  15.755  0.00  0.00    +0.000 N 
ATOM      5  N   UNL     1       4.740   4.679  17.121  0.00  0.00    +0.000 NA
ATOM      6  C   UNL     1       3.762   4.365  17.990  0.00  0.00    +0.000 A 
ATOM      7  C   UNL     1       3.560   3.056  18.515  0.00  0.00    +0.000 A 
ATOM      8  C   UNL     1       2.515   3.002  19.401  0.00  0.00    +0.000 A 
ATOM      9  S   UNL     1       1.712   4.494  19.498  0.00  0.00    +0.000 S 
ATOM     10  C   UNL     1       2.863   5.301  18.492  0.00  0.00    +0.000 A 
ATOM     11  H   UNL     1       5.141   6.443  14.923  0.00  0.00    +0.000 HD
ENDROOT
BRANCH   1  12
ATOM     12  N   UNL     1       2.373   7.758  18.621  0.00  0.00    +0.000 N 
ATOM     13  H   UNL     1       1.924   7.570  19.512  0.00  0.00    +0.000 HD
BRANCH  12  14
ATOM     14  C   UNL     1       1.876   8.879  17.853  0.00  0.00    +0.000 C 
BRANCH  14  18
ATOM     15  C   UNL     1      -1.267  11.275  19.645  0.00  0.00    +0.000 A 
ATOM     16  C   UNL     1      -1.432  10.736  18.372  0.00  0.00    +0.000 A 
ATOM     17  C   UNL     1      -0.462   9.905  17.807  0.00  0.00    +0.000 A 
ATOM     18  C   UNL     1       0.728   9.633  18.488  0.00  0.00    +0.000 A 
ATOM     19  C   UNL     1       0.888  10.155  19.783  0.00  0.00    +0.000 A 
ATOM     20  C   UNL     1      -0.093  10.983  20.349  0.00  0.00    +0.000 A 
BRANCH  15  24
ATOM     21  C   UNL     1      -3.249  14.113  21.164  0.00  0.00    +0.000 C 
ATOM     22  C   UNL     1      -2.088  13.496  20.411  0.00  0.00    +0.000 C 
ATOM     23  O   UNL     1      -1.164  14.201  20.014  0.00  0.00    +0.000 OA
ATOM     24  N   UNL     1      -2.215  12.129  20.246  0.00  0.00    +0.000 N 
ATOM     25  H   UNL     1      -3.092  11.708  20.522  0.00  0.00    +0.000 HD
ENDBRANCH  15  24
ENDBRANCH  14  18
ENDBRANCH  12  14
ENDBRANCH   1  12
BRANCH   4  26
ATOM     26  C   UNL     1       6.778   5.353  15.534  0.00  0.00    +0.000 C 
BRANCH  26  27
ATOM     27  C   UNL     1       6.720   4.684  14.183  0.00  0.00    +0.000 A 
ATOM     28  C   UNL     1       5.837   3.718  13.741  0.00  0.00    +0.000 A 
ATOM     29  C   UNL     1       6.075   3.343  12.387  0.00  0.00    +0.000 A 
ATOM     30  C   UNL     1       7.132   4.036  11.839  0.00  0.00    +0.000 A 
ATOM     31  S   UNL     1       7.829   5.127  12.952  0.00  0.00    +0.000 S 
ENDBRANCH  26  27
ENDBRANCH   4  26
TORSDOF 6
ENDMDL
MODEL 8
REMARK VINA RESULT:      -7.3      3.582      6.088
REMARK  Name = 
REMARK  7 active torsions:
REMARK  status: ('A' for Active; 'I' for Inactive)
REMARK    1  A    between atoms: C_1  and  C_2
REMARK    2  A    between atoms: N_4  and  C_5
REMARK    3  A    between atoms: C_8  and  C_9
REMARK    4  A    between atoms: C_9  and  N_10
REMARK    5  A    between atoms: N_10  and  C_11
REMARK    6  A    between atoms: N_14  and  C_15
REMARK    7  A    between atoms: C_15  and  C_16
REMARK                            x       y       z     vdW  Elec       q    Type
REMARK                         _______ _______ _______ _____ _____    ______ ____
ROOT
ATOM      1  C   UNL     1       3.868   4.978  17.898  0.00  0.00    +0.000 A 
ATOM      2  N   UNL     1       3.526   6.257  17.594  0.00  0.00    +0.000 NA
ATOM      3  C   UNL     1       2.730   6.976  18.397  0.00  0.00    +0.000 A 
ATOM      4  N   UNL     1       2.551   8.321  18.063  0.00  0.00    +0.000 N 
ATOM      5  N   UNL     1       2.170   6.509  19.505  0.00  0.00    +0.000 NA
ATOM      6  C   UNL     1       2.495   5.249  19.848  0.00  0.00    +0.000 A 
ATOM      7  C   UNL     1       1.955   4.573  20.981  0.00  0.00    +0.000 A 
ATOM      8  C   UNL     1       2.425   3.290  21.097  0.00  0.00    +0.000 A 
ATOM      9  S   UNL     1       3.599   2.954  19.919  0.00  0.00    +0.000 S 
ATOM     10  C   UNL     1       3.371   4.463  19.107  0.00  0.00    +0.000 A 
ATOM     11  H   UNL     1       3.420   8.778  18.326  0.00  0.00    +0.000 HD
ENDROOT
BRANCH   1  12
ATOM     12  N   UNL     1       4.630   4.341  16.940  0.00  0.00    +0.000 N 
ATOM     13  H   UNL     1       4.151   3.533  16.556  0.00  0.00    +0.000 HD
BRANCH  12  14
ATOM     14  C   UNL     1       6.068   4.393  16.789  0.00  0.00    +0.000 C 
BRANCH  14  18
ATOM     15  C   UNL     1       8.230   7.735  18.520  0.00  0.00    +0.000 A 
ATOM     16  C   UNL     1       7.536   7.889  17.322  0.00  0.00    +0.000 A 
ATOM     17  C   UNL     1       6.778   6.847  16.786  0.00  0.00    +0.000 A 
ATOM     18  C   UNL     1       6.736   5.598  17.413  0.00  0.00    +0.000 A 
ATOM     19  C   UNL     1       7.414   5.445  18.635  0.00  0.00    +0.000 A 
ATOM     20  C   UNL     1       8.169   6.498  19.173  0.00  0.00    +0.000 A 
BRANCH  15  24
ATOM     21  C   UNL     1      10.035  10.917  19.468  0.00  0.00    +0.000 C 
ATOM     22  C   UNL     1       9.016  10.088  18.714  0.00  0.00    +0.000 C 
ATOM     23  O   UNL     1       8.291  10.613  17.872  0.00  0.00    +0.000 OA
ATOM     24  N   UNL     1       9.018   8.757  19.088  0.00  0.00    +0.000 N 
ATOM     25  H   UNL     1       9.588   8.499  19.882  0.00  0.00    +0.000 HD
ENDBRANCH  15  24
ENDBRANCH  14  18
ENDBRANCH  12  14
ENDBRANCH   1  12
BRANCH   4  26
ATOM     26  C   UNL     1       1.405   8.942  18.716  0.00  0.00    +0.000 C 
BRANCH  26  27
ATOM     27  C   UNL     1       1.517  10.440  18.844  0.00  0.00    +0.000 A 
ATOM     28  C   UNL     1       2.197  11.322  18.027  0.00  0.00    +0.000 A 
ATOM     29  C   UNL     1       2.052  12.676  18.450  0.00  0.00    +0.000 A 
ATOM     30  C   UNL     1       1.265  12.783  19.574  0.00  0.00    +0.000 A 
ATOM     31  S   UNL     1       0.707  11.262  20.114  0.00  0.00    +0.000 S 
ENDBRANCH  26  27
ENDBRANCH   4  26
TORSDOF 6
ENDMDL
MODEL 9
REMARK VINA RESULT:      -7.2      2.550      3.760
REMARK  Name = 
REMARK  7 active torsions:
REMARK  status: ('A' for Active; 'I' for Inactive)
REMARK    1  A    between atoms: C_1  and  C_2
REMARK    2  A    between atoms: N_4  and  C_5
REMARK    3  A    between atoms: C_8  and  C_9
REMARK    4  A    between atoms: C_9  and  N_10
REMARK    5  A    between atoms: N_10  and  C_11
REMARK    6  A    between atoms: N_14  and  C_15
REMARK    7  A    between atoms: C_15  and  C_16
REMARK                            x       y       z     vdW  Elec       q    Type
REMARK                         _______ _______ _______ _____ _____    ______ ____
ROOT
ATOM      1  C   UNL     1      -0.130  10.244  19.495  0.00  0.00    +0.000 A 
ATOM      2  N   UNL     1      -1.045  11.148  19.057  0.00  0.00    +0.000 NA
ATOM      3  C   UNL     1      -1.814  11.833  19.914  0.00  0.00    +0.000 A 
ATOM      4  N   UNL     1      -2.623  12.834  19.371  0.00  0.00    +0.000 N 
ATOM      5  N   UNL     1      -1.799  11.664  21.230  0.00  0.00    +0.000 NA
ATOM      6  C   UNL     1      -0.895  10.786  21.704  0.00  0.00    +0.000 A 
ATOM      7  C   UNL     1      -0.768  10.448  23.083  0.00  0.00    +0.000 A 
ATOM      8  C   UNL     1       0.208   9.510  23.304  0.00  0.00    +0.000 A 
ATOM      9  S   UNL     1       1.041   9.138  21.873  0.00  0.00    +0.000 S 
ATOM     10  C   UNL     1      -0.011  10.090  20.886  0.00  0.00    +0.000 A 
ATOM     11  H   UNL     1      -1.990  13.598  19.151  0.00  0.00    +0.000 HD
ENDROOT
BRANCH   1  12
ATOM     12  N   UNL     1       0.534   9.564  18.494  0.00  0.00    +0.000 N 
ATOM     13  H   UNL     1      -0.036   8.819  18.107  0.00  0.00    +0.000 HD
BRANCH  12  14
ATOM     14  C   UNL     1       1.963   9.478  18.292  0.00  0.00    +0.000 C 
BRANCH  14  18
ATOM     15  C   UNL     1       3.371   5.375  18.419  0.00  0.00    +0.000 A 
ATOM     16  C   UNL     1       3.852   6.255  17.453  0.00  0.00    +0.000 A 
ATOM     17  C   UNL     1       3.465   7.596  17.439  0.00  0.00    +0.000 A 
ATOM     18  C   UNL     1       2.539   8.081  18.368  0.00  0.00    +0.000 A 
ATOM     19  C   UNL     1       2.070   7.203  19.359  0.00  0.00    +0.000 A 
ATOM     20  C   UNL     1       2.468   5.858  19.373  0.00  0.00    +0.000 A 
BRANCH  15  24
ATOM     21  C   UNL     1       3.625   1.611  18.173  0.00  0.00    +0.000 C 
ATOM     22  C   UNL     1       3.021   2.970  17.882  0.00  0.00    +0.000 C 
ATOM     23  O   UNL     1       2.009   3.062  17.192  0.00  0.00    +0.000 OA
ATOM     24  N   UNL     1       3.725   4.010  18.460  0.00  0.00    +0.000 N 
ATOM     25  H   UNL     1       4.608   3.786  18.898  0.00  0.00    +0.000 HD
ENDBRANCH  15  24
ENDBRANCH  14  18
ENDBRANCH  12  14
ENDBRANCH   1  12
BRANCH   4  26
ATOM     26  C   UNL     1      -3.695  13.270  20.257  0.00  0.00    +0.000 C 
BRANCH  26  27
ATOM     27  C   UNL     1      -5.005  12.560  20.021  0.00  0.00    +0.000 A 
ATOM     28  C   UNL     1      -5.994  12.257  20.937  0.00  0.00    +0.000 A 
ATOM     29  C   UNL     1      -7.107  11.600  20.336  0.00  0.00    +0.000 A 
ATOM     30  C   UNL     1      -6.933  11.424  18.982  0.00  0.00    +0.000 A 
ATOM     31  S   UNL     1      -5.436  12.046  18.442  0.00  0.00    +0.000 S 
ENDBRANCH  26  27
ENDBRANCH   4  26
TORSDOF 6
ENDMDL
