MODEL 1
REMARK VINA RESULT:      -8.8      0.000      0.000
REMARK  Name = 
REMARK  9 active torsions:
REMARK  status: ('A' for Active; 'I' for Inactive)
REMARK    1  A    between atoms: C_1  and  O_2
REMARK    2  A    between atoms: O_2  and  C_3
REMARK    3  A    between atoms: C_3  and  C_5
REMARK    4  A    between atoms: C_8  and  N_9
REMARK    5  A    between atoms: N_9  and  C_10
REMARK    6  A    between atoms: C_10  and  C_11
REMARK    7  A    between atoms: N_15  and  C_16
REMARK    8  A    between atoms: C_16  and  C_17
REMARK    9  A    between atoms: C_25  and  C_26
REMARK                            x       y       z     vdW  Elec       q    Type
REMARK                         _______ _______ _______ _____ _____    ______ ____
ROOT
ATOM      1  C   UNL     1       2.711   3.948  19.076  0.00  0.00    +0.000 A 
ATOM      2  C   UNL     1       1.608   4.169  19.924  0.00  0.00    +0.000 A 
ATOM      3  C   UNL     1       1.377   5.425  20.491  0.00  0.00    +0.000 A 
ATOM      4  C   UNL     1       2.214   6.502  20.207  0.00  0.00    +0.000 A 
ATOM      5  C   UNL     1       3.305   6.266  19.352  0.00  0.00    +0.000 A 
ATOM      6  C   UNL     1       3.592   5.004  18.754  0.00  0.00    +0.000 A 
ENDROOT
BRANCH   6   7
ATOM      7  C   UNL     1       4.769   4.896  17.839  0.00  0.00    +0.000 A 
ATOM      8  C   UNL     1       4.615   4.976  16.436  0.00  0.00    +0.000 A 
ATOM      9  C   UNL     1       5.700   4.848  15.559  0.00  0.00    +0.000 A 
ATOM     10  C   UNL     1       6.983   4.674  16.061  0.00  0.00    +0.000 A 
ATOM     11  C   UNL     1       7.173   4.593  17.437  0.00  0.00    +0.000 A 
ATOM     12  C   UNL     1       6.077   4.674  18.307  0.00  0.00    +0.000 A 
ENDBRANCH   6   7
BRANCH   1  13
ATOM     13  C   UNL     1       2.935   2.542  18.645  0.00  0.00    +0.000 C 
ATOM     14  O   UNL     1       2.845   2.137  17.499  0.00  0.00    +0.000 OA
BRANCH  13  16
ATOM     15  C   UNL     1       4.583   1.961  20.214  0.00  0.00    +0.000 C 
ATOM     16  O   UNL     1       3.246   1.792  19.735  0.00  0.00    +0.000 OA
ENDBRANCH  13  16
ENDBRANCH   1  13
BRANCH   4  17
ATOM     17  N   UNL     1       2.020   7.713  20.899  0.00  0.00    +0.000 N 
ATOM     18  H   UNL     1       1.818   7.544  21.883  0.00  0.00    +0.000 HD
BRANCH  17  19
ATOM     19  C   UNL     1       1.091   8.688  20.337  0.00  0.00    +0.000 C 
BRANCH  19  20
ATOM     20  C   UNL     1       0.481   9.597  21.345  0.00  0.00    +0.000 A 
ATOM     21  C   UNL     1       0.272   9.392  22.695  0.00  0.00    +0.000 A 
ATOM     22  N   UNL     1      -0.385  10.445  23.266  0.00  0.00    +0.000 NA
ATOM     23  C   UNL     1      -0.589  11.292  22.286  0.00  0.00    +0.000 A 
ATOM     24  N   UNL     1      -0.083  10.831  21.097  0.00  0.00    +0.000 N 
BRANCH  24  25
ATOM     25  C   UNL     1      -0.107  11.595  19.859  0.00  0.00    +0.000 C 
BRANCH  25  26
ATOM     26  C   UNL     1      -1.281  11.230  18.985  0.00  0.00    +0.000 A 
ATOM     27  C   UNL     1      -1.155  10.227  18.009  0.00  0.00    +0.000 A 
ATOM     28  C   UNL     1      -2.240   9.870  17.210  0.00  0.00    +0.000 A 
ATOM     29  C   UNL     1      -3.469  10.509  17.371  0.00  0.00    +0.000 A 
ATOM     30  C   UNL     1      -3.595  11.510  18.325  0.00  0.00    +0.000 A 
ATOM     31  F   UNL     1      -4.769  12.138  18.472  0.00  0.00    +0.000 F 
ATOM     32  C   UNL     1      -2.519  11.877  19.129  0.00  0.00    +0.000 A 
ENDBRANCH  25  26
ENDBRANCH  24  25
ENDBRANCH  19  20
ENDBRANCH  17  19
ENDBRANCH   4  17
TORSDOF 8
ENDMDL
MODEL 2
REMARK VINA RESULT:      -8.8      1.753      2.179
REMARK  Name = 
REMARK  9 active torsions:
REMARK  status: ('A' for Active; 'I' for Inactive)
REMARK    1  A    between atoms: C_1  and  O_2
REMARK    2  A    between atoms: O_2  and  C_3
REMARK    3  A    between atoms: C_3  and  C_5
REMARK    4  A    between atoms: C_8  and  N_9
REMARK    5  A    between atoms: N_9  and  C_10
REMARK    6  A    between atoms: C_10  and  C_11
REMARK    7  A    between atoms: N_15  and  C_16
REMARK    8  A    between atoms: C_16  and  C_17
REMARK    9  A    between atoms: C_25  and  C_26
REMARK                            x       y       z     vdW  Elec       q    Type
REMARK                         _______ _______ _______ _____ _____    ______ ____
ROOT
ATOM      1  C   UNL     1       3.453   4.700  19.360  0.00  0.00    +0.000 A 
ATOM      2  C   UNL     1       2.446   5.037  20.285  0.00  0.00    +0.000 A 
ATOM      3  C   UNL     1       1.853   6.303  20.273  0.00  0.00    +0.000 A 
ATOM      4  C   UNL     1       2.220   7.255  19.324  0.00  0.00    +0.000 A 
ATOM      5  C   UNL     1       3.220   6.898  18.403  0.00  0.00    +0.000 A 
ATOM      6  C   UNL     1       3.864   5.627  18.376  0.00  0.00    +0.000 A 
ENDROOT
BRANCH   6   7
ATOM      7  C   UNL     1       4.893   5.366  17.323  0.00  0.00    +0.000 A 
ATOM      8  C   UNL     1       4.622   4.509  16.232  0.00  0.00    +0.000 A 
ATOM      9  C   UNL     1       5.581   4.228  15.251  0.00  0.00    +0.000 A 
ATOM     10  C   UNL     1       6.832   4.828  15.309  0.00  0.00    +0.000 A 
ATOM     11  C   UNL     1       7.133   5.679  16.367  0.00  0.00    +0.000 A 
ATOM     12  C   UNL     1       6.185   5.919  17.372  0.00  0.00    +0.000 A 
ENDBRANCH   6   7
BRANCH   1  13
ATOM     13  C   UNL     1       4.108   3.378  19.557  0.00  0.00    +0.000 C 
ATOM     14  O   UNL     1       5.297   3.208  19.759  0.00  0.00    +0.000 OA
BRANCH  13  16
ATOM     15  C   UNL     1       3.044   1.812  18.167  0.00  0.00    +0.000 C 
ATOM     16  O   UNL     1       3.166   2.403  19.464  0.00  0.00    +0.000 OA
ENDBRANCH  13  16
ENDBRANCH   1  13
BRANCH   4  17
ATOM     17  N   UNL     1       1.691   8.555  19.430  0.00  0.00    +0.000 N 
ATOM     18  H   UNL     1       0.767   8.542  19.858  0.00  0.00    +0.000 HD
BRANCH  17  19
ATOM     19  C   UNL     1       1.703   9.404  18.243  0.00  0.00    +0.000 C 
BRANCH  19  20
ATOM     20  C   UNL     1       1.302  10.814  18.499  0.00  0.00    +0.000 A 
ATOM     21  C   UNL     1       2.058  11.967  18.417  0.00  0.00    +0.000 A 
ATOM     22  N   UNL     1       1.342  13.065  18.801  0.00  0.00    +0.000 NA
ATOM     23  C   UNL     1       0.158  12.604  19.124  0.00  0.00    +0.000 A 
ATOM     24  N   UNL     1       0.075  11.244  18.959  0.00  0.00    +0.000 N 
BRANCH  24  25
ATOM     25  C   UNL     1      -1.142  10.477  19.178  0.00  0.00    +0.000 C 
BRANCH  25  26
ATOM     26  C   UNL     1      -2.098  10.581  18.016  0.00  0.00    +0.000 A 
ATOM     27  C   UNL     1      -1.900   9.805  16.861  0.00  0.00    +0.000 A 
ATOM     28  C   UNL     1      -2.789   9.881  15.790  0.00  0.00    +0.000 A 
ATOM     29  C   UNL     1      -3.890  10.734  15.853  0.00  0.00    +0.000 A 
ATOM     30  C   UNL     1      -4.083  11.513  16.986  0.00  0.00    +0.000 A 
ATOM     31  F   UNL     1      -5.131  12.346  17.044  0.00  0.00    +0.000 F 
ATOM     32  C   UNL     1      -3.203  11.447  18.062  0.00  0.00    +0.000 A 
ENDBRANCH  25  26
ENDBRANCH  24  25
ENDBRANCH  19  20
ENDBRANCH  17  19
ENDBRANCH   4  17
TORSDOF 8
ENDMDL
MODEL 3
REMARK VINA RESULT:      -8.8      0.574      1.272
REMARK  Name = 
REMARK  9 active torsions:
REMARK  status: ('A' for Active; 'I' for Inactive)
REMARK    1  A    between atoms: C_1  and  O_2
REMARK    2  A    between atoms: O_2  and  C_3
REMARK    3  A    between atoms: C_3  and  C_5
REMARK    4  A    between atoms: C_8  and  N_9
REMARK    5  A    between atoms: N_9  and  C_10
REMARK    6  A    between atoms: C_10  and  C_11
REMARK    7  A    between atoms: N_15  and  C_16
REMARK    8  A    between atoms: C_16  and  C_17
REMARK    9  A    between atoms: C_25  and  C_26
REMARK                            x       y       z     vdW  Elec       q    Type
REMARK                         _______ _______ _______ _____ _____    ______ ____
ROOT
ATOM      1  C   UNL     1       3.273   3.913  19.681  0.00  0.00    +0.000 A 
ATOM      2  C   UNL     1       2.215   4.183  20.570  0.00  0.00    +0.000 A 
ATOM      3  C   UNL     1       1.781   5.493  20.795  0.00  0.00    +0.000 A 
ATOM      4  C   UNL     1       2.362   6.564  20.119  0.00  0.00    +0.000 A 
ATOM      5  C   UNL     1       3.411   6.275  19.229  0.00  0.00    +0.000 A 
ATOM      6  C   UNL     1       3.899   4.961  18.969  0.00  0.00    +0.000 A 
ENDROOT
BRANCH   6   7
ATOM      7  C   UNL     1       5.002   4.789  17.975  0.00  0.00    +0.000 A 
ATOM      8  C   UNL     1       6.358   4.857  18.369  0.00  0.00    +0.000 A 
ATOM      9  C   UNL     1       7.408   4.729  17.450  0.00  0.00    +0.000 A 
ATOM     10  C   UNL     1       7.133   4.488  16.110  0.00  0.00    +0.000 A 
ATOM     11  C   UNL     1       5.810   4.412  15.687  0.00  0.00    +0.000 A 
ATOM     12  C   UNL     1       4.764   4.590  16.603  0.00  0.00    +0.000 A 
ENDBRANCH   6   7
BRANCH   1  13
ATOM     13  C   UNL     1       3.741   2.501  19.627  0.00  0.00    +0.000 C 
ATOM     14  O   UNL     1       4.811   2.101  20.052  0.00  0.00    +0.000 OA
BRANCH  13  16
ATOM     15  C   UNL     1       2.440   2.168  17.701  0.00  0.00    +0.000 C 
ATOM     16  O   UNL     1       2.788   1.745  19.022  0.00  0.00    +0.000 OA
ENDBRANCH  13  16
ENDBRANCH   1  13
BRANCH   4  17
ATOM     17  N   UNL     1       1.982   7.873  20.471  0.00  0.00    +0.000 N 
ATOM     18  H   UNL     1       2.444   8.171  21.329  0.00  0.00    +0.000 HD
BRANCH  17  19
ATOM     19  C   UNL     1       0.559   8.192  20.508  0.00  0.00    +0.000 C 
BRANCH  19  20
ATOM     20  C   UNL     1       0.213   9.321  21.413  0.00  0.00    +0.000 A 
ATOM     21  C   UNL     1       0.013   9.316  22.780  0.00  0.00    +0.000 A 
ATOM     22  N   UNL     1      -0.363  10.548  23.236  0.00  0.00    +0.000 NA
ATOM     23  C   UNL     1      -0.403  11.310  22.169  0.00  0.00    +0.000 A 
ATOM     24  N   UNL     1      -0.062  10.619  21.034  0.00  0.00    +0.000 N 
BRANCH  24  25
ATOM     25  C   UNL     1       0.044  11.231  19.718  0.00  0.00    +0.000 C 
BRANCH  25  26
ATOM     26  C   UNL     1      -1.199  11.023  18.890  0.00  0.00    +0.000 A 
ATOM     27  C   UNL     1      -1.213  10.075  17.853  0.00  0.00    +0.000 A 
ATOM     28  C   UNL     1      -2.364   9.863  17.095  0.00  0.00    +0.000 A 
ATOM     29  C   UNL     1      -3.521  10.595  17.360  0.00  0.00    +0.000 A 
ATOM     30  C   UNL     1      -3.509  11.543  18.375  0.00  0.00    +0.000 A 
ATOM     31  F   UNL     1      -4.613  12.260  18.621  0.00  0.00    +0.000 F 
ATOM     32  C   UNL     1      -2.366  11.765  19.138  0.00  0.00    +0.000 A 
ENDBRANCH  25  26
ENDBRANCH  24  25
ENDBRANCH  19  20
ENDBRANCH  17  19
ENDBRANCH   4  17
TORSDOF 8
ENDMDL
MODEL 4
REMARK VINA RESULT:      -8.5      0.991      1.568
REMARK  Name = 
REMARK  9 active torsions:
REMARK  status: ('A' for Active; 'I' for Inactive)
REMARK    1  A    between atoms: C_1  and  O_2
REMARK    2  A    between atoms: O_2  and  C_3
REMARK    3  A    between atoms: C_3  and  C_5
REMARK    4  A    between atoms: C_8  and  N_9
REMARK    5  A    between atoms: N_9  and  C_10
REMARK    6  A    between atoms: C_10  and  C_11
REMARK    7  A    between atoms: N_15  and  C_16
REMARK    8  A    between atoms: C_16  and  C_17
REMARK    9  A    between atoms: C_25  and  C_26
REMARK                            x       y       z     vdW  Elec       q    Type
REMARK                         _______ _______ _______ _____ _____    ______ ____
ROOT
ATOM      1  C   UNL     1       2.728   3.954  18.985  0.00  0.00    +0.000 A 
ATOM      2  C   UNL     1       1.568   3.873  19.780  0.00  0.00    +0.000 A 
ATOM      3  C   UNL     1       1.107   4.982  20.496  0.00  0.00    +0.000 A 
ATOM      4  C   UNL     1       1.766   6.208  20.416  0.00  0.00    +0.000 A 
ATOM      5  C   UNL     1       2.916   6.272  19.610  0.00  0.00    +0.000 A 
ATOM      6  C   UNL     1       3.434   5.172  18.868  0.00  0.00    +0.000 A 
ENDROOT
BRANCH   6   7
ATOM      7  C   UNL     1       4.652   5.384  18.026  0.00  0.00    +0.000 A 
ATOM      8  C   UNL     1       5.937   5.475  18.609  0.00  0.00    +0.000 A 
ATOM      9  C   UNL     1       7.087   5.703  17.843  0.00  0.00    +0.000 A 
ATOM     10  C   UNL     1       6.993   5.808  16.461  0.00  0.00    +0.000 A 
ATOM     11  C   UNL     1       5.745   5.721  15.853  0.00  0.00    +0.000 A 
ATOM     12  C   UNL     1       4.592   5.542  16.630  0.00  0.00    +0.000 A 
ENDBRANCH   6   7
BRANCH   1  13
ATOM     13  C   UNL     1       3.201   2.678  18.383  0.00  0.00    +0.000 C 
ATOM     14  O   UNL     1       2.575   2.007  17.581  0.00  0.00    +0.000 OA
BRANCH  13  16
ATOM     15  C   UNL     1       4.442   2.007  20.261  0.00  0.00    +0.000 C 
ATOM     16  O   UNL     1       4.432   2.387  18.882  0.00  0.00    +0.000 OA
ENDBRANCH  13  16
ENDBRANCH   1  13
BRANCH   4  17
ATOM     17  N   UNL     1       1.344   7.259  21.251  0.00  0.00    +0.000 N 
ATOM     18  H   UNL     1       0.462   7.032  21.709  0.00  0.00    +0.000 HD
BRANCH  17  19
ATOM     19  C   UNL     1       1.311   8.609  20.699  0.00  0.00    +0.000 C 
BRANCH  19  20
ATOM     20  C   UNL     1       0.597   9.598  21.552  0.00  0.00    +0.000 A 
ATOM     21  C   UNL     1       0.269   9.522  22.891  0.00  0.00    +0.000 A 
ATOM     22  N   UNL     1      -0.454  10.610  23.293  0.00  0.00    +0.000 NA
ATOM     23  C   UNL     1      -0.580  11.351  22.218  0.00  0.00    +0.000 A 
ATOM     24  N   UNL     1       0.039  10.787  21.132  0.00  0.00    +0.000 N 
BRANCH  24  25
ATOM     25  C   UNL     1       0.116  11.425  19.825  0.00  0.00    +0.000 C 
BRANCH  25  26
ATOM     26  C   UNL     1      -1.129  11.197  19.005  0.00  0.00    +0.000 A 
ATOM     27  C   UNL     1      -2.316  11.886  19.309  0.00  0.00    +0.000 A 
ATOM     28  C   UNL     1      -3.466  11.696  18.544  0.00  0.00    +0.000 A 
ATOM     29  C   UNL     1      -3.451  10.813  17.465  0.00  0.00    +0.000 A 
ATOM     30  C   UNL     1      -2.285  10.120  17.169  0.00  0.00    +0.000 A 
ATOM     31  F   UNL     1      -2.272   9.259  16.143  0.00  0.00    +0.000 F 
ATOM     32  C   UNL     1      -1.130  10.300  17.924  0.00  0.00    +0.000 A 
ENDBRANCH  25  26
ENDBRANCH  24  25
ENDBRANCH  19  20
ENDBRANCH  17  19
ENDBRANCH   4  17
TORSDOF 8
ENDMDL
MODEL 5
REMARK VINA RESULT:      -8.5      1.841      3.719
REMARK  Name = 
REMARK  9 active torsions:
REMARK  status: ('A' for Active; 'I' for Inactive)
REMARK    1  A    between atoms: C_1  and  O_2
REMARK    2  A    between atoms: O_2  and  C_3
REMARK    3  A    between atoms: C_3  and  C_5
REMARK    4  A    between atoms: C_8  and  N_9
REMARK    5  A    between atoms: N_9  and  C_10
REMARK    6  A    between atoms: C_10  and  C_11
REMARK    7  A    between atoms: N_15  and  C_16
REMARK    8  A    between atoms: C_16  and  C_17
REMARK    9  A    between atoms: C_25  and  C_26
REMARK                            x       y       z     vdW  Elec       q    Type
REMARK                         _______ _______ _______ _____ _____    ______ ____
ROOT
ATOM      1  C   UNL     1       4.233   5.702  18.052  0.00  0.00    +0.000 A 
ATOM      2  C   UNL     1       4.750   6.806  17.347  0.00  0.00    +0.000 A 
ATOM      3  C   UNL     1       4.024   7.996  17.242  0.00  0.00    +0.000 A 
ATOM      4  C   UNL     1       2.782   8.132  17.859  0.00  0.00    +0.000 A 
ATOM      5  C   UNL     1       2.286   7.022  18.566  0.00  0.00    +0.000 A 
ATOM      6  C   UNL     1       2.979   5.784  18.697  0.00  0.00    +0.000 A 
ENDROOT
BRANCH   6   7
ATOM      7  C   UNL     1       2.350   4.692  19.502  0.00  0.00    +0.000 A 
ATOM      8  C   UNL     1       2.617   4.556  20.884  0.00  0.00    +0.000 A 
ATOM      9  C   UNL     1       2.062   3.523  21.650  0.00  0.00    +0.000 A 
ATOM     10  C   UNL     1       1.189   2.615  21.065  0.00  0.00    +0.000 A 
ATOM     11  C   UNL     1       0.902   2.720  19.709  0.00  0.00    +0.000 A 
ATOM     12  C   UNL     1       1.498   3.727  18.936  0.00  0.00    +0.000 A 
ENDBRANCH   6   7
BRANCH   1  13
ATOM     13  C   UNL     1       5.029   4.446  17.979  0.00  0.00    +0.000 C 
ATOM     14  O   UNL     1       5.840   4.081  18.812  0.00  0.00    +0.000 OA
BRANCH  13  16
ATOM     15  C   UNL     1       5.709   3.847  15.813  0.00  0.00    +0.000 C 
ATOM     16  O   UNL     1       4.709   3.789  16.834  0.00  0.00    +0.000 OA
ENDBRANCH  13  16
ENDBRANCH   1  13
BRANCH   4  17
ATOM     17  N   UNL     1       2.030   9.298  17.620  0.00  0.00    +0.000 N 
ATOM     18  H   UNL     1       2.560  10.133  17.866  0.00  0.00    +0.000 HD
BRANCH  17  19
ATOM     19  C   UNL     1       0.674   9.367  18.151  0.00  0.00    +0.000 C 
BRANCH  19  20
ATOM     20  C   UNL     1       0.553  10.151  19.410  0.00  0.00    +0.000 A 
ATOM     21  C   UNL     1       0.957   9.821  20.689  0.00  0.00    +0.000 A 
ATOM     22  N   UNL     1       0.601  10.783  21.591  0.00  0.00    +0.000 NA
ATOM     23  C   UNL     1      -0.021  11.698  20.887  0.00  0.00    +0.000 A 
ATOM     24  N   UNL     1      -0.079  11.369  19.557  0.00  0.00    +0.000 N 
BRANCH  24  25
ATOM     25  C   UNL     1      -0.652  12.233  18.535  0.00  0.00    +0.000 C 
BRANCH  25  26
ATOM     26  C   UNL     1      -2.052  11.819  18.157  0.00  0.00    +0.000 A 
ATOM     27  C   UNL     1      -3.127  12.075  19.025  0.00  0.00    +0.000 A 
ATOM     28  C   UNL     1      -4.428  11.713  18.676  0.00  0.00    +0.000 A 
ATOM     29  C   UNL     1      -4.676  11.088  17.455  0.00  0.00    +0.000 A 
ATOM     30  C   UNL     1      -3.615  10.820  16.599  0.00  0.00    +0.000 A 
ATOM     31  F   UNL     1      -3.848  10.204  15.433  0.00  0.00    +0.000 F 
ATOM     32  C   UNL     1      -2.313  11.176  16.936  0.00  0.00    +0.000 A 
ENDBRANCH  25  26
ENDBRANCH  24  25
ENDBRANCH  19  20
ENDBRANCH  17  19
ENDBRANCH   4  17
TORSDOF 8
ENDMDL
MODEL 6
REMARK VINA RESULT:      -8.5      1.878      2.375
REMARK  Name = 
REMARK  9 active torsions:
REMARK  status: ('A' for Active; 'I' for Inactive)
REMARK    1  A    between atoms: C_1  and  O_2
REMARK    2  A    between atoms: O_2  and  C_3
REMARK    3  A    between atoms: C_3  and  C_5
REMARK    4  A    between atoms: C_8  and  N_9
REMARK    5  A    between atoms: N_9  and  C_10
REMARK    6  A    between atoms: C_10  and  C_11
REMARK    7  A    between atoms: N_15  and  C_16
REMARK    8  A    between atoms: C_16  and  C_17
REMARK    9  A    between atoms: C_25  and  C_26
REMARK                            x       y       z     vdW  Elec       q    Type
REMARK                         _______ _______ _______ _____ _____    ______ ____
ROOT
ATOM      1  C   UNL     1       2.957   4.469  19.589  0.00  0.00    +0.000 A 
ATOM      2  C   UNL     1       1.881   4.920  20.377  0.00  0.00    +0.000 A 
ATOM      3  C   UNL     1       1.495   6.264  20.366  0.00  0.00    +0.000 A 
ATOM      4  C   UNL     1       2.145   7.187  19.549  0.00  0.00    +0.000 A 
ATOM      5  C   UNL     1       3.211   6.717  18.763  0.00  0.00    +0.000 A 
ATOM      6  C   UNL     1       3.651   5.362  18.742  0.00  0.00    +0.000 A 
ENDROOT
BRANCH   6   7
ATOM      7  C   UNL     1       4.781   4.988  17.837  0.00  0.00    +0.000 A 
ATOM      8  C   UNL     1       4.544   4.550  16.514  0.00  0.00    +0.000 A 
ATOM      9  C   UNL     1       5.585   4.168  15.658  0.00  0.00    +0.000 A 
ATOM     10  C   UNL     1       6.903   4.249  16.088  0.00  0.00    +0.000 A 
ATOM     11  C   UNL     1       7.174   4.678  17.382  0.00  0.00    +0.000 A 
ATOM     12  C   UNL     1       6.125   5.013  18.250  0.00  0.00    +0.000 A 
ENDBRANCH   6   7
BRANCH   1  13
ATOM     13  C   UNL     1       3.366   3.052  19.788  0.00  0.00    +0.000 C 
ATOM     14  O   UNL     1       4.011   2.635  20.734  0.00  0.00    +0.000 OA
BRANCH  13  16
ATOM     15  C   UNL     1       3.700   1.157  18.442  0.00  0.00    +0.000 C 
ATOM     16  O   UNL     1       2.913   2.313  18.741  0.00  0.00    +0.000 OA
ENDBRANCH  13  16
ENDBRANCH   1  13
BRANCH   4  17
ATOM     17  N   UNL     1       1.808   8.549  19.665  0.00  0.00    +0.000 N 
ATOM     18  H   UNL     1       1.033   8.681  20.313  0.00  0.00    +0.000 HD
BRANCH  17  19
ATOM     19  C   UNL     1       1.601   9.316  18.442  0.00  0.00    +0.000 C 
BRANCH  19  20
ATOM     20  C   UNL     1       1.168  10.721  18.671  0.00  0.00    +0.000 A 
ATOM     21  C   UNL     1       1.913  11.883  18.633  0.00  0.00    +0.000 A 
ATOM     22  N   UNL     1       1.160  12.973  18.971  0.00  0.00    +0.000 NA
ATOM     23  C   UNL     1      -0.036  12.496  19.221  0.00  0.00    +0.000 A 
ATOM     24  N   UNL     1      -0.091  11.136  19.054  0.00  0.00    +0.000 N 
BRANCH  24  25
ATOM     25  C   UNL     1      -1.309  10.353  19.198  0.00  0.00    +0.000 C 
BRANCH  25  26
ATOM     26  C   UNL     1      -2.251  10.543  18.036  0.00  0.00    +0.000 A 
ATOM     27  C   UNL     1      -3.423  11.304  18.188  0.00  0.00    +0.000 A 
ATOM     28  C   UNL     1      -4.289  11.500  17.113  0.00  0.00    +0.000 A 
ATOM     29  C   UNL     1      -4.001  10.939  15.870  0.00  0.00    +0.000 A 
ATOM     30  C   UNL     1      -2.852  10.175  15.718  0.00  0.00    +0.000 A 
ATOM     31  F   UNL     1      -2.581   9.620  14.529  0.00  0.00    +0.000 F 
ATOM     32  C   UNL     1      -1.979   9.970  16.782  0.00  0.00    +0.000 A 
ENDBRANCH  25  26
ENDBRANCH  24  25
ENDBRANCH  19  20
ENDBRANCH  17  19
ENDBRANCH   4  17
TORSDOF 8
ENDMDL
MODEL 7
REMARK VINA RESULT:      -8.4      1.161      1.467
REMARK  Name = 
REMARK  9 active torsions:
REMARK  status: ('A' for Active; 'I' for Inactive)
REMARK    1  A    between atoms: C_1  and  O_2
REMARK    2  A    between atoms: O_2  and  C_3
REMARK    3  A    between atoms: C_3  and  C_5
REMARK    4  A    between atoms: C_8  and  N_9
REMARK    5  A    between atoms: N_9  and  C_10
REMARK    6  A    between atoms: C_10  and  C_11
REMARK    7  A    between atoms: N_15  and  C_16
REMARK    8  A    between atoms: C_16  and  C_17
REMARK    9  A    between atoms: C_25  and  C_26
REMARK                            x       y       z     vdW  Elec       q    Type
REMARK                         _______ _______ _______ _____ _____    ______ ____
ROOT
ATOM      1  C   UNL     1       3.276   3.466  19.650  0.00  0.00    +0.000 A 
ATOM      2  C   UNL     1       2.156   3.323  20.491  0.00  0.00    +0.000 A 
ATOM      3  C   UNL     1       1.413   4.436  20.897  0.00  0.00    +0.000 A 
ATOM      4  C   UNL     1       1.743   5.715  20.453  0.00  0.00    +0.000 A 
ATOM      5  C   UNL     1       2.859   5.838  19.607  0.00  0.00    +0.000 A 
ATOM      6  C   UNL     1       3.655   4.740  19.171  0.00  0.00    +0.000 A 
ENDROOT
BRANCH   6   7
ATOM      7  C   UNL     1       4.800   5.007  18.246  0.00  0.00    +0.000 A 
ATOM      8  C   UNL     1       4.626   4.992  16.843  0.00  0.00    +0.000 A 
ATOM      9  C   UNL     1       5.689   5.211  15.959  0.00  0.00    +0.000 A 
ATOM     10  C   UNL     1       6.957   5.491  16.452  0.00  0.00    +0.000 A 
ATOM     11  C   UNL     1       7.165   5.517  17.827  0.00  0.00    +0.000 A 
ATOM     12  C   UNL     1       6.107   5.250  18.706  0.00  0.00    +0.000 A 
ENDBRANCH   6   7
BRANCH   1  13
ATOM     13  C   UNL     1       4.070   2.233  19.399  0.00  0.00    +0.000 C 
ATOM     14  O   UNL     1       3.794   1.378  18.575  0.00  0.00    +0.000 OA
BRANCH  13  16
ATOM     15  C   UNL     1       5.257   1.030  21.029  0.00  0.00    +0.000 C 
ATOM     16  O   UNL     1       5.136   2.218  20.241  0.00  0.00    +0.000 OA
ENDBRANCH  13  16
ENDBRANCH   1  13
BRANCH   4  17
ATOM     17  N   UNL     1       1.049   6.817  20.988  0.00  0.00    +0.000 N 
ATOM     18  H   UNL     1       0.051   6.751  20.794  0.00  0.00    +0.000 HD
BRANCH  17  19
ATOM     19  C   UNL     1       1.549   8.156  20.696  0.00  0.00    +0.000 C 
BRANCH  19  20
ATOM     20  C   UNL     1       0.868   9.239  21.455  0.00  0.00    +0.000 A 
ATOM     21  C   UNL     1       0.527   9.288  22.793  0.00  0.00    +0.000 A 
ATOM     22  N   UNL     1      -0.156  10.433  23.095  0.00  0.00    +0.000 NA
ATOM     23  C   UNL     1      -0.245  11.085  21.960  0.00  0.00    +0.000 A 
ATOM     24  N   UNL     1       0.360  10.410  20.932  0.00  0.00    +0.000 N 
BRANCH  24  25
ATOM     25  C   UNL     1       0.471  10.932  19.577  0.00  0.00    +0.000 C 
BRANCH  25  26
ATOM     26  C   UNL     1      -0.844  10.895  18.841  0.00  0.00    +0.000 A 
ATOM     27  C   UNL     1      -1.918  11.696  19.265  0.00  0.00    +0.000 A 
ATOM     28  C   UNL     1      -3.132  11.682  18.579  0.00  0.00    +0.000 A 
ATOM     29  C   UNL     1      -3.294  10.866  17.460  0.00  0.00    +0.000 A 
ATOM     30  C   UNL     1      -2.241  10.062  17.045  0.00  0.00    +0.000 A 
ATOM     31  F   UNL     1      -2.399   9.264  15.981  0.00  0.00    +0.000 F 
ATOM     32  C   UNL     1      -1.024  10.066  17.721  0.00  0.00    +0.000 A 
ENDBRANCH  25  26
ENDBRANCH  24  25
ENDBRANCH  19  20
ENDBRANCH  17  19
ENDBRANCH   4  17
TORSDOF 8
ENDMDL
MODEL 8
REMARK VINA RESULT:      -8.3      3.729      8.490
REMARK  Name = 
REMARK  9 active torsions:
REMARK  status: ('A' for Active; 'I' for Inactive)
REMARK    1  A    between atoms: C_1  and  O_2
REMARK    2  A    between atoms: O_2  and  C_3
REMARK    3  A    between atoms: C_3  and  C_5
REMARK    4  A    between atoms: C_8  and  N_9
REMARK    5  A    between atoms: N_9  and  C_10
REMARK    6  A    between atoms: C_10  and  C_11
REMARK    7  A    between atoms: N_15  and  C_16
REMARK    8  A    between atoms: C_16  and  C_17
REMARK    9  A    between atoms: C_25  and  C_26
REMARK                            x       y       z     vdW  Elec       q    Type
REMARK                         _______ _______ _______ _____ _____    ______ ____
ROOT
ATOM      1  C   UNL     1       1.088   8.453  20.556  0.00  0.00    +0.000 A 
ATOM      2  C   UNL     1       1.759   7.236  20.783  0.00  0.00    +0.000 A 
ATOM      3  C   UNL     1       2.515   6.633  19.773  0.00  0.00    +0.000 A 
ATOM      4  C   UNL     1       2.651   7.236  18.525  0.00  0.00    +0.000 A 
ATOM      5  C   UNL     1       1.981   8.455  18.319  0.00  0.00    +0.000 A 
ATOM      6  C   UNL     1       1.191   9.109  19.308  0.00  0.00    +0.000 A 
ENDROOT
BRANCH   6   7
ATOM      7  C   UNL     1       0.555  10.418  18.968  0.00  0.00    +0.000 A 
ATOM      8  C   UNL     1       1.295  11.622  19.003  0.00  0.00    +0.000 A 
ATOM      9  C   UNL     1       0.712  12.863  18.717  0.00  0.00    +0.000 A 
ATOM     10  C   UNL     1      -0.624  12.934  18.346  0.00  0.00    +0.000 A 
ATOM     11  C   UNL     1      -1.383  11.770  18.298  0.00  0.00    +0.000 A 
ATOM     12  C   UNL     1      -0.806  10.537  18.632  0.00  0.00    +0.000 A 
ENDBRANCH   6   7
BRANCH   1  13
ATOM     13  C   UNL     1       0.203   8.929  21.654  0.00  0.00    +0.000 C 
ATOM     14  O   UNL     1      -0.788   8.345  22.058  0.00  0.00    +0.000 OA
BRANCH  13  16
ATOM     15  C   UNL     1      -0.332  11.087  22.409  0.00  0.00    +0.000 C 
ATOM     16  O   UNL     1       0.677  10.115  22.117  0.00  0.00    +0.000 OA
ENDBRANCH  13  16
ENDBRANCH   1  13
BRANCH   4  17
ATOM     17  N   UNL     1       3.313   6.532  17.501  0.00  0.00    +0.000 N 
ATOM     18  H   UNL     1       3.316   5.530  17.687  0.00  0.00    +0.000 HD
BRANCH  17  19
ATOM     19  C   UNL     1       4.636   6.990  17.092  0.00  0.00    +0.000 C 
BRANCH  19  20
ATOM     20  C   UNL     1       5.744   6.081  17.493  0.00  0.00    +0.000 A 
ATOM     21  C   UNL     1       6.972   6.391  18.046  0.00  0.00    +0.000 A 
ATOM     22  N   UNL     1       7.745   5.276  18.206  0.00  0.00    +0.000 NA
ATOM     23  C   UNL     1       7.013   4.285  17.754  0.00  0.00    +0.000 A 
ATOM     24  N   UNL     1       5.789   4.715  17.310  0.00  0.00    +0.000 N 
BRANCH  24  25
ATOM     25  C   UNL     1       4.748   3.822  16.820  0.00  0.00    +0.000 C 
BRANCH  25  26
ATOM     26  C   UNL     1       3.823   3.366  17.920  0.00  0.00    +0.000 A 
ATOM     27  C   UNL     1       4.300   3.220  19.234  0.00  0.00    +0.000 A 
ATOM     28  C   UNL     1       3.446   2.816  20.261  0.00  0.00    +0.000 A 
ATOM     29  C   UNL     1       2.105   2.550  19.992  0.00  0.00    +0.000 A 
ATOM     30  C   UNL     1       1.632   2.678  18.692  0.00  0.00    +0.000 A 
ATOM     31  F   UNL     1       0.348   2.406  18.428  0.00  0.00    +0.000 F 
ATOM     32  C   UNL     1       2.473   3.080  17.658  0.00  0.00    +0.000 A 
ENDBRANCH  25  26
ENDBRANCH  24  25
ENDBRANCH  19  20
ENDBRANCH  17  19
ENDBRANCH   4  17
TORSDOF 8
ENDMDL
MODEL 9
REMARK VINA RESULT:      -8.3      2.158      3.867
REMARK  Name = 
REMARK  9 active torsions:
REMARK  status: ('A' for Active; 'I' for Inactive)
REMARK    1  A    between atoms: C_1  and  O_2
REMARK    2  A    between atoms: O_2  and  C_3
REMARK    3  A    between atoms: C_3  and  C_5
REMARK    4  A    between atoms: C_8  and  N_9
REMARK    5  A    between atoms: N_9  and  C_10
REMARK    6  A    between atoms: C_10  and  C_11
REMARK    7  A    between atoms: N_15  and  C_16
REMARK    8  A    between atoms: C_16  and  C_17
REMARK    9  A    between atoms: C_25  and  C_26
REMARK                            x       y       z     vdW  Elec       q    Type
REMARK                         _______ _______ _______ _____ _____    ______ ____
ROOT
ATOM      1  C   UNL     1       3.960   5.814  17.765  0.00  0.00    +0.000 A 
ATOM      2  C   UNL     1       4.409   6.947  17.060  0.00  0.00    +0.000 A 
ATOM      3  C   UNL     1       3.697   8.150  17.103  0.00  0.00    +0.000 A 
ATOM      4  C   UNL     1       2.541   8.268  17.871  0.00  0.00    +0.000 A 
ATOM      5  C   UNL     1       2.112   7.130  18.575  0.00  0.00    +0.000 A 
ATOM      6  C   UNL     1       2.793   5.878  18.560  0.00  0.00    +0.000 A 
ENDROOT
BRANCH   6   7
ATOM      7  C   UNL     1       2.245   4.753  19.378  0.00  0.00    +0.000 A 
ATOM      8  C   UNL     1       2.666   4.545  20.712  0.00  0.00    +0.000 A 
ATOM      9  C   UNL     1       2.188   3.481  21.486  0.00  0.00    +0.000 A 
ATOM     10  C   UNL     1       1.240   2.611  20.963  0.00  0.00    +0.000 A 
ATOM     11  C   UNL     1       0.800   2.786  19.656  0.00  0.00    +0.000 A 
ATOM     12  C   UNL     1       1.319   3.825  18.869  0.00  0.00    +0.000 A 
ENDBRANCH   6   7
BRANCH   1  13
ATOM     13  C   UNL     1       4.718   4.554  17.534  0.00  0.00    +0.000 C 
ATOM     14  O   UNL     1       4.240   3.516  17.113  0.00  0.00    +0.000 OA
BRANCH  13  16
ATOM     15  C   UNL     1       6.226   5.087  19.254  0.00  0.00    +0.000 C 
ATOM     16  O   UNL     1       6.017   4.754  17.878  0.00  0.00    +0.000 OA
ENDBRANCH  13  16
ENDBRANCH   1  13
BRANCH   4  17
ATOM     17  N   UNL     1       1.788   9.455  17.783  0.00  0.00    +0.000 N 
ATOM     18  H   UNL     1       2.192  10.096  17.102  0.00  0.00    +0.000 HD
BRANCH  17  19
ATOM     19  C   UNL     1       1.451  10.152  19.019  0.00  0.00    +0.000 C 
BRANCH  19  20
ATOM     20  C   UNL     1       0.974  11.547  18.820  0.00  0.00    +0.000 A 
ATOM     21  C   UNL     1       1.694  12.679  18.488  0.00  0.00    +0.000 A 
ATOM     22  N   UNL     1       0.901  13.791  18.468  0.00  0.00    +0.000 NA
ATOM     23  C   UNL     1      -0.297  13.361  18.788  0.00  0.00    +0.000 A 
ATOM     24  N   UNL     1      -0.312  12.008  19.011  0.00  0.00    +0.000 N 
BRANCH  24  25
ATOM     25  C   UNL     1      -1.519  11.253  19.316  0.00  0.00    +0.000 C 
BRANCH  25  26
ATOM     26  C   UNL     1      -2.361  11.005  18.090  0.00  0.00    +0.000 A 
ATOM     27  C   UNL     1      -1.915  10.128  17.087  0.00  0.00    +0.000 A 
ATOM     28  C   UNL     1      -2.696   9.879  15.959  0.00  0.00    +0.000 A 
ATOM     29  C   UNL     1      -3.935  10.502  15.813  0.00  0.00    +0.000 A 
ATOM     30  C   UNL     1      -4.374  11.380  16.795  0.00  0.00    +0.000 A 
ATOM     31  F   UNL     1      -5.556  11.993  16.650  0.00  0.00    +0.000 F 
ATOM     32  C   UNL     1      -3.604  11.638  17.925  0.00  0.00    +0.000 A 
ENDBRANCH  25  26
ENDBRANCH  24  25
ENDBRANCH  19  20
ENDBRANCH  17  19
ENDBRANCH   4  17
TORSDOF 8
ENDMDL
