MODEL 1
REMARK VINA RESULT:      -8.2      0.000      0.000
REMARK  Name = 
REMARK  8 active torsions:
REMARK  status: ('A' for Active; 'I' for Inactive)
REMARK    1  A    between atoms: C_1  and  C_2
REMARK    2  A    between atoms: C_2  and  C_3
REMARK    3  A    between atoms: C_3  and  N_4
REMARK    4  A    between atoms: N_4  and  N_5
REMARK    5  A    between atoms: C_6  and  C_8
REMARK    6  A    between atoms: C_11  and  C_12
REMARK    7  A    between atoms: C_12  and  N_13
REMARK    8  A    between atoms: C_14  and  C_16
REMARK                            x       y       z     vdW  Elec       q    Type
REMARK                         _______ _______ _______ _____ _____    ______ ____
ROOT
ATOM      1  C   UNL     1       5.954   4.666  16.009  0.00  0.00    +0.000 A 
ATOM      2  C   UNL     1       4.701   4.072  16.194  0.00  0.00    +0.000 A 
ATOM      3  C   UNL     1       4.026   4.203  17.414  0.00  0.00    +0.000 A 
ATOM      4  C   UNL     1       4.595   4.925  18.473  0.00  0.00    +0.000 A 
ATOM      5  C   UNL     1       5.859   5.505  18.287  0.00  0.00    +0.000 A 
ATOM      6  C   UNL     1       6.535   5.378  17.066  0.00  0.00    +0.000 A 
ENDROOT
BRANCH   1   8
ATOM      7  N   UNL     1       6.096   3.550  13.836  0.00  0.00    +0.000 N 
ATOM      8  C   UNL     1       6.656   4.481  14.705  0.00  0.00    +0.000 C 
ATOM      9  O   UNL     1       7.669   5.124  14.443  0.00  0.00    +0.000 OA
ATOM     10  H   UNL     1       5.418   2.875  14.176  0.00  0.00    +0.000 HD
BRANCH   7  11
ATOM     11  N   UNL     1       6.713   3.298  12.588  0.00  0.00    +0.000 NA
ATOM     12  H   UNL     1       7.033   4.204  12.219  0.00  0.00    +0.000 HD
BRANCH  11  13
ATOM     13  C   UNL     1       5.744   2.712  11.656  0.00  0.00    +0.000 C 
BRANCH  13  15
ATOM     14  C   UNL     1       3.447   2.942  10.650  0.00  0.00    +0.000 C 
ATOM     15  C   UNL     1       4.454   3.532  11.629  0.00  0.00    +0.000 C 
ENDBRANCH  13  15
ENDBRANCH  11  13
ENDBRANCH   7  11
ENDBRANCH   1   8
BRANCH   4  16
ATOM     16  C   UNL     1       3.819   5.169  19.741  0.00  0.00    +0.000 C 
BRANCH  16  17
ATOM     17  N   UNL     1       3.200   6.474  19.891  0.00  0.00    +0.000 N 
ATOM     18  C   UNL     1       1.947   6.489  20.486  0.00  0.00    +0.000 C 
ATOM     19  O   UNL     1       1.403   5.423  20.782  0.00  0.00    +0.000 OA
ATOM     20  H   UNL     1       3.721   7.332  19.762  0.00  0.00    +0.000 HD
BRANCH  18  21
ATOM     21  C   UNL     1       1.291   7.753  20.774  0.00  0.00    +0.000 A 
ATOM     22  C   UNL     1       1.291   8.874  19.963  0.00  0.00    +0.000 A 
ATOM     23  C   UNL     1       0.615   9.901  20.649  0.00  0.00    +0.000 A 
ATOM     24  C   UNL     1       0.321  11.246  20.371  0.00  0.00    +0.000 A 
ATOM     25  C   UNL     1      -0.358  11.982  21.341  0.00  0.00    +0.000 A 
ATOM     26  F   UNL     1      -0.629  13.275  21.099  0.00  0.00    +0.000 F 
ATOM     27  C   UNL     1      -0.749  11.419  22.550  0.00  0.00    +0.000 A 
ATOM     28  C   UNL     1      -0.474  10.069  22.836  0.00  0.00    +0.000 A 
ATOM     29  C   UNL     1       0.215   9.342  21.862  0.00  0.00    +0.000 A 
ATOM     30  O   UNL     1       0.609   8.024  21.935  0.00  0.00    +0.000 OA
ENDBRANCH  18  21
ENDBRANCH  16  17
ENDBRANCH   4  16
TORSDOF 7
ENDMDL
MODEL 2
REMARK VINA RESULT:      -7.8      1.041      1.472
REMARK  Name = 
REMARK  8 active torsions:
REMARK  status: ('A' for Active; 'I' for Inactive)
REMARK    1  A    between atoms: C_1  and  C_2
REMARK    2  A    between atoms: C_2  and  C_3
REMARK    3  A    between atoms: C_3  and  N_4
REMARK    4  A    between atoms: N_4  and  N_5
REMARK    5  A    between atoms: C_6  and  C_8
REMARK    6  A    between atoms: C_11  and  C_12
REMARK    7  A    between atoms: C_12  and  N_13
REMARK    8  A    between atoms: C_14  and  C_16
REMARK                            x       y       z     vdW  Elec       q    Type
REMARK                         _______ _______ _______ _____ _____    ______ ____
ROOT
ATOM      1  C   UNL     1       6.351   4.837  15.680  0.00  0.00    +0.000 A 
ATOM      2  C   UNL     1       4.964   5.005  15.750  0.00  0.00    +0.000 A 
ATOM      3  C   UNL     1       4.307   4.974  16.987  0.00  0.00    +0.000 A 
ATOM      4  C   UNL     1       5.025   4.770  18.174  0.00  0.00    +0.000 A 
ATOM      5  C   UNL     1       6.414   4.587  18.096  0.00  0.00    +0.000 A 
ATOM      6  C   UNL     1       7.074   4.621  16.860  0.00  0.00    +0.000 A 
ENDROOT
BRANCH   1   8
ATOM      7  N   UNL     1       6.492   3.972  13.395  0.00  0.00    +0.000 N 
ATOM      8  C   UNL     1       7.013   4.847  14.342  0.00  0.00    +0.000 C 
ATOM      9  O   UNL     1       7.963   5.593  14.120  0.00  0.00    +0.000 OA
ATOM     10  H   UNL     1       5.880   3.213  13.681  0.00  0.00    +0.000 HD
BRANCH   7  11
ATOM     11  N   UNL     1       7.075   3.903  12.109  0.00  0.00    +0.000 NA
ATOM     12  H   UNL     1       6.745   4.722  11.581  0.00  0.00    +0.000 HD
BRANCH  11  13
ATOM     13  C   UNL     1       6.644   2.681  11.423  0.00  0.00    +0.000 C 
BRANCH  13  15
ATOM     14  C   UNL     1       4.244   3.319  11.006  0.00  0.00    +0.000 C 
ATOM     15  C   UNL     1       5.182   2.369  11.740  0.00  0.00    +0.000 C 
ENDBRANCH  13  15
ENDBRANCH  11  13
ENDBRANCH   7  11
ENDBRANCH   1   8
BRANCH   4  16
ATOM     16  C   UNL     1       4.338   4.857  19.512  0.00  0.00    +0.000 C 
BRANCH  16  17
ATOM     17  N   UNL     1       3.771   6.144  19.876  0.00  0.00    +0.000 N 
ATOM     18  C   UNL     1       2.386   6.217  19.888  0.00  0.00    +0.000 C 
ATOM     19  O   UNL     1       1.722   5.241  19.530  0.00  0.00    +0.000 OA
ATOM     20  H   UNL     1       4.331   6.879  20.289  0.00  0.00    +0.000 HD
BRANCH  18  21
ATOM     21  C   UNL     1       1.723   7.429  20.339  0.00  0.00    +0.000 A 
ATOM     22  C   UNL     1       1.088   7.604  21.556  0.00  0.00    +0.000 A 
ATOM     23  C   UNL     1       0.509   8.888  21.557  0.00  0.00    +0.000 A 
ATOM     24  C   UNL     1      -0.272   9.618  22.469  0.00  0.00    +0.000 A 
ATOM     25  C   UNL     1      -0.704  10.888  22.091  0.00  0.00    +0.000 A 
ATOM     26  F   UNL     1      -1.469  11.591  22.943  0.00  0.00    +0.000 F 
ATOM     27  C   UNL     1      -0.375  11.439  20.858  0.00  0.00    +0.000 A 
ATOM     28  C   UNL     1       0.419  10.726  19.941  0.00  0.00    +0.000 A 
ATOM     29  C   UNL     1       0.839   9.450  20.325  0.00  0.00    +0.000 A 
ATOM     30  O   UNL     1       1.597   8.569  19.585  0.00  0.00    +0.000 OA
ENDBRANCH  18  21
ENDBRANCH  16  17
ENDBRANCH   4  16
TORSDOF 7
ENDMDL
MODEL 3
REMARK VINA RESULT:      -7.8      1.021      1.569
REMARK  Name = 
REMARK  8 active torsions:
REMARK  status: ('A' for Active; 'I' for Inactive)
REMARK    1  A    between atoms: C_1  and  C_2
REMARK    2  A    between atoms: C_2  and  C_3
REMARK    3  A    between atoms: C_3  and  N_4
REMARK    4  A    between atoms: N_4  and  N_5
REMARK    5  A    between atoms: C_6  and  C_8
REMARK    6  A    between atoms: C_11  and  C_12
REMARK    7  A    between atoms: C_12  and  N_13
REMARK    8  A    between atoms: C_14  and  C_16
REMARK                            x       y       z     vdW  Elec       q    Type
REMARK                         _______ _______ _______ _____ _____    ______ ____
ROOT
ATOM      1  C   UNL     1       5.934   4.587  15.428  0.00  0.00    +0.000 A 
ATOM      2  C   UNL     1       6.465   5.591  16.246  0.00  0.00    +0.000 A 
ATOM      3  C   UNL     1       5.970   5.786  17.542  0.00  0.00    +0.000 A 
ATOM      4  C   UNL     1       4.932   4.985  18.039  0.00  0.00    +0.000 A 
ATOM      5  C   UNL     1       4.393   3.991  17.209  0.00  0.00    +0.000 A 
ATOM      6  C   UNL     1       4.889   3.792  15.914  0.00  0.00    +0.000 A 
ENDROOT
BRANCH   1   8
ATOM      7  N   UNL     1       5.938   3.376  13.301  0.00  0.00    +0.000 N 
ATOM      8  C   UNL     1       6.467   4.427  14.043  0.00  0.00    +0.000 C 
ATOM      9  O   UNL     1       7.325   5.192  13.611  0.00  0.00    +0.000 OA
ATOM     10  H   UNL     1       5.422   2.632  13.762  0.00  0.00    +0.000 HD
BRANCH   7  11
ATOM     11  N   UNL     1       6.405   3.141  11.987  0.00  0.00    +0.000 NA
ATOM     12  H   UNL     1       6.187   3.981  11.433  0.00  0.00    +0.000 HD
BRANCH  11  13
ATOM     13  C   UNL     1       5.714   1.986  11.404  0.00  0.00    +0.000 C 
BRANCH  13  15
ATOM     14  C   UNL     1       6.042  -0.507  11.290  0.00  0.00    +0.000 C 
ATOM     15  C   UNL     1       6.700   0.855  11.114  0.00  0.00    +0.000 C 
ENDBRANCH  13  15
ENDBRANCH  11  13
ENDBRANCH   7  11
ENDBRANCH   1   8
BRANCH   4  16
ATOM     16  C   UNL     1       4.482   5.113  19.472  0.00  0.00    +0.000 C 
BRANCH  16  17
ATOM     17  N   UNL     1       3.825   6.353  19.846  0.00  0.00    +0.000 N 
ATOM     18  C   UNL     1       2.440   6.352  19.784  0.00  0.00    +0.000 C 
ATOM     19  O   UNL     1       1.852   5.355  19.357  0.00  0.00    +0.000 OA
ATOM     20  H   UNL     1       4.321   7.102  20.313  0.00  0.00    +0.000 HD
BRANCH  18  21
ATOM     21  C   UNL     1       1.688   7.508  20.237  0.00  0.00    +0.000 A 
ATOM     22  C   UNL     1       1.462   8.667  19.514  0.00  0.00    +0.000 A 
ATOM     23  C   UNL     1       0.765   9.564  20.346  0.00  0.00    +0.000 A 
ATOM     24  C   UNL     1       0.290  10.878  20.202  0.00  0.00    +0.000 A 
ATOM     25  C   UNL     1      -0.341  11.470  21.294  0.00  0.00    +0.000 A 
ATOM     26  F   UNL     1      -0.783  12.734  21.179  0.00  0.00    +0.000 F 
ATOM     27  C   UNL     1      -0.514  10.795  22.497  0.00  0.00    +0.000 A 
ATOM     28  C   UNL     1      -0.057   9.474  22.651  0.00  0.00    +0.000 A 
ATOM     29  C   UNL     1       0.583   8.891  21.554  0.00  0.00    +0.000 A 
ATOM     30  O   UNL     1       1.129   7.629  21.485  0.00  0.00    +0.000 OA
ENDBRANCH  18  21
ENDBRANCH  16  17
ENDBRANCH   4  16
TORSDOF 7
ENDMDL
MODEL 4
REMARK VINA RESULT:      -7.6      0.957      1.390
REMARK  Name = 
REMARK  8 active torsions:
REMARK  status: ('A' for Active; 'I' for Inactive)
REMARK    1  A    between atoms: C_1  and  C_2
REMARK    2  A    between atoms: C_2  and  C_3
REMARK    3  A    between atoms: C_3  and  N_4
REMARK    4  A    between atoms: N_4  and  N_5
REMARK    5  A    between atoms: C_6  and  C_8
REMARK    6  A    between atoms: C_11  and  C_12
REMARK    7  A    between atoms: C_12  and  N_13
REMARK    8  A    between atoms: C_14  and  C_16
REMARK                            x       y       z     vdW  Elec       q    Type
REMARK                         _______ _______ _______ _____ _____    ______ ____
ROOT
ATOM      1  C   UNL     1       5.714   4.916  16.075  0.00  0.00    +0.000 A 
ATOM      2  C   UNL     1       5.195   3.849  16.816  0.00  0.00    +0.000 A 
ATOM      3  C   UNL     1       4.529   4.082  18.025  0.00  0.00    +0.000 A 
ATOM      4  C   UNL     1       4.374   5.386  18.517  0.00  0.00    +0.000 A 
ATOM      5  C   UNL     1       4.910   6.451  17.777  0.00  0.00    +0.000 A 
ATOM      6  C   UNL     1       5.574   6.220  16.565  0.00  0.00    +0.000 A 
ENDROOT
BRANCH   1   8
ATOM      7  N   UNL     1       5.814   3.753  13.923  0.00  0.00    +0.000 N 
ATOM      8  C   UNL     1       6.443   4.627  14.805  0.00  0.00    +0.000 C 
ATOM      9  O   UNL     1       7.535   5.141  14.579  0.00  0.00    +0.000 OA
ATOM     10  H   UNL     1       5.046   3.170  14.241  0.00  0.00    +0.000 HD
BRANCH   7  11
ATOM     11  N   UNL     1       6.447   3.409  12.707  0.00  0.00    +0.000 NA
ATOM     12  H   UNL     1       7.358   3.888  12.692  0.00  0.00    +0.000 HD
BRANCH  11  13
ATOM     13  C   UNL     1       5.643   3.869  11.570  0.00  0.00    +0.000 C 
BRANCH  13  15
ATOM     14  C   UNL     1       3.467   3.589  10.334  0.00  0.00    +0.000 C 
ATOM     15  C   UNL     1       4.332   3.087  11.483  0.00  0.00    +0.000 C 
ENDBRANCH  13  15
ENDBRANCH  11  13
ENDBRANCH   7  11
ENDBRANCH   1   8
BRANCH   4  16
ATOM     16  C   UNL     1       3.554   5.649  19.753  0.00  0.00    +0.000 C 
BRANCH  16  17
ATOM     17  N   UNL     1       2.917   6.950  19.854  0.00  0.00    +0.000 N 
ATOM     18  C   UNL     1       1.755   7.003  20.610  0.00  0.00    +0.000 C 
ATOM     19  O   UNL     1       1.291   5.963  21.084  0.00  0.00    +0.000 OA
ATOM     20  H   UNL     1       3.387   7.800  19.569  0.00  0.00    +0.000 HD
BRANCH  18  21
ATOM     21  C   UNL     1       1.102   8.277  20.857  0.00  0.00    +0.000 A 
ATOM     22  C   UNL     1       0.598   8.712  22.070  0.00  0.00    +0.000 A 
ATOM     23  C   UNL     1      -0.024   9.957  21.855  0.00  0.00    +0.000 A 
ATOM     24  C   UNL     1      -0.726  10.862  22.668  0.00  0.00    +0.000 A 
ATOM     25  C   UNL     1      -1.243  12.012  22.074  0.00  0.00    +0.000 A 
ATOM     26  F   UNL     1      -1.935  12.878  22.833  0.00  0.00    +0.000 F 
ATOM     27  C   UNL     1      -1.072  12.279  20.719  0.00  0.00    +0.000 A 
ATOM     28  C   UNL     1      -0.358  11.388  19.897  0.00  0.00    +0.000 A 
ATOM     29  C   UNL     1       0.149  10.234  20.500  0.00  0.00    +0.000 A 
ATOM     30  O   UNL     1       0.852   9.219  19.890  0.00  0.00    +0.000 OA
ENDBRANCH  18  21
ENDBRANCH  16  17
ENDBRANCH   4  16
TORSDOF 7
ENDMDL
MODEL 5
REMARK VINA RESULT:      -7.6      5.335     10.373
REMARK  Name = 
REMARK  8 active torsions:
REMARK  status: ('A' for Active; 'I' for Inactive)
REMARK    1  A    between atoms: C_1  and  C_2
REMARK    2  A    between atoms: C_2  and  C_3
REMARK    3  A    between atoms: C_3  and  N_4
REMARK    4  A    between atoms: N_4  and  N_5
REMARK    5  A    between atoms: C_6  and  C_8
REMARK    6  A    between atoms: C_11  and  C_12
REMARK    7  A    between atoms: C_12  and  N_13
REMARK    8  A    between atoms: C_14  and  C_16
REMARK                            x       y       z     vdW  Elec       q    Type
REMARK                         _______ _______ _______ _____ _____    ______ ____
ROOT
ATOM      1  C   UNL     1      -2.769  11.261  17.850  0.00  0.00    +0.000 A 
ATOM      2  C   UNL     1      -1.973  10.275  17.257  0.00  0.00    +0.000 A 
ATOM      3  C   UNL     1      -0.734   9.932  17.814  0.00  0.00    +0.000 A 
ATOM      4  C   UNL     1      -0.268  10.574  18.970  0.00  0.00    +0.000 A 
ATOM      5  C   UNL     1      -1.063  11.572  19.552  0.00  0.00    +0.000 A 
ATOM      6  C   UNL     1      -2.305  11.914  18.999  0.00  0.00    +0.000 A 
ENDROOT
BRANCH   1   8
ATOM      7  N   UNL     1      -4.834  12.574  17.876  0.00  0.00    +0.000 N 
ATOM      8  C   UNL     1      -4.070  11.619  17.212  0.00  0.00    +0.000 C 
ATOM      9  O   UNL     1      -4.422  11.083  16.164  0.00  0.00    +0.000 OA
ATOM     10  H   UNL     1      -4.632  12.810  18.842  0.00  0.00    +0.000 HD
BRANCH   7  11
ATOM     11  N   UNL     1      -6.091  12.954  17.349  0.00  0.00    +0.000 NA
ATOM     12  H   UNL     1      -6.256  13.930  17.632  0.00  0.00    +0.000 HD
BRANCH  11  13
ATOM     13  C   UNL     1      -7.149  12.105  17.906  0.00  0.00    +0.000 C 
BRANCH  13  15
ATOM     14  C   UNL     1      -7.153  11.341  20.305  0.00  0.00    +0.000 C 
ATOM     15  C   UNL     1      -7.450  12.493  19.354  0.00  0.00    +0.000 C 
ENDBRANCH  13  15
ENDBRANCH  11  13
ENDBRANCH   7  11
ENDBRANCH   1   8
BRANCH   4  16
ATOM     16  C   UNL     1       1.005  10.123  19.639  0.00  0.00    +0.000 C 
BRANCH  16  17
ATOM     17  N   UNL     1       1.526   8.824  19.251  0.00  0.00    +0.000 N 
ATOM     18  C   UNL     1       1.629   7.882  20.263  0.00  0.00    +0.000 C 
ATOM     19  O   UNL     1       1.354   8.203  21.422  0.00  0.00    +0.000 OA
ATOM     20  H   UNL     1       1.617   8.551  18.281  0.00  0.00    +0.000 HD
BRANCH  18  21
ATOM     21  C   UNL     1       2.040   6.523  19.957  0.00  0.00    +0.000 A 
ATOM     22  C   UNL     1       2.830   6.133  18.890  0.00  0.00    +0.000 A 
ATOM     23  C   UNL     1       2.918   4.727  18.912  0.00  0.00    +0.000 A 
ATOM     24  C   UNL     1       3.534   3.764  18.096  0.00  0.00    +0.000 A 
ATOM     25  C   UNL     1       3.364   2.421  18.425  0.00  0.00    +0.000 A 
ATOM     26  F   UNL     1       3.930   1.486  17.643  0.00  0.00    +0.000 F 
ATOM     27  C   UNL     1       2.618   2.024  19.530  0.00  0.00    +0.000 A 
ATOM     28  C   UNL     1       2.008   2.978  20.364  0.00  0.00    +0.000 A 
ATOM     29  C   UNL     1       2.176   4.322  20.020  0.00  0.00    +0.000 A 
ATOM     30  O   UNL     1       1.654   5.417  20.672  0.00  0.00    +0.000 OA
ENDBRANCH  18  21
ENDBRANCH  16  17
ENDBRANCH   4  16
TORSDOF 7
ENDMDL
MODEL 6
REMARK VINA RESULT:      -7.5      5.332      7.708
REMARK  Name = 
REMARK  8 active torsions:
REMARK  status: ('A' for Active; 'I' for Inactive)
REMARK    1  A    between atoms: C_1  and  C_2
REMARK    2  A    between atoms: C_2  and  C_3
REMARK    3  A    between atoms: C_3  and  N_4
REMARK    4  A    between atoms: N_4  and  N_5
REMARK    5  A    between atoms: C_6  and  C_8
REMARK    6  A    between atoms: C_11  and  C_12
REMARK    7  A    between atoms: C_12  and  N_13
REMARK    8  A    between atoms: C_14  and  C_16
REMARK                            x       y       z     vdW  Elec       q    Type
REMARK                         _______ _______ _______ _____ _____    ______ ____
ROOT
ATOM      1  C   UNL     1       3.501   4.635  17.344  0.00  0.00    +0.000 A 
ATOM      2  C   UNL     1       3.786   5.967  17.663  0.00  0.00    +0.000 A 
ATOM      3  C   UNL     1       5.065   6.492  17.442  0.00  0.00    +0.000 A 
ATOM      4  C   UNL     1       6.083   5.693  16.901  0.00  0.00    +0.000 A 
ATOM      5  C   UNL     1       5.796   4.354  16.597  0.00  0.00    +0.000 A 
ATOM      6  C   UNL     1       4.516   3.827  16.815  0.00  0.00    +0.000 A 
ENDROOT
BRANCH   1   8
ATOM      7  N   UNL     1       2.074   2.806  18.122  0.00  0.00    +0.000 N 
ATOM      8  C   UNL     1       2.135   4.102  17.621  0.00  0.00    +0.000 C 
ATOM      9  O   UNL     1       1.139   4.789  17.406  0.00  0.00    +0.000 OA
ATOM     10  H   UNL     1       2.881   2.193  18.059  0.00  0.00    +0.000 HD
BRANCH   7  11
ATOM     11  N   UNL     1       0.816   2.217  18.391  0.00  0.00    +0.000 NA
ATOM     12  H   UNL     1       0.117   2.726  17.833  0.00  0.00    +0.000 HD
BRANCH  11  13
ATOM     13  C   UNL     1       0.489   2.354  19.814  0.00  0.00    +0.000 C 
BRANCH  13  15
ATOM     14  C   UNL     1       1.799   3.923  21.285  0.00  0.00    +0.000 C 
ATOM     15  C   UNL     1       1.757   2.540  20.647  0.00  0.00    +0.000 C 
ENDBRANCH  13  15
ENDBRANCH  11  13
ENDBRANCH   7  11
ENDBRANCH   1   8
BRANCH   4  16
ATOM     16  C   UNL     1       7.422   6.288  16.549  0.00  0.00    +0.000 C 
BRANCH  16  17
ATOM     17  N   UNL     1       7.621   7.691  16.866  0.00  0.00    +0.000 N 
ATOM     18  C   UNL     1       8.209   7.961  18.093  0.00  0.00    +0.000 C 
ATOM     19  O   UNL     1       8.460   7.032  18.864  0.00  0.00    +0.000 OA
ATOM     20  H   UNL     1       7.528   8.417  16.167  0.00  0.00    +0.000 HD
BRANCH  18  21
ATOM     21  C   UNL     1       8.545   9.327  18.456  0.00  0.00    +0.000 A 
ATOM     22  C   UNL     1       8.314  10.454  17.687  0.00  0.00    +0.000 A 
ATOM     23  C   UNL     1       8.864  11.558  18.367  0.00  0.00    +0.000 A 
ATOM     24  C   UNL     1       8.976  12.931  18.091  0.00  0.00    +0.000 A 
ATOM     25  C   UNL     1       9.640  13.733  19.017  0.00  0.00    +0.000 A 
ATOM     26  F   UNL     1       9.773  15.045  18.759  0.00  0.00    +0.000 F 
ATOM     27  C   UNL     1      10.177  13.211  20.190  0.00  0.00    +0.000 A 
ATOM     28  C   UNL     1      10.059  11.841  20.485  0.00  0.00    +0.000 A 
ATOM     29  C   UNL     1       9.399  11.044  19.547  0.00  0.00    +0.000 A 
ATOM     30  O   UNL     1       9.190   9.684  19.614  0.00  0.00    +0.000 OA
ENDBRANCH  18  21
ENDBRANCH  16  17
ENDBRANCH   4  16
TORSDOF 7
ENDMDL
MODEL 7
REMARK VINA RESULT:      -7.4      1.689      2.401
REMARK  Name = 
REMARK  8 active torsions:
REMARK  status: ('A' for Active; 'I' for Inactive)
REMARK    1  A    between atoms: C_1  and  C_2
REMARK    2  A    between atoms: C_2  and  C_3
REMARK    3  A    between atoms: C_3  and  N_4
REMARK    4  A    between atoms: N_4  and  N_5
REMARK    5  A    between atoms: C_6  and  C_8
REMARK    6  A    between atoms: C_11  and  C_12
REMARK    7  A    between atoms: C_12  and  N_13
REMARK    8  A    between atoms: C_14  and  C_16
REMARK                            x       y       z     vdW  Elec       q    Type
REMARK                         _______ _______ _______ _____ _____    ______ ____
ROOT
ATOM      1  C   UNL     1       5.185   5.070  16.032  0.00  0.00    +0.000 A 
ATOM      2  C   UNL     1       5.154   6.451  16.254  0.00  0.00    +0.000 A 
ATOM      3  C   UNL     1       4.326   6.992  17.246  0.00  0.00    +0.000 A 
ATOM      4  C   UNL     1       3.512   6.162  18.030  0.00  0.00    +0.000 A 
ATOM      5  C   UNL     1       3.537   4.779  17.793  0.00  0.00    +0.000 A 
ATOM      6  C   UNL     1       4.366   4.236  16.803  0.00  0.00    +0.000 A 
ENDROOT
BRANCH   1   8
ATOM      7  N   UNL     1       5.402   3.954  13.865  0.00  0.00    +0.000 N 
ATOM      8  C   UNL     1       6.058   4.533  14.947  0.00  0.00    +0.000 C 
ATOM      9  O   UNL     1       7.281   4.607  15.033  0.00  0.00    +0.000 OA
ATOM     10  H   UNL     1       4.423   3.696  13.938  0.00  0.00    +0.000 HD
BRANCH   7  11
ATOM     11  N   UNL     1       6.155   3.401  12.803  0.00  0.00    +0.000 NA
ATOM     12  H   UNL     1       6.691   4.170  12.377  0.00  0.00    +0.000 HD
BRANCH  11  13
ATOM     13  C   UNL     1       5.260   2.821  11.797  0.00  0.00    +0.000 C 
BRANCH  13  15
ATOM     14  C   UNL     1       7.368   1.658  11.061  0.00  0.00    +0.000 C 
ATOM     15  C   UNL     1       5.857   1.541  11.213  0.00  0.00    +0.000 C 
ENDBRANCH  13  15
ENDBRANCH  11  13
ENDBRANCH   7  11
ENDBRANCH   1   8
BRANCH   4  16
ATOM     16  C   UNL     1       2.715   6.728  19.176  0.00  0.00    +0.000 C 
BRANCH  16  17
ATOM     17  N   UNL     1       1.997   7.966  18.929  0.00  0.00    +0.000 N 
ATOM     18  C   UNL     1       1.470   8.598  20.045  0.00  0.00    +0.000 C 
ATOM     19  O   UNL     1       1.568   8.061  21.151  0.00  0.00    +0.000 OA
ATOM     20  H   UNL     1       2.046   8.445  18.039  0.00  0.00    +0.000 HD
BRANCH  18  21
ATOM     21  C   UNL     1       0.825   9.893  19.913  0.00  0.00    +0.000 A 
ATOM     22  C   UNL     1       1.218  10.916  19.068  0.00  0.00    +0.000 A 
ATOM     23  C   UNL     1       0.380  12.021  19.312  0.00  0.00    +0.000 A 
ATOM     24  C   UNL     1       0.299  13.329  18.807  0.00  0.00    +0.000 A 
ATOM     25  C   UNL     1      -0.673  14.177  19.335  0.00  0.00    +0.000 A 
ATOM     26  F   UNL     1      -0.749  15.438  18.878  0.00  0.00    +0.000 F 
ATOM     27  C   UNL     1      -1.553  13.757  20.326  0.00  0.00    +0.000 A 
ATOM     28  C   UNL     1      -1.494  12.445  20.830  0.00  0.00    +0.000 A 
ATOM     29  C   UNL     1      -0.510  11.605  20.301  0.00  0.00    +0.000 A 
ATOM     30  O   UNL     1      -0.254  10.300  20.658  0.00  0.00    +0.000 OA
ENDBRANCH  18  21
ENDBRANCH  16  17
ENDBRANCH   4  16
TORSDOF 7
ENDMDL
MODEL 8
REMARK VINA RESULT:      -7.3      6.424      7.985
REMARK  Name = 
REMARK  8 active torsions:
REMARK  status: ('A' for Active; 'I' for Inactive)
REMARK    1  A    between atoms: C_1  and  C_2
REMARK    2  A    between atoms: C_2  and  C_3
REMARK    3  A    between atoms: C_3  and  N_4
REMARK    4  A    between atoms: N_4  and  N_5
REMARK    5  A    between atoms: C_6  and  C_8
REMARK    6  A    between atoms: C_11  and  C_12
REMARK    7  A    between atoms: C_12  and  N_13
REMARK    8  A    between atoms: C_14  and  C_16
REMARK                            x       y       z     vdW  Elec       q    Type
REMARK                         _______ _______ _______ _____ _____    ______ ____
ROOT
ATOM      1  C   UNL     1       5.787   5.312  18.311  0.00  0.00    +0.000 A 
ATOM      2  C   UNL     1       7.018   5.416  18.968  0.00  0.00    +0.000 A 
ATOM      3  C   UNL     1       7.868   6.500  18.716  0.00  0.00    +0.000 A 
ATOM      4  C   UNL     1       7.504   7.496  17.798  0.00  0.00    +0.000 A 
ATOM      5  C   UNL     1       6.275   7.379  17.131  0.00  0.00    +0.000 A 
ATOM      6  C   UNL     1       5.422   6.296  17.385  0.00  0.00    +0.000 A 
ENDROOT
BRANCH   1   8
ATOM      7  N   UNL     1       3.828   3.961  17.739  0.00  0.00    +0.000 N 
ATOM      8  C   UNL     1       4.920   4.128  18.584  0.00  0.00    +0.000 C 
ATOM      9  O   UNL     1       5.178   3.364  19.511  0.00  0.00    +0.000 OA
ATOM     10  H   UNL     1       3.513   4.727  17.152  0.00  0.00    +0.000 HD
BRANCH   7  11
ATOM     11  N   UNL     1       2.944   2.875  17.943  0.00  0.00    +0.000 NA
ATOM     12  H   UNL     1       2.933   2.325  17.073  0.00  0.00    +0.000 HD
BRANCH  11  13
ATOM     13  C   UNL     1       1.592   3.371  18.217  0.00  0.00    +0.000 C 
BRANCH  13  15
ATOM     14  C   UNL     1       1.176   3.565  20.693  0.00  0.00    +0.000 C 
ATOM     15  C   UNL     1       1.007   2.693  19.456  0.00  0.00    +0.000 C 
ENDBRANCH  13  15
ENDBRANCH  11  13
ENDBRANCH   7  11
ENDBRANCH   1   8
BRANCH   4  16
ATOM     16  C   UNL     1       8.360   8.723  17.616  0.00  0.00    +0.000 C 
BRANCH  16  17
ATOM     17  N   UNL     1       8.451   9.633  18.744  0.00  0.00    +0.000 N 
ATOM     18  C   UNL     1       9.386  10.651  18.632  0.00  0.00    +0.000 C 
ATOM     19  O   UNL     1      10.124  10.691  17.644  0.00  0.00    +0.000 OA
ATOM     20  H   UNL     1       7.749   9.654  19.473  0.00  0.00    +0.000 HD
BRANCH  18  21
ATOM     21  C   UNL     1       9.480  11.672  19.660  0.00  0.00    +0.000 A 
ATOM     22  C   UNL     1       9.019  11.563  20.960  0.00  0.00    +0.000 A 
ATOM     23  C   UNL     1       9.232  12.801  21.597  0.00  0.00    +0.000 A 
ATOM     24  C   UNL     1       8.956  13.314  22.875  0.00  0.00    +0.000 A 
ATOM     25  C   UNL     1       9.292  14.641  23.136  0.00  0.00    +0.000 A 
ATOM     26  F   UNL     1       9.016  15.153  24.347  0.00  0.00    +0.000 F 
ATOM     27  C   UNL     1       9.892  15.449  22.175  0.00  0.00    +0.000 A 
ATOM     28  C   UNL     1      10.187  14.944  20.896  0.00  0.00    +0.000 A 
ATOM     29  C   UNL     1       9.839  13.615  20.641  0.00  0.00    +0.000 A 
ATOM     30  O   UNL     1      10.009  12.924  19.463  0.00  0.00    +0.000 OA
ENDBRANCH  18  21
ENDBRANCH  16  17
ENDBRANCH   4  16
TORSDOF 7
ENDMDL
MODEL 9
REMARK VINA RESULT:      -7.3      4.361      6.563
REMARK  Name = 
REMARK  8 active torsions:
REMARK  status: ('A' for Active; 'I' for Inactive)
REMARK    1  A    between atoms: C_1  and  C_2
REMARK    2  A    between atoms: C_2  and  C_3
REMARK    3  A    between atoms: C_3  and  N_4
REMARK    4  A    between atoms: N_4  and  N_5
REMARK    5  A    between atoms: C_6  and  C_8
REMARK    6  A    between atoms: C_11  and  C_12
REMARK    7  A    between atoms: C_12  and  N_13
REMARK    8  A    between atoms: C_14  and  C_16
REMARK                            x       y       z     vdW  Elec       q    Type
REMARK                         _______ _______ _______ _____ _____    ______ ____
ROOT
ATOM      1  C   UNL     1       2.311   7.117  19.469  0.00  0.00    +0.000 A 
ATOM      2  C   UNL     1       2.339   7.887  18.301  0.00  0.00    +0.000 A 
ATOM      3  C   UNL     1       1.766   9.165  18.279  0.00  0.00    +0.000 A 
ATOM      4  C   UNL     1       1.151   9.693  19.424  0.00  0.00    +0.000 A 
ATOM      5  C   UNL     1       1.113   8.911  20.587  0.00  0.00    +0.000 A 
ATOM      6  C   UNL     1       1.688   7.633  20.612  0.00  0.00    +0.000 A 
ENDROOT
BRANCH   1   8
ATOM      7  N   UNL     1       2.324   4.815  20.299  0.00  0.00    +0.000 N 
ATOM      8  C   UNL     1       2.905   5.748  19.446  0.00  0.00    +0.000 C 
ATOM      9  O   UNL     1       3.855   5.490  18.711  0.00  0.00    +0.000 OA
ATOM     10  H   UNL     1       1.716   5.118  21.053  0.00  0.00    +0.000 HD
BRANCH   7  11
ATOM     11  N   UNL     1       2.842   3.500  20.354  0.00  0.00    +0.000 NA
ATOM     12  H   UNL     1       3.509   3.402  19.577  0.00  0.00    +0.000 HD
BRANCH  11  13
ATOM     13  C   UNL     1       1.760   2.524  20.187  0.00  0.00    +0.000 C 
BRANCH  13  15
ATOM     14  C   UNL     1       2.422   2.274  17.771  0.00  0.00    +0.000 C 
ATOM     15  C   UNL     1       1.269   2.502  18.740  0.00  0.00    +0.000 C 
ENDBRANCH  13  15
ENDBRANCH  11  13
ENDBRANCH   7  11
ENDBRANCH   1   8
BRANCH   4  16
ATOM     16  C   UNL     1       0.644  11.112  19.438  0.00  0.00    +0.000 C 
BRANCH  16  17
ATOM     17  N   UNL     1      -0.712  11.320  19.914  0.00  0.00    +0.000 N 
ATOM     18  C   UNL     1      -0.836  11.943  21.146  0.00  0.00    +0.000 C 
ATOM     19  O   UNL     1       0.178  12.216  21.794  0.00  0.00    +0.000 OA
ATOM     20  H   UNL     1      -1.515  11.208  19.308  0.00  0.00    +0.000 HD
BRANCH  18  21
ATOM     21  C   UNL     1      -2.150  12.289  21.660  0.00  0.00    +0.000 A 
ATOM     22  C   UNL     1      -2.515  12.338  22.994  0.00  0.00    +0.000 A 
ATOM     23  C   UNL     1      -3.891  12.630  23.052  0.00  0.00    +0.000 A 
ATOM     24  C   UNL     1      -4.826  12.777  24.091  0.00  0.00    +0.000 A 
ATOM     25  C   UNL     1      -6.151  13.039  23.747  0.00  0.00    +0.000 A 
ATOM     26  F   UNL     1      -7.062  13.162  24.727  0.00  0.00    +0.000 F 
ATOM     27  C   UNL     1      -6.555  13.166  22.422  0.00  0.00    +0.000 A 
ATOM     28  C   UNL     1      -5.627  13.036  21.373  0.00  0.00    +0.000 A 
ATOM     29  C   UNL     1      -4.303  12.764  21.727  0.00  0.00    +0.000 A 
ATOM     30  O   UNL     1      -3.239  12.575  20.874  0.00  0.00    +0.000 OA
ENDBRANCH  18  21
ENDBRANCH  16  17
ENDBRANCH   4  16
TORSDOF 7
ENDMDL
