MODEL 1
REMARK VINA RESULT:      -8.3      0.000      0.000
REMARK  Name = 
REMARK  9 active torsions:
REMARK  status: ('A' for Active; 'I' for Inactive)
REMARK    1  A    between atoms: C_1  and  O_2
REMARK    2  A    between atoms: O_2  and  C_3
REMARK    3  A    between atoms: C_7  and  C_8
REMARK    4  A    between atoms: C_8  and  C_10
REMARK    5  A    between atoms: C_12  and  C_13
REMARK    6  A    between atoms: C_13  and  N_14
REMARK    7  A    between atoms: C_17  and  C_18
REMARK    8  A    between atoms: C_24  and  O_25
REMARK    9  A    between atoms: O_25  and  C_26
REMARK                            x       y       z     vdW  Elec       q    Type
REMARK                         _______ _______ _______ _____ _____    ______ ____
ROOT
ATOM      1  N   UNL     1       1.066   9.635  19.503  0.00  0.00    +0.000 NA
ATOM      2  C   UNL     1       1.692   9.702  18.173  0.00  0.00    +0.000 C 
ATOM      3  C   UNL     1       2.337   8.440  17.680  0.00  0.00    +0.000 C 
ATOM      4  C   UNL     1       2.436   7.313  18.405  0.00  0.00    +0.000 C 
ATOM      5  C   UNL     1       1.863   7.282  19.799  0.00  0.00    +0.000 C 
ATOM      6  C   UNL     1       1.766   8.695  20.395  0.00  0.00    +0.000 C 
ENDROOT
BRANCH   4   7
ATOM      7  C   UNL     1       3.080   6.116  17.951  0.00  0.00    +0.000 A 
ATOM      8  C   UNL     1       2.499   4.863  17.918  0.00  0.00    +0.000 A 
ATOM      9  N   UNL     1       3.428   3.970  17.444  0.00  0.00    +0.000 N 
ATOM     10  C   UNL     1       4.609   4.619  17.172  0.00  0.00    +0.000 A 
ATOM     11  C   UNL     1       5.839   4.156  16.704  0.00  0.00    +0.000 A 
ATOM     12  C   UNL     1       6.832   5.122  16.552  0.00  0.00    +0.000 A 
ATOM     13  C   UNL     1       6.549   6.448  16.858  0.00  0.00    +0.000 A 
ATOM     14  N   UNL     1       5.369   6.903  17.307  0.00  0.00    +0.000 NA
ATOM     15  C   UNL     1       4.407   5.966  17.465  0.00  0.00    +0.000 A 
ATOM     16  H   UNL     1       3.272   2.980  17.320  0.00  0.00    +0.000 HD
BRANCH  13  17
ATOM     17  O   UNL     1       7.585   7.350  16.677  0.00  0.00    +0.000 OA
ATOM     18  C   UNL     1       7.921   8.031  17.887  0.00  0.00    +0.000 C 
ENDBRANCH  13  17
ENDBRANCH   4   7
BRANCH   1  19
ATOM     19  C   UNL     1       1.010  10.964  20.129  0.00  0.00    +0.000 C 
BRANCH  19  22
ATOM     20  C   UNL     1      -1.098  12.465  20.523  0.00  0.00    +0.000 C 
ATOM     21  C   UNL     1      -0.462  12.247  21.878  0.00  0.00    +0.000 C 
ATOM     22  C   UNL     1      -0.305  11.199  20.809  0.00  0.00    +0.000 C 
BRANCH  20  23
ATOM     23  C   UNL     1      -2.584  12.366  20.358  0.00  0.00    +0.000 C 
ATOM     24  O   UNL     1      -3.320  12.650  21.302  0.00  0.00    +0.000 OA
BRANCH  23  29
ATOM     25  C   UNL     1      -3.058  10.863  16.880  0.00  0.00    +0.000 A 
ATOM     26  C   UNL     1      -4.429  11.077  16.703  0.00  0.00    +0.000 A 
ATOM     27  C   UNL     1      -5.177  11.710  17.693  0.00  0.00    +0.000 A 
ATOM     28  C   UNL     1      -4.557  12.126  18.870  0.00  0.00    +0.000 A 
ATOM     29  C   UNL     1      -3.184  11.914  19.068  0.00  0.00    +0.000 A 
ATOM     30  C   UNL     1      -2.438  11.290  18.059  0.00  0.00    +0.000 A 
BRANCH  25  32
ATOM     31  C   UNL     1      -3.115  10.263  14.580  0.00  0.00    +0.000 C 
ATOM     32  O   UNL     1      -2.438  10.239  15.831  0.00  0.00    +0.000 OA
ENDBRANCH  25  32
ENDBRANCH  23  29
ENDBRANCH  20  23
ENDBRANCH  19  22
ENDBRANCH   1  19
TORSDOF 7
ENDMDL
MODEL 2
REMARK VINA RESULT:      -8.1      1.396      1.929
REMARK  Name = 
REMARK  9 active torsions:
REMARK  status: ('A' for Active; 'I' for Inactive)
REMARK    1  A    between atoms: C_1  and  O_2
REMARK    2  A    between atoms: O_2  and  C_3
REMARK    3  A    between atoms: C_7  and  C_8
REMARK    4  A    between atoms: C_8  and  C_10
REMARK    5  A    between atoms: C_12  and  C_13
REMARK    6  A    between atoms: C_13  and  N_14
REMARK    7  A    between atoms: C_17  and  C_18
REMARK    8  A    between atoms: C_24  and  O_25
REMARK    9  A    between atoms: O_25  and  C_26
REMARK                            x       y       z     vdW  Elec       q    Type
REMARK                         _______ _______ _______ _____ _____    ______ ____
ROOT
ATOM      1  N   UNL     1       1.035   8.707  20.193  0.00  0.00    +0.000 NA
ATOM      2  C   UNL     1       1.576   9.047  18.867  0.00  0.00    +0.000 C 
ATOM      3  C   UNL     1       2.255   7.935  18.124  0.00  0.00    +0.000 C 
ATOM      4  C   UNL     1       2.458   6.707  18.629  0.00  0.00    +0.000 C 
ATOM      5  C   UNL     1       1.971   6.394  20.022  0.00  0.00    +0.000 C 
ATOM      6  C   UNL     1       1.835   7.670  20.866  0.00  0.00    +0.000 C 
ENDROOT
BRANCH   4   7
ATOM      7  C   UNL     1       3.135   5.652  17.937  0.00  0.00    +0.000 A 
ATOM      8  C   UNL     1       2.619   4.391  17.703  0.00  0.00    +0.000 A 
ATOM      9  N   UNL     1       3.565   3.656  17.032  0.00  0.00    +0.000 N 
ATOM     10  C   UNL     1       4.693   4.413  16.829  0.00  0.00    +0.000 A 
ATOM     11  C   UNL     1       5.917   4.117  16.228  0.00  0.00    +0.000 A 
ATOM     12  C   UNL     1       6.850   5.154  16.209  0.00  0.00    +0.000 A 
ATOM     13  C   UNL     1       6.516   6.383  16.762  0.00  0.00    +0.000 A 
ATOM     14  N   UNL     1       5.341   6.678  17.341  0.00  0.00    +0.000 NA
ATOM     15  C   UNL     1       4.439   5.671  17.371  0.00  0.00    +0.000 A 
ATOM     16  H   UNL     1       3.453   2.696  16.738  0.00  0.00    +0.000 HD
BRANCH  13  17
ATOM     17  O   UNL     1       7.492   7.365  16.702  0.00  0.00    +0.000 OA
ATOM     18  C   UNL     1       7.930   7.769  17.999  0.00  0.00    +0.000 C 
ENDBRANCH  13  17
ENDBRANCH   4   7
BRANCH   1  19
ATOM     19  C   UNL     1       0.946   9.898  21.050  0.00  0.00    +0.000 C 
BRANCH  19  22
ATOM     20  C   UNL     1       0.093  12.125  19.970  0.00  0.00    +0.000 C 
ATOM     21  C   UNL     1      -0.480  12.075  21.368  0.00  0.00    +0.000 C 
ATOM     22  C   UNL     1      -0.188  10.790  20.641  0.00  0.00    +0.000 C 
BRANCH  20  23
ATOM     23  C   UNL     1      -0.762  12.548  18.814  0.00  0.00    +0.000 C 
ATOM     24  O   UNL     1      -0.494  13.585  18.208  0.00  0.00    +0.000 OA
BRANCH  23  29
ATOM     25  C   UNL     1      -4.331  11.303  18.279  0.00  0.00    +0.000 A 
ATOM     26  C   UNL     1      -4.081  10.153  17.522  0.00  0.00    +0.000 A 
ATOM     27  C   UNL     1      -2.774   9.788  17.206  0.00  0.00    +0.000 A 
ATOM     28  C   UNL     1      -1.710  10.576  17.641  0.00  0.00    +0.000 A 
ATOM     29  C   UNL     1      -1.942  11.736  18.396  0.00  0.00    +0.000 A 
ATOM     30  C   UNL     1      -3.260  12.086  18.720  0.00  0.00    +0.000 A 
BRANCH  25  32
ATOM     31  C   UNL     1      -6.453  10.428  18.897  0.00  0.00    +0.000 C 
ATOM     32  O   UNL     1      -5.655  11.545  18.526  0.00  0.00    +0.000 OA
ENDBRANCH  25  32
ENDBRANCH  23  29
ENDBRANCH  20  23
ENDBRANCH  19  22
ENDBRANCH   1  19
TORSDOF 7
ENDMDL
MODEL 3
REMARK VINA RESULT:      -8.1      2.666      9.972
REMARK  Name = 
REMARK  9 active torsions:
REMARK  status: ('A' for Active; 'I' for Inactive)
REMARK    1  A    between atoms: C_1  and  O_2
REMARK    2  A    between atoms: O_2  and  C_3
REMARK    3  A    between atoms: C_7  and  C_8
REMARK    4  A    between atoms: C_8  and  C_10
REMARK    5  A    between atoms: C_12  and  C_13
REMARK    6  A    between atoms: C_13  and  N_14
REMARK    7  A    between atoms: C_17  and  C_18
REMARK    8  A    between atoms: C_24  and  O_25
REMARK    9  A    between atoms: O_25  and  C_26
REMARK                            x       y       z     vdW  Elec       q    Type
REMARK                         _______ _______ _______ _____ _____    ______ ____
ROOT
ATOM      1  N   UNL     1       2.523   5.469  18.221  0.00  0.00    +0.000 NA
ATOM      2  C   UNL     1       2.123   5.158  19.602  0.00  0.00    +0.000 C 
ATOM      3  C   UNL     1       1.607   6.307  20.418  0.00  0.00    +0.000 C 
ATOM      4  C   UNL     1       1.571   7.579  19.986  0.00  0.00    +0.000 C 
ATOM      5  C   UNL     1       2.061   7.899  18.596  0.00  0.00    +0.000 C 
ATOM      6  C   UNL     1       3.052   6.838  18.095  0.00  0.00    +0.000 C 
ENDROOT
BRANCH   4   7
ATOM      7  C   UNL     1       1.111   8.685  20.772  0.00  0.00    +0.000 A 
ATOM      8  C   UNL     1       1.375   8.873  22.115  0.00  0.00    +0.000 A 
ATOM      9  N   UNL     1       0.752  10.028  22.519  0.00  0.00    +0.000 N 
ATOM     10  C   UNL     1       0.080  10.595  21.463  0.00  0.00    +0.000 A 
ATOM     11  C   UNL     1      -0.712  11.740  21.370  0.00  0.00    +0.000 A 
ATOM     12  C   UNL     1      -1.248  12.005  20.111  0.00  0.00    +0.000 A 
ATOM     13  C   UNL     1      -0.968  11.149  19.054  0.00  0.00    +0.000 A 
ATOM     14  N   UNL     1      -0.206  10.046  19.133  0.00  0.00    +0.000 NA
ATOM     15  C   UNL     1       0.306   9.780  20.355  0.00  0.00    +0.000 A 
ATOM     16  H   UNL     1       0.775  10.403  23.456  0.00  0.00    +0.000 HD
BRANCH  13  17
ATOM     17  O   UNL     1      -1.533  11.481  17.834  0.00  0.00    +0.000 OA
ATOM     18  C   UNL     1      -2.904  11.090  17.751  0.00  0.00    +0.000 C 
ENDBRANCH  13  17
ENDBRANCH   4   7
BRANCH   1  19
ATOM     19  C   UNL     1       3.518   4.506  17.728  0.00  0.00    +0.000 C 
BRANCH  19  22
ATOM     20  C   UNL     1       5.966   4.399  16.807  0.00  0.00    +0.000 C 
ATOM     21  C   UNL     1       6.072   4.683  18.289  0.00  0.00    +0.000 C 
ATOM     22  C   UNL     1       4.858   5.148  17.530  0.00  0.00    +0.000 C 
BRANCH  20  23
ATOM     23  C   UNL     1       6.822   5.142  15.828  0.00  0.00    +0.000 C 
ATOM     24  O   UNL     1       7.508   6.087  16.216  0.00  0.00    +0.000 OA
BRANCH  23  29
ATOM     25  C   UNL     1       6.064   3.468  12.482  0.00  0.00    +0.000 A 
ATOM     26  C   UNL     1       6.955   4.158  11.653  0.00  0.00    +0.000 A 
ATOM     27  C   UNL     1       7.793   5.138  12.180  0.00  0.00    +0.000 A 
ATOM     28  C   UNL     1       7.738   5.438  13.540  0.00  0.00    +0.000 A 
ATOM     29  C   UNL     1       6.846   4.761  14.385  0.00  0.00    +0.000 A 
ATOM     30  C   UNL     1       6.019   3.766  13.847  0.00  0.00    +0.000 A 
BRANCH  25  32
ATOM     31  C   UNL     1       5.995   1.412  11.289  0.00  0.00    +0.000 C 
ATOM     32  O   UNL     1       5.304   2.526  11.843  0.00  0.00    +0.000 OA
ENDBRANCH  25  32
ENDBRANCH  23  29
ENDBRANCH  20  23
ENDBRANCH  19  22
ENDBRANCH   1  19
TORSDOF 7
ENDMDL
MODEL 4
REMARK VINA RESULT:      -8.0      2.501     10.011
REMARK  Name = 
REMARK  9 active torsions:
REMARK  status: ('A' for Active; 'I' for Inactive)
REMARK    1  A    between atoms: C_1  and  O_2
REMARK    2  A    between atoms: O_2  and  C_3
REMARK    3  A    between atoms: C_7  and  C_8
REMARK    4  A    between atoms: C_8  and  C_10
REMARK    5  A    between atoms: C_12  and  C_13
REMARK    6  A    between atoms: C_13  and  N_14
REMARK    7  A    between atoms: C_17  and  C_18
REMARK    8  A    between atoms: C_24  and  O_25
REMARK    9  A    between atoms: O_25  and  C_26
REMARK                            x       y       z     vdW  Elec       q    Type
REMARK                         _______ _______ _______ _____ _____    ______ ____
ROOT
ATOM      1  N   UNL     1       3.163   7.319  18.401  0.00  0.00    +0.000 NA
ATOM      2  C   UNL     1       2.786   8.348  17.419  0.00  0.00    +0.000 C 
ATOM      3  C   UNL     1       1.844   9.411  17.902  0.00  0.00    +0.000 C 
ATOM      4  C   UNL     1       1.283   9.420  19.123  0.00  0.00    +0.000 C 
ATOM      5  C   UNL     1       1.613   8.314  20.093  0.00  0.00    +0.000 C 
ATOM      6  C   UNL     1       2.078   7.047  19.359  0.00  0.00    +0.000 C 
ENDROOT
BRANCH   4   7
ATOM      7  C   UNL     1       0.357  10.414  19.578  0.00  0.00    +0.000 A 
ATOM      8  C   UNL     1       0.560  11.262  20.650  0.00  0.00    +0.000 A 
ATOM      9  N   UNL     1      -0.552  12.055  20.789  0.00  0.00    +0.000 N 
ATOM     10  C   UNL     1      -1.482  11.735  19.829  0.00  0.00    +0.000 A 
ATOM     11  C   UNL     1      -2.761  12.229  19.570  0.00  0.00    +0.000 A 
ATOM     12  C   UNL     1      -3.428  11.648  18.493  0.00  0.00    +0.000 A 
ATOM     13  C   UNL     1      -2.801  10.650  17.757  0.00  0.00    +0.000 A 
ATOM     14  N   UNL     1      -1.571  10.169  17.998  0.00  0.00    +0.000 NA
ATOM     15  C   UNL     1      -0.926  10.723  19.048  0.00  0.00    +0.000 A 
ATOM     16  H   UNL     1      -0.676  12.763  21.498  0.00  0.00    +0.000 HD
BRANCH  13  17
ATOM     17  O   UNL     1      -3.526  10.124  16.700  0.00  0.00    +0.000 OA
ATOM     18  C   UNL     1      -2.942  10.445  15.436  0.00  0.00    +0.000 C 
ENDBRANCH  13  17
ENDBRANCH   4   7
BRANCH   1  19
ATOM     19  C   UNL     1       3.558   6.070  17.734  0.00  0.00    +0.000 C 
BRANCH  19  22
ATOM     20  C   UNL     1       5.642   4.519  17.408  0.00  0.00    +0.000 C 
ATOM     21  C   UNL     1       5.696   5.024  18.833  0.00  0.00    +0.000 C 
ATOM     22  C   UNL     1       5.044   5.869  17.772  0.00  0.00    +0.000 C 
BRANCH  20  23
ATOM     23  C   UNL     1       6.883   4.480  16.569  0.00  0.00    +0.000 C 
ATOM     24  O   UNL     1       7.985   4.528  17.114  0.00  0.00    +0.000 OA
BRANCH  23  29
ATOM     25  C   UNL     1       5.838   3.551  13.017  0.00  0.00    +0.000 A 
ATOM     26  C   UNL     1       6.716   4.356  12.283  0.00  0.00    +0.000 A 
ATOM     27  C   UNL     1       7.636   5.173  12.936  0.00  0.00    +0.000 A 
ATOM     28  C   UNL     1       7.678   5.194  14.328  0.00  0.00    +0.000 A 
ATOM     29  C   UNL     1       6.801   4.399  15.082  0.00  0.00    +0.000 A 
ATOM     30  C   UNL     1       5.890   3.569  14.414  0.00  0.00    +0.000 A 
BRANCH  25  32
ATOM     31  C   UNL     1       4.340   3.445  11.174  0.00  0.00    +0.000 C 
ATOM     32  O   UNL     1       4.991   2.792  12.257  0.00  0.00    +0.000 OA
ENDBRANCH  25  32
ENDBRANCH  23  29
ENDBRANCH  20  23
ENDBRANCH  19  22
ENDBRANCH   1  19
TORSDOF 7
ENDMDL
MODEL 5
REMARK VINA RESULT:      -8.0      2.874      4.472
REMARK  Name = 
REMARK  9 active torsions:
REMARK  status: ('A' for Active; 'I' for Inactive)
REMARK    1  A    between atoms: C_1  and  O_2
REMARK    2  A    between atoms: O_2  and  C_3
REMARK    3  A    between atoms: C_7  and  C_8
REMARK    4  A    between atoms: C_8  and  C_10
REMARK    5  A    between atoms: C_12  and  C_13
REMARK    6  A    between atoms: C_13  and  N_14
REMARK    7  A    between atoms: C_17  and  C_18
REMARK    8  A    between atoms: C_24  and  O_25
REMARK    9  A    between atoms: O_25  and  C_26
REMARK                            x       y       z     vdW  Elec       q    Type
REMARK                         _______ _______ _______ _____ _____    ______ ____
ROOT
ATOM      1  N   UNL     1       1.629   8.982  20.029  0.00  0.00    +0.000 NA
ATOM      2  C   UNL     1       1.698   7.683  20.718  0.00  0.00    +0.000 C 
ATOM      3  C   UNL     1       2.292   6.549  19.935  0.00  0.00    +0.000 C 
ATOM      4  C   UNL     1       2.675   6.641  18.651  0.00  0.00    +0.000 C 
ATOM      5  C   UNL     1       2.523   7.957  17.930  0.00  0.00    +0.000 C 
ATOM      6  C   UNL     1       1.435   8.827  18.578  0.00  0.00    +0.000 C 
ENDROOT
BRANCH   4   7
ATOM      7  C   UNL     1       3.211   5.553  17.889  0.00  0.00    +0.000 A 
ATOM      8  C   UNL     1       2.552   4.369  17.617  0.00  0.00    +0.000 A 
ATOM      9  N   UNL     1       3.390   3.568  16.882  0.00  0.00    +0.000 N 
ATOM     10  C   UNL     1       4.589   4.207  16.673  0.00  0.00    +0.000 A 
ATOM     11  C   UNL     1       5.754   3.809  16.017  0.00  0.00    +0.000 A 
ATOM     12  C   UNL     1       6.794   4.737  16.012  0.00  0.00    +0.000 A 
ATOM     13  C   UNL     1       6.615   5.968  16.631  0.00  0.00    +0.000 A 
ATOM     14  N   UNL     1       5.497   6.361  17.263  0.00  0.00    +0.000 NA
ATOM     15  C   UNL     1       4.491   5.458  17.279  0.00  0.00    +0.000 A 
ATOM     16  H   UNL     1       3.164   2.642  16.550  0.00  0.00    +0.000 HD
BRANCH  13  17
ATOM     17  O   UNL     1       7.691   6.839  16.579  0.00  0.00    +0.000 OA
ATOM     18  C   UNL     1       7.568   7.901  17.526  0.00  0.00    +0.000 C 
ENDBRANCH  13  17
ENDBRANCH   4   7
BRANCH   1  19
ATOM     19  C   UNL     1       0.557   9.820  20.586  0.00  0.00    +0.000 C 
BRANCH  19  22
ATOM     20  C   UNL     1      -0.226  12.180  19.767  0.00  0.00    +0.000 C 
ATOM     21  C   UNL     1      -1.440  11.280  19.719  0.00  0.00    +0.000 C 
ATOM     22  C   UNL     1      -0.070  10.686  19.534  0.00  0.00    +0.000 C 
BRANCH  20  23
ATOM     23  C   UNL     1       0.065  13.122  18.639  0.00  0.00    +0.000 C 
ATOM     24  O   UNL     1      -0.738  13.226  17.712  0.00  0.00    +0.000 OA
BRANCH  23  29
ATOM     25  C   UNL     1       2.549  16.017  18.798  0.00  0.00    +0.000 A 
ATOM     26  C   UNL     1       3.747  15.326  18.588  0.00  0.00    +0.000 A 
ATOM     27  C   UNL     1       3.740  13.948  18.386  0.00  0.00    +0.000 A 
ATOM     28  C   UNL     1       2.533  13.252  18.401  0.00  0.00    +0.000 A 
ATOM     29  C   UNL     1       1.322  13.927  18.616  0.00  0.00    +0.000 A 
ATOM     30  C   UNL     1       1.340  15.315  18.803  0.00  0.00    +0.000 A 
BRANCH  25  32
ATOM     31  C   UNL     1       2.018  17.943  20.087  0.00  0.00    +0.000 C 
ATOM     32  O   UNL     1       2.693  17.366  18.975  0.00  0.00    +0.000 OA
ENDBRANCH  25  32
ENDBRANCH  23  29
ENDBRANCH  20  23
ENDBRANCH  19  22
ENDBRANCH   1  19
TORSDOF 7
ENDMDL
MODEL 6
REMARK VINA RESULT:      -8.0      3.377      9.214
REMARK  Name = 
REMARK  9 active torsions:
REMARK  status: ('A' for Active; 'I' for Inactive)
REMARK    1  A    between atoms: C_1  and  O_2
REMARK    2  A    between atoms: O_2  and  C_3
REMARK    3  A    between atoms: C_7  and  C_8
REMARK    4  A    between atoms: C_8  and  C_10
REMARK    5  A    between atoms: C_12  and  C_13
REMARK    6  A    between atoms: C_13  and  N_14
REMARK    7  A    between atoms: C_17  and  C_18
REMARK    8  A    between atoms: C_24  and  O_25
REMARK    9  A    between atoms: O_25  and  C_26
REMARK                            x       y       z     vdW  Elec       q    Type
REMARK                         _______ _______ _______ _____ _____    ______ ____
ROOT
ATOM      1  N   UNL     1       2.317   8.043  18.095  0.00  0.00    +0.000 NA
ATOM      2  C   UNL     1       2.485   7.445  19.429  0.00  0.00    +0.000 C 
ATOM      3  C   UNL     1       1.671   8.052  20.533  0.00  0.00    +0.000 C 
ATOM      4  C   UNL     1       0.883   9.129  20.382  0.00  0.00    +0.000 C 
ATOM      5  C   UNL     1       0.782   9.784  19.027  0.00  0.00    +0.000 C 
ATOM      6  C   UNL     1       2.020   9.483  18.169  0.00  0.00    +0.000 C 
ENDROOT
BRANCH   4   7
ATOM      7  C   UNL     1       0.129   9.732  21.441  0.00  0.00    +0.000 A 
ATOM      8  C   UNL     1      -0.491   9.048  22.468  0.00  0.00    +0.000 A 
ATOM      9  N   UNL     1      -1.128   9.960  23.272  0.00  0.00    +0.000 N 
ATOM     10  C   UNL     1      -0.940  11.231  22.783  0.00  0.00    +0.000 A 
ATOM     11  C   UNL     1      -1.397  12.474  23.221  0.00  0.00    +0.000 A 
ATOM     12  C   UNL     1      -1.001  13.569  22.455  0.00  0.00    +0.000 A 
ATOM     13  C   UNL     1      -0.195  13.370  21.341  0.00  0.00    +0.000 A 
ATOM     14  N   UNL     1       0.251  12.178  20.913  0.00  0.00    +0.000 NA
ATOM     15  C   UNL     1      -0.140  11.113  21.648  0.00  0.00    +0.000 A 
ATOM     16  H   UNL     1      -1.665   9.733  24.096  0.00  0.00    +0.000 HD
BRANCH  13  17
ATOM     17  O   UNL     1       0.160  14.506  20.633  0.00  0.00    +0.000 OA
ATOM     18  C   UNL     1       1.463  14.396  20.058  0.00  0.00    +0.000 C 
ENDBRANCH  13  17
ENDBRANCH   4   7
BRANCH   1  19
ATOM     19  C   UNL     1       3.510   7.825  17.263  0.00  0.00    +0.000 C 
BRANCH  19  22
ATOM     20  C   UNL     1       5.211   5.910  17.802  0.00  0.00    +0.000 C 
ATOM     21  C   UNL     1       4.988   5.883  16.306  0.00  0.00    +0.000 C 
ATOM     22  C   UNL     1       3.890   6.376  17.210  0.00  0.00    +0.000 C 
BRANCH  20  23
ATOM     23  C   UNL     1       5.242   4.634  18.587  0.00  0.00    +0.000 C 
ATOM     24  O   UNL     1       6.285   4.287  19.141  0.00  0.00    +0.000 OA
BRANCH  23  29
ATOM     25  C   UNL     1       1.986   3.052  19.800  0.00  0.00    +0.000 A 
ATOM     26  C   UNL     1       1.768   2.121  18.779  0.00  0.00    +0.000 A 
ATOM     27  C   UNL     1       2.673   2.006  17.725  0.00  0.00    +0.000 A 
ATOM     28  C   UNL     1       3.798   2.828  17.685  0.00  0.00    +0.000 A 
ATOM     29  C   UNL     1       4.030   3.771  18.698  0.00  0.00    +0.000 A 
ATOM     30  C   UNL     1       3.121   3.868  19.760  0.00  0.00    +0.000 A 
BRANCH  25  32
ATOM     31  C   UNL     1       1.410   2.555  22.053  0.00  0.00    +0.000 C 
ATOM     32  O   UNL     1       1.029   3.059  20.778  0.00  0.00    +0.000 OA
ENDBRANCH  25  32
ENDBRANCH  23  29
ENDBRANCH  20  23
ENDBRANCH  19  22
ENDBRANCH   1  19
TORSDOF 7
ENDMDL
MODEL 7
REMARK VINA RESULT:      -7.9      3.264      4.608
REMARK  Name = 
REMARK  9 active torsions:
REMARK  status: ('A' for Active; 'I' for Inactive)
REMARK    1  A    between atoms: C_1  and  O_2
REMARK    2  A    between atoms: O_2  and  C_3
REMARK    3  A    between atoms: C_7  and  C_8
REMARK    4  A    between atoms: C_8  and  C_10
REMARK    5  A    between atoms: C_12  and  C_13
REMARK    6  A    between atoms: C_13  and  N_14
REMARK    7  A    between atoms: C_17  and  C_18
REMARK    8  A    between atoms: C_24  and  O_25
REMARK    9  A    between atoms: O_25  and  C_26
REMARK                            x       y       z     vdW  Elec       q    Type
REMARK                         _______ _______ _______ _____ _____    ______ ____
ROOT
ATOM      1  N   UNL     1       1.365   9.862  19.621  0.00  0.00    +0.000 NA
ATOM      2  C   UNL     1       1.429   8.693  20.512  0.00  0.00    +0.000 C 
ATOM      3  C   UNL     1       2.005   7.440  19.920  0.00  0.00    +0.000 C 
ATOM      4  C   UNL     1       2.378   7.317  18.635  0.00  0.00    +0.000 C 
ATOM      5  C   UNL     1       2.231   8.499  17.710  0.00  0.00    +0.000 C 
ATOM      6  C   UNL     1       1.157   9.474  18.215  0.00  0.00    +0.000 C 
ENDROOT
BRANCH   4   7
ATOM      7  C   UNL     1       2.898   6.114  18.057  0.00  0.00    +0.000 A 
ATOM      8  C   UNL     1       2.219   4.914  17.970  0.00  0.00    +0.000 A 
ATOM      9  N   UNL     1       3.046   3.993  17.375  0.00  0.00    +0.000 N 
ATOM     10  C   UNL     1       4.257   4.570  17.078  0.00  0.00    +0.000 A 
ATOM     11  C   UNL     1       5.418   4.054  16.500  0.00  0.00    +0.000 A 
ATOM     12  C   UNL     1       6.474   4.953  16.357  0.00  0.00    +0.000 A 
ATOM     13  C   UNL     1       6.315   6.268  16.774  0.00  0.00    +0.000 A 
ATOM     14  N   UNL     1       5.201   6.775  17.329  0.00  0.00    +0.000 NA
ATOM     15  C   UNL     1       4.179   5.903  17.479  0.00  0.00    +0.000 A 
ATOM     16  H   UNL     1       2.805   3.030  17.191  0.00  0.00    +0.000 HD
BRANCH  13  17
ATOM     17  O   UNL     1       7.406   7.102  16.595  0.00  0.00    +0.000 OA
ATOM     18  C   UNL     1       7.810   7.729  17.813  0.00  0.00    +0.000 C 
ENDBRANCH  13  17
ENDBRANCH   4   7
BRANCH   1  19
ATOM     19  C   UNL     1       0.305  10.790  20.040  0.00  0.00    +0.000 C 
BRANCH  19  22
ATOM     20  C   UNL     1       0.685  13.227  20.920  0.00  0.00    +0.000 C 
ATOM     21  C   UNL     1      -0.336  13.322  19.809  0.00  0.00    +0.000 C 
ATOM     22  C   UNL     1       0.687  12.217  19.783  0.00  0.00    +0.000 C 
BRANCH  20  23
ATOM     23  C   UNL     1       1.805  14.218  21.009  0.00  0.00    +0.000 C 
ATOM     24  O   UNL     1       2.327  14.449  22.100  0.00  0.00    +0.000 OA
BRANCH  23  29
ATOM     25  C   UNL     1       2.281  16.822  18.259  0.00  0.00    +0.000 A 
ATOM     26  C   UNL     1       3.304  16.217  17.520  0.00  0.00    +0.000 A 
ATOM     27  C   UNL     1       3.815  14.980  17.906  0.00  0.00    +0.000 A 
ATOM     28  C   UNL     1       3.310  14.345  19.039  0.00  0.00    +0.000 A 
ATOM     29  C   UNL     1       2.289  14.939  19.796  0.00  0.00    +0.000 A 
ATOM     30  C   UNL     1       1.772  16.177  19.390  0.00  0.00    +0.000 A 
BRANCH  25  32
ATOM     31  C   UNL     1       0.482  18.150  17.451  0.00  0.00    +0.000 C 
ATOM     32  O   UNL     1       1.863  18.030  17.770  0.00  0.00    +0.000 OA
ENDBRANCH  25  32
ENDBRANCH  23  29
ENDBRANCH  20  23
ENDBRANCH  19  22
ENDBRANCH   1  19
TORSDOF 7
ENDMDL
MODEL 8
REMARK VINA RESULT:      -7.8      3.439      6.297
REMARK  Name = 
REMARK  9 active torsions:
REMARK  status: ('A' for Active; 'I' for Inactive)
REMARK    1  A    between atoms: C_1  and  O_2
REMARK    2  A    between atoms: O_2  and  C_3
REMARK    3  A    between atoms: C_7  and  C_8
REMARK    4  A    between atoms: C_8  and  C_10
REMARK    5  A    between atoms: C_12  and  C_13
REMARK    6  A    between atoms: C_13  and  N_14
REMARK    7  A    between atoms: C_17  and  C_18
REMARK    8  A    between atoms: C_24  and  O_25
REMARK    9  A    between atoms: O_25  and  C_26
REMARK                            x       y       z     vdW  Elec       q    Type
REMARK                         _______ _______ _______ _____ _____    ______ ____
ROOT
ATOM      1  N   UNL     1       3.596   3.350  18.805  0.00  0.00    +0.000 NA
ATOM      2  C   UNL     1       3.030   3.681  17.488  0.00  0.00    +0.000 C 
ATOM      3  C   UNL     1       4.013   4.072  16.424  0.00  0.00    +0.000 C 
ATOM      4  C   UNL     1       5.333   4.207  16.633  0.00  0.00    +0.000 C 
ATOM      5  C   UNL     1       5.892   3.945  18.009  0.00  0.00    +0.000 C 
ATOM      6  C   UNL     1       4.816   4.123  19.091  0.00  0.00    +0.000 C 
ENDROOT
BRANCH   4   7
ATOM      7  C   UNL     1       6.272   4.612  15.629  0.00  0.00    +0.000 A 
ATOM      8  C   UNL     1       7.332   5.475  15.831  0.00  0.00    +0.000 A 
ATOM      9  N   UNL     1       7.990   5.636  14.637  0.00  0.00    +0.000 N 
ATOM     10  C   UNL     1       7.374   4.897  13.656  0.00  0.00    +0.000 A 
ATOM     11  C   UNL     1       7.642   4.749  12.294  0.00  0.00    +0.000 A 
ATOM     12  C   UNL     1       6.781   3.904  11.596  0.00  0.00    +0.000 A 
ATOM     13  C   UNL     1       5.745   3.271  12.272  0.00  0.00    +0.000 A 
ATOM     14  N   UNL     1       5.480   3.406  13.582  0.00  0.00    +0.000 NA
ATOM     15  C   UNL     1       6.307   4.234  14.259  0.00  0.00    +0.000 A 
ATOM     16  H   UNL     1       8.802   6.219  14.495  0.00  0.00    +0.000 HD
BRANCH  13  17
ATOM     17  O   UNL     1       4.936   2.443  11.512  0.00  0.00    +0.000 OA
ATOM     18  C   UNL     1       3.819   3.142  10.961  0.00  0.00    +0.000 C 
ENDBRANCH  13  17
ENDBRANCH   4   7
BRANCH   1  19
ATOM     19  C   UNL     1       2.611   3.566  19.874  0.00  0.00    +0.000 C 
BRANCH  19  22
ATOM     20  C   UNL     1       2.441   6.173  20.038  0.00  0.00    +0.000 C 
ATOM     21  C   UNL     1       1.274   5.613  20.820  0.00  0.00    +0.000 C 
ATOM     22  C   UNL     1       1.833   4.831  19.662  0.00  0.00    +0.000 C 
BRANCH  20  23
ATOM     23  C   UNL     1       2.247   7.338  19.115  0.00  0.00    +0.000 C 
ATOM     24  O   UNL     1       2.672   7.276  17.962  0.00  0.00    +0.000 OA
BRANCH  23  29
ATOM     25  C   UNL     1       0.714  10.058  21.312  0.00  0.00    +0.000 A 
ATOM     26  C   UNL     1       0.284  10.956  20.330  0.00  0.00    +0.000 A 
ATOM     27  C   UNL     1       0.479  10.671  18.980  0.00  0.00    +0.000 A 
ATOM     28  C   UNL     1       1.114   9.487  18.607  0.00  0.00    +0.000 A 
ATOM     29  C   UNL     1       1.558   8.577  19.578  0.00  0.00    +0.000 A 
ATOM     30  C   UNL     1       1.342   8.868  20.932  0.00  0.00    +0.000 A 
BRANCH  25  32
ATOM     31  C   UNL     1      -0.812  10.093  23.135  0.00  0.00    +0.000 C 
ATOM     32  O   UNL     1       0.455  10.452  22.597  0.00  0.00    +0.000 OA
ENDBRANCH  25  32
ENDBRANCH  23  29
ENDBRANCH  20  23
ENDBRANCH  19  22
ENDBRANCH   1  19
TORSDOF 7
ENDMDL
MODEL 9
REMARK VINA RESULT:      -7.8      2.975      4.398
REMARK  Name = 
REMARK  9 active torsions:
REMARK  status: ('A' for Active; 'I' for Inactive)
REMARK    1  A    between atoms: C_1  and  O_2
REMARK    2  A    between atoms: O_2  and  C_3
REMARK    3  A    between atoms: C_7  and  C_8
REMARK    4  A    between atoms: C_8  and  C_10
REMARK    5  A    between atoms: C_12  and  C_13
REMARK    6  A    between atoms: C_13  and  N_14
REMARK    7  A    between atoms: C_17  and  C_18
REMARK    8  A    between atoms: C_24  and  O_25
REMARK    9  A    between atoms: O_25  and  C_26
REMARK                            x       y       z     vdW  Elec       q    Type
REMARK                         _______ _______ _______ _____ _____    ______ ____
ROOT
ATOM      1  N   UNL     1       1.014   9.863  19.726  0.00  0.00    +0.000 NA
ATOM      2  C   UNL     1       1.252   8.671  20.556  0.00  0.00    +0.000 C 
ATOM      3  C   UNL     1       2.057   7.575  19.925  0.00  0.00    +0.000 C 
ATOM      4  C   UNL     1       2.488   7.594  18.652  0.00  0.00    +0.000 C 
ATOM      5  C   UNL     1       2.166   8.785  17.785  0.00  0.00    +0.000 C 
ATOM      6  C   UNL     1       0.922   9.528  18.295  0.00  0.00    +0.000 C 
ENDROOT
BRANCH   4   7
ATOM      7  C   UNL     1       3.228   6.535  18.035  0.00  0.00    +0.000 A 
ATOM      8  C   UNL     1       4.272   6.706  17.145  0.00  0.00    +0.000 A 
ATOM      9  N   UNL     1       4.714   5.465  16.756  0.00  0.00    +0.000 N 
ATOM     10  C   UNL     1       3.973   4.486  17.373  0.00  0.00    +0.000 A 
ATOM     11  C   UNL     1       4.016   3.094  17.289  0.00  0.00    +0.000 A 
ATOM     12  C   UNL     1       3.085   2.411  18.071  0.00  0.00    +0.000 A 
ATOM     13  C   UNL     1       2.203   3.130  18.868  0.00  0.00    +0.000 A 
ATOM     14  N   UNL     1       2.155   4.469  18.957  0.00  0.00    +0.000 NA
ATOM     15  C   UNL     1       3.049   5.134  18.192  0.00  0.00    +0.000 A 
ATOM     16  H   UNL     1       5.467   5.295  16.106  0.00  0.00    +0.000 HD
BRANCH  13  17
ATOM     17  O   UNL     1       1.312   2.382  19.620  0.00  0.00    +0.000 OA
ATOM     18  C   UNL     1       1.293   2.783  20.990  0.00  0.00    +0.000 C 
ENDBRANCH  13  17
ENDBRANCH   4   7
BRANCH   1  19
ATOM     19  C   UNL     1      -0.205  10.568  20.149  0.00  0.00    +0.000 C 
BRANCH  19  22
ATOM     20  C   UNL     1      -0.523  13.003  21.055  0.00  0.00    +0.000 C 
ATOM     21  C   UNL     1       0.963  12.803  20.861  0.00  0.00    +0.000 C 
ATOM     22  C   UNL     1       0.092  11.618  21.177  0.00  0.00    +0.000 C 
BRANCH  20  23
ATOM     23  C   UNL     1      -1.044  13.674  22.289  0.00  0.00    +0.000 C 
ATOM     24  O   UNL     1      -0.263  14.263  23.036  0.00  0.00    +0.000 OA
BRANCH  23  29
ATOM     25  C   UNL     1      -4.768  12.830  22.302  0.00  0.00    +0.000 A 
ATOM     26  C   UNL     1      -5.191  13.594  23.395  0.00  0.00    +0.000 A 
ATOM     27  C   UNL     1      -4.280  14.377  24.102  0.00  0.00    +0.000 A 
ATOM     28  C   UNL     1      -2.940  14.393  23.722  0.00  0.00    +0.000 A 
ATOM     29  C   UNL     1      -2.496  13.629  22.633  0.00  0.00    +0.000 A 
ATOM     30  C   UNL     1      -3.423  12.857  21.920  0.00  0.00    +0.000 A 
BRANCH  25  32
ATOM     31  C   UNL     1      -5.807  12.166  20.269  0.00  0.00    +0.000 C 
ATOM     32  O   UNL     1      -5.760  12.113  21.690  0.00  0.00    +0.000 OA
ENDBRANCH  25  32
ENDBRANCH  23  29
ENDBRANCH  20  23
ENDBRANCH  19  22
ENDBRANCH   1  19
TORSDOF 7
ENDMDL
