MODEL 1
REMARK VINA RESULT:      -6.7      0.000      0.000
REMARK  Name = 
REMARK  8 active torsions:
REMARK  status: ('A' for Active; 'I' for Inactive)
REMARK    1  A    between atoms: C_1  and  C_2
REMARK    2  A    between atoms: C_5  and  S_6
REMARK    3  A    between atoms: S_6  and  N_9
REMARK    4  A    between atoms: C_10  and  C_11
REMARK    5  A    between atoms: C_20  and  C_21
REMARK    6  A    between atoms: C_21  and  O_23
REMARK    7  A    between atoms: C_24  and  C_25
REMARK    8  A    between atoms: C_29  and  C_30
REMARK                            x       y       z     vdW  Elec       q    Type
REMARK                         _______ _______ _______ _____ _____    ______ ____
ROOT
ATOM      1  N   UNL     1      -0.846  13.473  20.760  0.00  0.00    +0.000 NA
ATOM      2  C   UNL     1      -1.604  12.393  21.510  0.00  0.00    +0.000 C 
ATOM      3  C   UNL     1      -0.476  11.718  22.336  0.00  0.00    +0.000 C 
ATOM      4  C   UNL     1       0.085  10.712  21.429  0.00  0.00    +0.000 C 
ATOM      5  C   UNL     1       0.446  11.181  20.216  0.00  0.00    +0.000 C 
ATOM      6  C   UNL     1       0.330  12.741  19.884  0.00  0.00    +0.000 C 
ENDROOT
BRANCH   2   7
ATOM      7  C   UNL     1      -2.909  12.538  22.264  0.00  0.00    +0.000 A 
ATOM      8  C   UNL     1      -3.045  12.521  23.656  0.00  0.00    +0.000 A 
ATOM      9  C   UNL     1      -4.310  12.628  24.252  0.00  0.00    +0.000 A 
ATOM     10  C   UNL     1      -5.454  12.815  23.473  0.00  0.00    +0.000 A 
ATOM     11  C   UNL     1      -5.324  12.975  22.106  0.00  0.00    +0.000 A 
ATOM     12  C   UNL     1      -4.065  12.891  21.537  0.00  0.00    +0.000 A 
ATOM     13  F   UNL     1      -3.984  13.230  20.243  0.00  0.00    +0.000 F 
ENDBRANCH   2   7
BRANCH   6  14
ATOM     14  C   UNL     1       1.683  13.471  19.778  0.00  0.00    +0.000 A 
ATOM     15  C   UNL     1       2.605  13.584  20.832  0.00  0.00    +0.000 A 
ATOM     16  C   UNL     1       3.779  14.342  20.690  0.00  0.00    +0.000 A 
ATOM     17  C   UNL     1       4.046  15.031  19.509  0.00  0.00    +0.000 A 
ATOM     18  C   UNL     1       3.168  14.918  18.433  0.00  0.00    +0.000 A 
ATOM     19  C   UNL     1       3.394  15.705  17.170  0.00  0.00    +0.000 C 
ATOM     20  C   UNL     1       2.048  14.074  18.556  0.00  0.00    +0.000 A 
ENDBRANCH   6  14
BRANCH   1  21
ATOM     21  S   UNL     1      -0.694  14.998  21.616  0.00  0.00    +0.000 S 
ATOM     22  O   UNL     1       0.454  14.888  22.474  0.00  0.00    +0.000 OA
ATOM     23  O   UNL     1      -1.933  15.409  22.233  0.00  0.00    +0.000 OA
BRANCH  21  28
ATOM     24  C   UNL     1       1.185  18.563  17.091  0.00  0.00    +0.000 C 
ATOM     25  C   UNL     1       0.623  17.815  18.271  0.00  0.00    +0.000 A 
ATOM     26  C   UNL     1      -0.559  17.076  18.154  0.00  0.00    +0.000 A 
ATOM     27  C   UNL     1      -1.050  16.331  19.235  0.00  0.00    +0.000 A 
ATOM     28  C   UNL     1      -0.284  16.247  20.392  0.00  0.00    +0.000 A 
ATOM     29  C   UNL     1       0.848  17.044  20.564  0.00  0.00    +0.000 A 
ATOM     30  C   UNL     1       1.300  17.827  19.506  0.00  0.00    +0.000 A 
ENDBRANCH  21  28
ENDBRANCH   1  21
BRANCH   5  31
ATOM     31  C   UNL     1       0.707  10.049  19.276  0.00  0.00    +0.000 C 
ATOM     32  O   UNL     1       1.230   8.996  19.616  0.00  0.00    +0.000 OA
BRANCH  31  33
ATOM     33  O   UNL     1       0.341  10.252  18.001  0.00  0.00    +0.000 OA
ATOM     34  H   UNL     1      -0.607  10.166  17.805  0.00  0.00    +0.000 HD
ENDBRANCH  31  33
ENDBRANCH   5  31
TORSDOF 6
ENDMDL
MODEL 2
REMARK VINA RESULT:      -6.4      2.505      6.489
REMARK  Name = 
REMARK  8 active torsions:
REMARK  status: ('A' for Active; 'I' for Inactive)
REMARK    1  A    between atoms: C_1  and  C_2
REMARK    2  A    between atoms: C_5  and  S_6
REMARK    3  A    between atoms: S_6  and  N_9
REMARK    4  A    between atoms: C_10  and  C_11
REMARK    5  A    between atoms: C_20  and  C_21
REMARK    6  A    between atoms: C_21  and  O_23
REMARK    7  A    between atoms: C_24  and  C_25
REMARK    8  A    between atoms: C_29  and  C_30
REMARK                            x       y       z     vdW  Elec       q    Type
REMARK                         _______ _______ _______ _____ _____    ______ ____
ROOT
ATOM      1  N   UNL     1       0.730  13.597  21.059  0.00  0.00    +0.000 NA
ATOM      2  C   UNL     1       1.883  13.094  20.210  0.00  0.00    +0.000 C 
ATOM      3  C   UNL     1       1.154  12.227  19.150  0.00  0.00    +0.000 C 
ATOM      4  C   UNL     1       1.029  10.910  19.782  0.00  0.00    +0.000 C 
ATOM      5  C   UNL     1       0.475  10.923  21.013  0.00  0.00    +0.000 C 
ATOM      6  C   UNL     1      -0.066  12.289  21.643  0.00  0.00    +0.000 C 
ENDROOT
BRANCH   2   7
ATOM      7  C   UNL     1       3.035  13.902  19.650  0.00  0.00    +0.000 A 
ATOM      8  C   UNL     1       3.196  14.256  18.306  0.00  0.00    +0.000 A 
ATOM      9  C   UNL     1       4.323  14.978  17.887  0.00  0.00    +0.000 A 
ATOM     10  C   UNL     1       5.277  15.413  18.810  0.00  0.00    +0.000 A 
ATOM     11  C   UNL     1       5.065  15.195  20.158  0.00  0.00    +0.000 A 
ATOM     12  C   UNL     1       3.935  14.501  20.556  0.00  0.00    +0.000 A 
ATOM     13  F   UNL     1       3.696  14.478  21.875  0.00  0.00    +0.000 F 
ENDBRANCH   2   7
BRANCH   6  14
ATOM     14  C   UNL     1      -1.602  12.384  21.730  0.00  0.00    +0.000 A 
ATOM     15  C   UNL     1      -2.447  12.563  20.622  0.00  0.00    +0.000 A 
ATOM     16  C   UNL     1      -3.832  12.732  20.786  0.00  0.00    +0.000 A 
ATOM     17  C   UNL     1      -4.402  12.760  22.057  0.00  0.00    +0.000 A 
ATOM     18  C   UNL     1      -3.598  12.557  23.177  0.00  0.00    +0.000 A 
ATOM     19  C   UNL     1      -4.175  12.650  24.564  0.00  0.00    +0.000 C 
ATOM     20  C   UNL     1      -2.230  12.288  22.990  0.00  0.00    +0.000 A 
ENDBRANCH   6  14
BRANCH   1  21
ATOM     21  S   UNL     1      -0.009  15.085  20.492  0.00  0.00    +0.000 S 
ATOM     22  O   UNL     1      -0.883  14.735  19.406  0.00  0.00    +0.000 OA
ATOM     23  O   UNL     1       0.963  16.122  20.241  0.00  0.00    +0.000 OA
BRANCH  21  28
ATOM     24  C   UNL     1      -3.864  16.225  25.027  0.00  0.00    +0.000 C 
ATOM     25  C   UNL     1      -2.862  16.112  23.908  0.00  0.00    +0.000 A 
ATOM     26  C   UNL     1      -1.529  15.780  24.171  0.00  0.00    +0.000 A 
ATOM     27  C   UNL     1      -0.610  15.616  23.125  0.00  0.00    +0.000 A 
ATOM     28  C   UNL     1      -1.071  15.678  21.815  0.00  0.00    +0.000 A 
ATOM     29  C   UNL     1      -2.371  16.095  21.529  0.00  0.00    +0.000 A 
ATOM     30  C   UNL     1      -3.264  16.312  22.573  0.00  0.00    +0.000 A 
ENDBRANCH  21  28
ENDBRANCH   1  21
BRANCH   5  31
ATOM     31  C   UNL     1       0.675   9.604  21.688  0.00  0.00    +0.000 C 
ATOM     32  O   UNL     1       0.757   8.543  21.085  0.00  0.00    +0.000 OA
BRANCH  31  33
ATOM     33  O   UNL     1       0.751   9.639  23.028  0.00  0.00    +0.000 OA
ATOM     34  H   UNL     1       1.414   9.060  23.438  0.00  0.00    +0.000 HD
ENDBRANCH  31  33
ENDBRANCH   5  31
TORSDOF 6
ENDMDL
MODEL 3
REMARK VINA RESULT:      -6.3      1.858      3.211
REMARK  Name = 
REMARK  8 active torsions:
REMARK  status: ('A' for Active; 'I' for Inactive)
REMARK    1  A    between atoms: C_1  and  C_2
REMARK    2  A    between atoms: C_5  and  S_6
REMARK    3  A    between atoms: S_6  and  N_9
REMARK    4  A    between atoms: C_10  and  C_11
REMARK    5  A    between atoms: C_20  and  C_21
REMARK    6  A    between atoms: C_21  and  O_23
REMARK    7  A    between atoms: C_24  and  C_25
REMARK    8  A    between atoms: C_29  and  C_30
REMARK                            x       y       z     vdW  Elec       q    Type
REMARK                         _______ _______ _______ _____ _____    ______ ____
ROOT
ATOM      1  N   UNL     1      -1.363  13.721  21.060  0.00  0.00    +0.000 NA
ATOM      2  C   UNL     1      -2.154  12.541  21.595  0.00  0.00    +0.000 C 
ATOM      3  C   UNL     1      -1.029  11.591  22.088  0.00  0.00    +0.000 C 
ATOM      4  C   UNL     1      -0.659  10.820  20.897  0.00  0.00    +0.000 C 
ATOM      5  C   UNL     1      -0.366  11.562  19.810  0.00  0.00    +0.000 C 
ATOM      6  C   UNL     1      -0.352  13.159  19.899  0.00  0.00    +0.000 C 
ENDROOT
BRANCH   2   7
ATOM      7  C   UNL     1      -3.363  12.580  22.506  0.00  0.00    +0.000 A 
ATOM      8  C   UNL     1      -3.334  12.418  23.895  0.00  0.00    +0.000 A 
ATOM      9  C   UNL     1      -4.521  12.436  24.641  0.00  0.00    +0.000 A 
ATOM     10  C   UNL     1      -5.751  12.676  24.024  0.00  0.00    +0.000 A 
ATOM     11  C   UNL     1      -5.784  12.978  22.675  0.00  0.00    +0.000 A 
ATOM     12  C   UNL     1      -4.600  12.979  21.958  0.00  0.00    +0.000 A 
ATOM     13  F   UNL     1      -4.674  13.450  20.705  0.00  0.00    +0.000 F 
ENDBRANCH   2   7
BRANCH   6  14
ATOM     14  C   UNL     1       1.052  13.788  19.826  0.00  0.00    +0.000 A 
ATOM     15  C   UNL     1       2.106  13.474  20.701  0.00  0.00    +0.000 A 
ATOM     16  C   UNL     1       3.333  14.153  20.632  0.00  0.00    +0.000 A 
ATOM     17  C   UNL     1       3.529  15.183  19.714  0.00  0.00    +0.000 A 
ATOM     18  C   UNL     1       2.516  15.502  18.812  0.00  0.00    +0.000 A 
ATOM     19  C   UNL     1       2.673  16.654  17.855  0.00  0.00    +0.000 C 
ATOM     20  C   UNL     1       1.330  14.744  18.826  0.00  0.00    +0.000 A 
ENDBRANCH   6  14
BRANCH   1  21
ATOM     21  S   UNL     1      -0.979  14.952  22.252  0.00  0.00    +0.000 S 
ATOM     22  O   UNL     1      -0.157  15.933  21.596  0.00  0.00    +0.000 OA
ATOM     23  O   UNL     1      -0.470  14.390  23.480  0.00  0.00    +0.000 OA
BRANCH  21  28
ATOM     24  C   UNL     1      -6.552  16.939  23.559  0.00  0.00    +0.000 C 
ATOM     25  C   UNL     1      -5.113  16.611  23.260  0.00  0.00    +0.000 A 
ATOM     26  C   UNL     1      -4.246  16.197  24.277  0.00  0.00    +0.000 A 
ATOM     27  C   UNL     1      -2.923  15.835  23.988  0.00  0.00    +0.000 A 
ATOM     28  C   UNL     1      -2.518  15.784  22.659  0.00  0.00    +0.000 A 
ATOM     29  C   UNL     1      -3.334  16.276  21.640  0.00  0.00    +0.000 A 
ATOM     30  C   UNL     1      -4.628  16.689  21.940  0.00  0.00    +0.000 A 
ENDBRANCH  21  28
ENDBRANCH   1  21
BRANCH   5  31
ATOM     31  C   UNL     1      -0.308  10.700  18.590  0.00  0.00    +0.000 C 
ATOM     32  O   UNL     1       0.469   9.763  18.462  0.00  0.00    +0.000 OA
BRANCH  31  33
ATOM     33  O   UNL     1      -1.165  11.018  17.608  0.00  0.00    +0.000 OA
ATOM     34  H   UNL     1      -1.327  10.335  16.938  0.00  0.00    +0.000 HD
ENDBRANCH  31  33
ENDBRANCH   5  31
TORSDOF 6
ENDMDL
MODEL 4
REMARK VINA RESULT:      -6.3      0.456      1.255
REMARK  Name = 
REMARK  8 active torsions:
REMARK  status: ('A' for Active; 'I' for Inactive)
REMARK    1  A    between atoms: C_1  and  C_2
REMARK    2  A    between atoms: C_5  and  S_6
REMARK    3  A    between atoms: S_6  and  N_9
REMARK    4  A    between atoms: C_10  and  C_11
REMARK    5  A    between atoms: C_20  and  C_21
REMARK    6  A    between atoms: C_21  and  O_23
REMARK    7  A    between atoms: C_24  and  C_25
REMARK    8  A    between atoms: C_29  and  C_30
REMARK                            x       y       z     vdW  Elec       q    Type
REMARK                         _______ _______ _______ _____ _____    ______ ____
ROOT
ATOM      1  N   UNL     1      -1.229  13.608  20.815  0.00  0.00    +0.000 NA
ATOM      2  C   UNL     1      -1.913  12.503  21.599  0.00  0.00    +0.000 C 
ATOM      3  C   UNL     1      -0.721  11.847  22.345  0.00  0.00    +0.000 C 
ATOM      4  C   UNL     1      -0.195  10.863  21.393  0.00  0.00    +0.000 C 
ATOM      5  C   UNL     1       0.078  11.352  20.166  0.00  0.00    +0.000 C 
ATOM      6  C   UNL     1      -0.094  12.912  19.860  0.00  0.00    +0.000 C 
ENDROOT
BRANCH   2   7
ATOM      7  C   UNL     1      -3.171  12.610  22.434  0.00  0.00    +0.000 A 
ATOM      8  C   UNL     1      -3.221  12.560  23.831  0.00  0.00    +0.000 A 
ATOM      9  C   UNL     1      -4.448  12.633  24.506  0.00  0.00    +0.000 A 
ATOM     10  C   UNL     1      -5.641  12.820  23.803  0.00  0.00    +0.000 A 
ATOM     11  C   UNL     1      -5.598  13.013  22.435  0.00  0.00    +0.000 A 
ATOM     12  C   UNL     1      -4.375  12.961  21.788  0.00  0.00    +0.000 A 
ATOM     13  F   UNL     1      -4.378  13.331  20.499  0.00  0.00    +0.000 F 
ENDBRANCH   2   7
BRANCH   6  14
ATOM     14  C   UNL     1       1.233  13.674  19.677  0.00  0.00    +0.000 A 
ATOM     15  C   UNL     1       1.622  14.309  18.485  0.00  0.00    +0.000 A 
ATOM     16  C   UNL     1       2.886  14.907  18.361  0.00  0.00    +0.000 A 
ATOM     17  C   UNL     1       3.804  14.859  19.408  0.00  0.00    +0.000 A 
ATOM     18  C   UNL     1       3.442  14.263  20.614  0.00  0.00    +0.000 A 
ATOM     19  C   UNL     1       4.436  14.136  21.737  0.00  0.00    +0.000 C 
ATOM     20  C   UNL     1       2.137  13.758  20.757  0.00  0.00    +0.000 A 
ENDBRANCH   6  14
BRANCH   1  21
ATOM     21  S   UNL     1      -1.058  15.127  21.677  0.00  0.00    +0.000 S 
ATOM     22  O   UNL     1       0.057  14.981  22.574  0.00  0.00    +0.000 OA
ATOM     23  O   UNL     1      -2.304  15.578  22.251  0.00  0.00    +0.000 OA
BRANCH  21  28
ATOM     24  C   UNL     1       1.082  18.627  17.217  0.00  0.00    +0.000 C 
ATOM     25  C   UNL     1       0.459  17.899  18.379  0.00  0.00    +0.000 A 
ATOM     26  C   UNL     1      -0.747  17.205  18.226  0.00  0.00    +0.000 A 
ATOM     27  C   UNL     1      -1.296  16.478  19.291  0.00  0.00    +0.000 A 
ATOM     28  C   UNL     1      -0.566  16.363  20.469  0.00  0.00    +0.000 A 
ATOM     29  C   UNL     1       0.590  17.115  20.674  0.00  0.00    +0.000 A 
ATOM     30  C   UNL     1       1.101  17.882  19.632  0.00  0.00    +0.000 A 
ENDBRANCH  21  28
ENDBRANCH   1  21
BRANCH   5  31
ATOM     31  C   UNL     1       0.305  10.235  19.199  0.00  0.00    +0.000 C 
ATOM     32  O   UNL     1       0.956   9.234  19.465  0.00  0.00    +0.000 OA
BRANCH  31  33
ATOM     33  O   UNL     1      -0.245  10.392  17.985  0.00  0.00    +0.000 OA
ATOM     34  H   UNL     1      -0.795   9.660  17.662  0.00  0.00    +0.000 HD
ENDBRANCH  31  33
ENDBRANCH   5  31
TORSDOF 6
ENDMDL
MODEL 5
REMARK VINA RESULT:      -6.2      2.455      6.800
REMARK  Name = 
REMARK  8 active torsions:
REMARK  status: ('A' for Active; 'I' for Inactive)
REMARK    1  A    between atoms: C_1  and  C_2
REMARK    2  A    between atoms: C_5  and  S_6
REMARK    3  A    between atoms: S_6  and  N_9
REMARK    4  A    between atoms: C_10  and  C_11
REMARK    5  A    between atoms: C_20  and  C_21
REMARK    6  A    between atoms: C_21  and  O_23
REMARK    7  A    between atoms: C_24  and  C_25
REMARK    8  A    between atoms: C_29  and  C_30
REMARK                            x       y       z     vdW  Elec       q    Type
REMARK                         _______ _______ _______ _____ _____    ______ ____
ROOT
ATOM      1  N   UNL     1      -1.642  13.730  20.576  0.00  0.00    +0.000 NA
ATOM      2  C   UNL     1      -0.577  13.439  19.535  0.00  0.00    +0.000 C 
ATOM      3  C   UNL     1       0.611  14.304  20.033  0.00  0.00    +0.000 C 
ATOM      4  C   UNL     1       0.373  15.624  19.439  0.00  0.00    +0.000 C 
ATOM      5  C   UNL     1      -0.857  16.131  19.662  0.00  0.00    +0.000 C 
ATOM      6  C   UNL     1      -1.901  15.348  20.585  0.00  0.00    +0.000 C 
ENDROOT
BRANCH   2   7
ATOM      7  C   UNL     1      -0.163  12.087  18.995  0.00  0.00    +0.000 A 
ATOM      8  C   UNL     1       1.092  11.494  19.174  0.00  0.00    +0.000 A 
ATOM      9  C   UNL     1       1.383  10.249  18.598  0.00  0.00    +0.000 A 
ATOM     10  C   UNL     1       0.410   9.545  17.886  0.00  0.00    +0.000 A 
ATOM     11  C   UNL     1      -0.876  10.048  17.818  0.00  0.00    +0.000 A 
ATOM     12  C   UNL     1      -1.152  11.267  18.412  0.00  0.00    +0.000 A 
ATOM     13  F   UNL     1      -2.446  11.613  18.465  0.00  0.00    +0.000 F 
ENDBRANCH   2   7
BRANCH   6  14
ATOM     14  C   UNL     1      -2.161  16.010  21.953  0.00  0.00    +0.000 A 
ATOM     15  C   UNL     1      -1.158  16.565  22.765  0.00  0.00    +0.000 A 
ATOM     16  C   UNL     1      -1.456  17.070  24.041  0.00  0.00    +0.000 A 
ATOM     17  C   UNL     1      -2.751  17.006  24.551  0.00  0.00    +0.000 A 
ATOM     18  C   UNL     1      -3.776  16.488  23.761  0.00  0.00    +0.000 A 
ATOM     19  C   UNL     1      -5.170  16.342  24.310  0.00  0.00    +0.000 C 
ATOM     20  C   UNL     1      -3.481  16.079  22.448  0.00  0.00    +0.000 A 
ENDBRANCH   6  14
BRANCH   1  21
ATOM     21  S   UNL     1      -1.600  12.686  21.986  0.00  0.00    +0.000 S 
ATOM     22  O   UNL     1      -0.850  13.375  23.000  0.00  0.00    +0.000 OA
ATOM     23  O   UNL     1      -1.182  11.342  21.664  0.00  0.00    +0.000 OA
BRANCH  21  28
ATOM     24  C   UNL     1      -7.242  13.205  24.136  0.00  0.00    +0.000 C 
ATOM     25  C   UNL     1      -5.871  12.903  23.590  0.00  0.00    +0.000 A 
ATOM     26  C   UNL     1      -5.627  12.930  22.212  0.00  0.00    +0.000 A 
ATOM     27  C   UNL     1      -4.338  12.708  21.708  0.00  0.00    +0.000 A 
ATOM     28  C   UNL     1      -3.284  12.572  22.604  0.00  0.00    +0.000 A 
ATOM     29  C   UNL     1      -3.515  12.452  23.974  0.00  0.00    +0.000 A 
ATOM     30  C   UNL     1      -4.806  12.616  24.466  0.00  0.00    +0.000 A 
ENDBRANCH  21  28
ENDBRANCH   1  21
BRANCH   5  31
ATOM     31  C   UNL     1      -1.104  17.308  18.773  0.00  0.00    +0.000 C 
ATOM     32  O   UNL     1      -0.217  17.893  18.166  0.00  0.00    +0.000 OA
BRANCH  31  33
ATOM     33  O   UNL     1      -2.380  17.711  18.679  0.00  0.00    +0.000 OA
ATOM     34  H   UNL     1      -2.767  18.112  19.475  0.00  0.00    +0.000 HD
ENDBRANCH  31  33
ENDBRANCH   5  31
TORSDOF 6
ENDMDL
MODEL 6
REMARK VINA RESULT:      -6.1      2.462      6.405
REMARK  Name = 
REMARK  8 active torsions:
REMARK  status: ('A' for Active; 'I' for Inactive)
REMARK    1  A    between atoms: C_1  and  C_2
REMARK    2  A    between atoms: C_5  and  S_6
REMARK    3  A    between atoms: S_6  and  N_9
REMARK    4  A    between atoms: C_10  and  C_11
REMARK    5  A    between atoms: C_20  and  C_21
REMARK    6  A    between atoms: C_21  and  O_23
REMARK    7  A    between atoms: C_24  and  C_25
REMARK    8  A    between atoms: C_29  and  C_30
REMARK                            x       y       z     vdW  Elec       q    Type
REMARK                         _______ _______ _______ _____ _____    ______ ____
ROOT
ATOM      1  N   UNL     1       0.708  13.482  20.884  0.00  0.00    +0.000 NA
ATOM      2  C   UNL     1       1.801  13.101  19.902  0.00  0.00    +0.000 C 
ATOM      3  C   UNL     1       0.987  12.484  18.733  0.00  0.00    +0.000 C 
ATOM      4  C   UNL     1       0.819  11.077  19.112  0.00  0.00    +0.000 C 
ATOM      5  C   UNL     1       0.314  10.880  20.347  0.00  0.00    +0.000 C 
ATOM      6  C   UNL     1      -0.132  12.123  21.248  0.00  0.00    +0.000 C 
ENDROOT
BRANCH   2   7
ATOM      7  C   UNL     1       2.970  13.950  19.451  0.00  0.00    +0.000 A 
ATOM      8  C   UNL     1       3.123  14.502  18.174  0.00  0.00    +0.000 A 
ATOM      9  C   UNL     1       4.267  15.245  17.850  0.00  0.00    +0.000 A 
ATOM     10  C   UNL     1       5.248  15.504  18.809  0.00  0.00    +0.000 A 
ATOM     11  C   UNL     1       5.048  15.087  20.112  0.00  0.00    +0.000 A 
ATOM     12  C   UNL     1       3.902  14.375  20.421  0.00  0.00    +0.000 A 
ATOM     13  F   UNL     1       3.681  14.156  21.725  0.00  0.00    +0.000 F 
ENDBRANCH   2   7
BRANCH   6  14
ATOM     14  C   UNL     1      -1.657  12.266  21.424  0.00  0.00    +0.000 A 
ATOM     15  C   UNL     1      -2.560  12.459  20.365  0.00  0.00    +0.000 A 
ATOM     16  C   UNL     1      -3.927  12.672  20.607  0.00  0.00    +0.000 A 
ATOM     17  C   UNL     1      -4.420  12.730  21.909  0.00  0.00    +0.000 A 
ATOM     18  C   UNL     1      -3.558  12.514  22.982  0.00  0.00    +0.000 A 
ATOM     19  C   UNL     1      -4.049  12.639  24.400  0.00  0.00    +0.000 C 
ATOM     20  C   UNL     1      -2.212  12.202  22.720  0.00  0.00    +0.000 A 
ENDBRANCH   6  14
BRANCH   1  21
ATOM     21  S   UNL     1       0.025  15.081  20.643  0.00  0.00    +0.000 S 
ATOM     22  O   UNL     1      -0.773  15.025  19.448  0.00  0.00    +0.000 OA
ATOM     23  O   UNL     1       1.022  16.122  20.714  0.00  0.00    +0.000 OA
BRANCH  21  28
ATOM     24  C   UNL     1      -3.546  16.907  25.186  0.00  0.00    +0.000 C 
ATOM     25  C   UNL     1      -2.737  16.296  24.072  0.00  0.00    +0.000 A 
ATOM     26  C   UNL     1      -3.179  16.359  22.747  0.00  0.00    +0.000 A 
ATOM     27  C   UNL     1      -2.398  15.843  21.704  0.00  0.00    +0.000 A 
ATOM     28  C   UNL     1      -1.123  15.369  21.995  0.00  0.00    +0.000 A 
ATOM     29  C   UNL     1      -0.697  15.215  23.314  0.00  0.00    +0.000 A 
ATOM     30  C   UNL     1      -1.502  15.676  24.350  0.00  0.00    +0.000 A 
ENDBRANCH  21  28
ENDBRANCH   1  21
BRANCH   5  31
ATOM     31  C   UNL     1       0.471   9.449  20.752  0.00  0.00    +0.000 C 
ATOM     32  O   UNL     1       1.346   8.715  20.312  0.00  0.00    +0.000 OA
BRANCH  31  33
ATOM     33  O   UNL     1      -0.426   8.991  21.639  0.00  0.00    +0.000 OA
ATOM     34  H   UNL     1      -1.303   8.763  21.287  0.00  0.00    +0.000 HD
ENDBRANCH  31  33
ENDBRANCH   5  31
TORSDOF 6
ENDMDL
MODEL 7
REMARK VINA RESULT:      -5.9      2.540      6.336
REMARK  Name = 
REMARK  8 active torsions:
REMARK  status: ('A' for Active; 'I' for Inactive)
REMARK    1  A    between atoms: C_1  and  C_2
REMARK    2  A    between atoms: C_5  and  S_6
REMARK    3  A    between atoms: S_6  and  N_9
REMARK    4  A    between atoms: C_10  and  C_11
REMARK    5  A    between atoms: C_20  and  C_21
REMARK    6  A    between atoms: C_21  and  O_23
REMARK    7  A    between atoms: C_24  and  C_25
REMARK    8  A    between atoms: C_29  and  C_30
REMARK                            x       y       z     vdW  Elec       q    Type
REMARK                         _______ _______ _______ _____ _____    ______ ____
ROOT
ATOM      1  N   UNL     1       0.472  13.671  21.316  0.00  0.00    +0.000 NA
ATOM      2  C   UNL     1       1.619  13.064  20.528  0.00  0.00    +0.000 C 
ATOM      3  C   UNL     1       0.871  12.192  19.485  0.00  0.00    +0.000 C 
ATOM      4  C   UNL     1       0.651  10.915  20.172  0.00  0.00    +0.000 C 
ATOM      5  C   UNL     1       0.062  11.017  21.382  0.00  0.00    +0.000 C 
ATOM      6  C   UNL     1      -0.417  12.440  21.932  0.00  0.00    +0.000 C 
ENDROOT
BRANCH   2   7
ATOM      7  C   UNL     1       2.831  13.778  19.970  0.00  0.00    +0.000 A 
ATOM      8  C   UNL     1       3.076  14.016  18.613  0.00  0.00    +0.000 A 
ATOM      9  C   UNL     1       4.253  14.657  18.201  0.00  0.00    +0.000 A 
ATOM     10  C   UNL     1       5.177  15.127  19.137  0.00  0.00    +0.000 A 
ATOM     11  C   UNL     1       4.887  15.026  20.484  0.00  0.00    +0.000 A 
ATOM     12  C   UNL     1       3.709  14.412  20.874  0.00  0.00    +0.000 A 
ATOM     13  F   UNL     1       3.403  14.505  22.175  0.00  0.00    +0.000 F 
ENDBRANCH   2   7
BRANCH   6  14
ATOM     14  C   UNL     1      -1.946  12.626  21.966  0.00  0.00    +0.000 A 
ATOM     15  C   UNL     1      -2.697  12.782  23.144  0.00  0.00    +0.000 A 
ATOM     16  C   UNL     1      -4.099  12.856  23.105  0.00  0.00    +0.000 A 
ATOM     17  C   UNL     1      -4.787  12.744  21.899  0.00  0.00    +0.000 A 
ATOM     18  C   UNL     1      -4.073  12.618  20.709  0.00  0.00    +0.000 A 
ATOM     19  C   UNL     1      -4.790  12.426  19.399  0.00  0.00    +0.000 C 
ATOM     20  C   UNL     1      -2.667  12.647  20.753  0.00  0.00    +0.000 A 
ENDBRANCH   6  14
BRANCH   1  21
ATOM     21  S   UNL     1      -0.162  15.171  20.660  0.00  0.00    +0.000 S 
ATOM     22  O   UNL     1      -0.974  14.825  19.525  0.00  0.00    +0.000 OA
ATOM     23  O   UNL     1       0.869  16.159  20.449  0.00  0.00    +0.000 OA
BRANCH  21  28
ATOM     24  C   UNL     1      -4.200  16.590  24.949  0.00  0.00    +0.000 C 
ATOM     25  C   UNL     1      -3.158  16.409  23.877  0.00  0.00    +0.000 A 
ATOM     26  C   UNL     1      -1.825  16.147  24.211  0.00  0.00    +0.000 A 
ATOM     27  C   UNL     1      -0.867  15.919  23.213  0.00  0.00    +0.000 A 
ATOM     28  C   UNL     1      -1.285  15.846  21.889  0.00  0.00    +0.000 A 
ATOM     29  C   UNL     1      -2.587  16.192  21.526  0.00  0.00    +0.000 A 
ATOM     30  C   UNL     1      -3.521  16.474  22.518  0.00  0.00    +0.000 A 
ENDBRANCH  21  28
ENDBRANCH   1  21
BRANCH   5  31
ATOM     31  C   UNL     1       0.164   9.722  22.122  0.00  0.00    +0.000 C 
ATOM     32  O   UNL     1       0.091   8.627  21.579  0.00  0.00    +0.000 OA
BRANCH  31  33
ATOM     33  O   UNL     1       0.334   9.819  23.449  0.00  0.00    +0.000 OA
ATOM     34  H   UNL     1      -0.447   9.640  23.999  0.00  0.00    +0.000 HD
ENDBRANCH  31  33
ENDBRANCH   5  31
TORSDOF 6
ENDMDL
MODEL 8
REMARK VINA RESULT:      -5.9      2.504      4.617
REMARK  Name = 
REMARK  8 active torsions:
REMARK  status: ('A' for Active; 'I' for Inactive)
REMARK    1  A    between atoms: C_1  and  C_2
REMARK    2  A    between atoms: C_5  and  S_6
REMARK    3  A    between atoms: S_6  and  N_9
REMARK    4  A    between atoms: C_10  and  C_11
REMARK    5  A    between atoms: C_20  and  C_21
REMARK    6  A    between atoms: C_21  and  O_23
REMARK    7  A    between atoms: C_24  and  C_25
REMARK    8  A    between atoms: C_29  and  C_30
REMARK                            x       y       z     vdW  Elec       q    Type
REMARK                         _______ _______ _______ _____ _____    ______ ____
ROOT
ATOM      1  N   UNL     1      -0.093  12.988  19.745  0.00  0.00    +0.000 NA
ATOM      2  C   UNL     1      -1.318  13.884  19.744  0.00  0.00    +0.000 C 
ATOM      3  C   UNL     1      -2.401  12.957  20.359  0.00  0.00    +0.000 C 
ATOM      4  C   UNL     1      -2.931  12.211  19.213  0.00  0.00    +0.000 C 
ATOM      5  C   UNL     1      -1.997  11.601  18.454  0.00  0.00    +0.000 C 
ATOM      6  C   UNL     1      -0.455  11.649  18.872  0.00  0.00    +0.000 C 
ENDROOT
BRANCH   2   7
ATOM      7  C   UNL     1      -1.407  15.321  20.213  0.00  0.00    +0.000 A 
ATOM      8  C   UNL     1      -1.906  15.738  21.452  0.00  0.00    +0.000 A 
ATOM      9  C   UNL     1      -1.978  17.101  21.772  0.00  0.00    +0.000 A 
ATOM     10  C   UNL     1      -1.496  18.069  20.888  0.00  0.00    +0.000 A 
ATOM     11  C   UNL     1      -0.871  17.670  19.721  0.00  0.00    +0.000 A 
ATOM     12  C   UNL     1      -0.788  16.319  19.432  0.00  0.00    +0.000 A 
ATOM     13  F   UNL     1      -0.020  15.990  18.383  0.00  0.00    +0.000 F 
ENDBRANCH   2   7
BRANCH   6  14
ATOM     14  C   UNL     1       0.109  10.307  19.379  0.00  0.00    +0.000 A 
ATOM     15  C   UNL     1      -0.214   9.733  20.621  0.00  0.00    +0.000 A 
ATOM     16  C   UNL     1       0.408   8.551  21.057  0.00  0.00    +0.000 A 
ATOM     17  C   UNL     1       1.387   7.932  20.283  0.00  0.00    +0.000 A 
ATOM     18  C   UNL     1       1.711   8.458  19.034  0.00  0.00    +0.000 A 
ATOM     19  C   UNL     1       2.812   7.850  18.206  0.00  0.00    +0.000 C 
ATOM     20  C   UNL     1       1.008   9.583  18.567  0.00  0.00    +0.000 A 
ENDBRANCH   6  14
BRANCH   1  21
ATOM     21  S   UNL     1       0.850  13.028  21.225  0.00  0.00    +0.000 S 
ATOM     22  O   UNL     1       1.846  11.997  21.120  0.00  0.00    +0.000 OA
ATOM     23  O   UNL     1       0.021  13.019  22.407  0.00  0.00    +0.000 OA
BRANCH  21  28
ATOM     24  C   UNL     1       3.132  18.630  20.855  0.00  0.00    +0.000 C 
ATOM     25  C   UNL     1       2.714  17.194  21.029  0.00  0.00    +0.000 A 
ATOM     26  C   UNL     1       2.000  16.787  22.161  0.00  0.00    +0.000 A 
ATOM     27  C   UNL     1       1.559  15.463  22.295  0.00  0.00    +0.000 A 
ATOM     28  C   UNL     1       1.746  14.586  21.232  0.00  0.00    +0.000 A 
ATOM     29  C   UNL     1       2.531  14.942  20.135  0.00  0.00    +0.000 A 
ATOM     30  C   UNL     1       3.015  16.242  20.034  0.00  0.00    +0.000 A 
ENDBRANCH  21  28
ENDBRANCH   1  21
BRANCH   5  31
ATOM     31  C   UNL     1      -2.595  11.139  17.163  0.00  0.00    +0.000 C 
ATOM     32  O   UNL     1      -2.144  10.212  16.504  0.00  0.00    +0.000 OA
BRANCH  31  33
ATOM     33  O   UNL     1      -3.674  11.817  16.744  0.00  0.00    +0.000 OA
ATOM     34  H   UNL     1      -4.516  11.601  17.178  0.00  0.00    +0.000 HD
ENDBRANCH  31  33
ENDBRANCH   5  31
TORSDOF 6
ENDMDL
MODEL 9
REMARK VINA RESULT:      -5.9      1.851      3.504
REMARK  Name = 
REMARK  8 active torsions:
REMARK  status: ('A' for Active; 'I' for Inactive)
REMARK    1  A    between atoms: C_1  and  C_2
REMARK    2  A    between atoms: C_5  and  S_6
REMARK    3  A    between atoms: S_6  and  N_9
REMARK    4  A    between atoms: C_10  and  C_11
REMARK    5  A    between atoms: C_20  and  C_21
REMARK    6  A    between atoms: C_21  and  O_23
REMARK    7  A    between atoms: C_24  and  C_25
REMARK    8  A    between atoms: C_29  and  C_30
REMARK                            x       y       z     vdW  Elec       q    Type
REMARK                         _______ _______ _______ _____ _____    ______ ____
ROOT
ATOM      1  N   UNL     1      -1.463  13.801  21.144  0.00  0.00    +0.000 NA
ATOM      2  C   UNL     1      -2.156  12.592  21.744  0.00  0.00    +0.000 C 
ATOM      3  C   UNL     1      -0.961  11.773  22.301  0.00  0.00    +0.000 C 
ATOM      4  C   UNL     1      -0.512  10.967  21.161  0.00  0.00    +0.000 C 
ATOM      5  C   UNL     1      -0.271  11.666  20.032  0.00  0.00    +0.000 C 
ATOM      6  C   UNL     1      -0.396  13.260  20.025  0.00  0.00    +0.000 C 
ENDROOT
BRANCH   2   7
ATOM      7  C   UNL     1      -3.374  12.581  22.644  0.00  0.00    +0.000 A 
ATOM      8  C   UNL     1      -3.349  12.473  24.038  0.00  0.00    +0.000 A 
ATOM      9  C   UNL     1      -4.542  12.436  24.774  0.00  0.00    +0.000 A 
ATOM     10  C   UNL     1      -5.779  12.568  24.139  0.00  0.00    +0.000 A 
ATOM     11  C   UNL     1      -5.819  12.816  22.780  0.00  0.00    +0.000 A 
ATOM     12  C   UNL     1      -4.630  12.873  22.072  0.00  0.00    +0.000 A 
ATOM     13  F   UNL     1      -4.724  13.291  20.802  0.00  0.00    +0.000 F 
ENDBRANCH   2   7
BRANCH   6  14
ATOM     14  C   UNL     1       0.951  14.003  19.922  0.00  0.00    +0.000 A 
ATOM     15  C   UNL     1       1.305  14.854  18.862  0.00  0.00    +0.000 A 
ATOM     16  C   UNL     1       2.585  15.426  18.788  0.00  0.00    +0.000 A 
ATOM     17  C   UNL     1       3.552  15.139  19.748  0.00  0.00    +0.000 A 
ATOM     18  C   UNL     1       3.227  14.322  20.829  0.00  0.00    +0.000 A 
ATOM     19  C   UNL     1       4.270  13.939  21.845  0.00  0.00    +0.000 C 
ATOM     20  C   UNL     1       1.911  13.838  20.943  0.00  0.00    +0.000 A 
ENDBRANCH   6  14
BRANCH   1  21
ATOM     21  S   UNL     1      -1.199  15.129  22.262  0.00  0.00    +0.000 S 
ATOM     22  O   UNL     1      -0.466  16.141  21.550  0.00  0.00    +0.000 OA
ATOM     23  O   UNL     1      -0.649  14.688  23.521  0.00  0.00    +0.000 OA
BRANCH  21  28
ATOM     24  C   UNL     1      -6.942  16.677  23.420  0.00  0.00    +0.000 C 
ATOM     25  C   UNL     1      -5.475  16.463  23.154  0.00  0.00    +0.000 A 
ATOM     26  C   UNL     1      -4.596  16.151  24.196  0.00  0.00    +0.000 A 
ATOM     27  C   UNL     1      -3.242  15.893  23.940  0.00  0.00    +0.000 A 
ATOM     28  C   UNL     1      -2.810  15.840  22.620  0.00  0.00    +0.000 A 
ATOM     29  C   UNL     1      -3.644  16.234  21.574  0.00  0.00    +0.000 A 
ATOM     30  C   UNL     1      -4.974  16.545  21.840  0.00  0.00    +0.000 A 
ENDBRANCH  21  28
ENDBRANCH   1  21
BRANCH   5  31
ATOM     31  C   UNL     1      -0.127  10.741  18.867  0.00  0.00    +0.000 C 
ATOM     32  O   UNL     1       0.545   9.718  18.896  0.00  0.00    +0.000 OA
BRANCH  31  33
ATOM     33  O   UNL     1      -0.778  11.101  17.750  0.00  0.00    +0.000 OA
ATOM     34  H   UNL     1      -1.111  10.379  17.193  0.00  0.00    +0.000 HD
ENDBRANCH  31  33
ENDBRANCH   5  31
TORSDOF 6
ENDMDL
