MODEL 1
REMARK VINA RESULT:      -7.7      0.000      0.000
REMARK  Name = 
REMARK  6 active torsions:
REMARK  status: ('A' for Active; 'I' for Inactive)
REMARK    1  A    between atoms: C_1  and  C_2
REMARK    2  A    between atoms: C_2  and  O_4
REMARK    3  A    between atoms: O_4  and  C_5
REMARK    4  A    between atoms: C_5  and  C_6
REMARK    5  A    between atoms: C_5  and  C_15
REMARK    6  A    between atoms: N_8  and  C_9
REMARK                            x       y       z     vdW  Elec       q    Type
REMARK                         _______ _______ _______ _____ _____    ______ ____
ROOT
ATOM      1  C   UNL     1       2.787   4.948  19.474  0.00  0.00    +0.000 C 
ENDROOT
BRANCH   1   2
ATOM      2  C   UNL     1       2.351   6.418  19.483  0.00  0.00    +0.000 A 
ATOM      3  C   UNL     1       2.442   7.182  18.309  0.00  0.00    +0.000 A 
ATOM      4  C   UNL     1       1.983   8.503  18.286  0.00  0.00    +0.000 A 
ATOM      5  C   UNL     1       1.418   9.080  19.427  0.00  0.00    +0.000 A 
ATOM      6 CL   UNL     1       0.855  10.708  19.317  0.00  0.00    +0.000 Cl
ATOM      7  C   UNL     1       1.321   8.332  20.604  0.00  0.00    +0.000 A 
ATOM      8 CL   UNL     1       0.607   8.955  22.047  0.00  0.00    +0.000 Cl
ATOM      9  C   UNL     1       1.788   7.014  20.630  0.00  0.00    +0.000 A 
ENDBRANCH   1   2
BRANCH   1  10
ATOM     10  C   UNL     1       3.750   4.618  18.300  0.00  0.00    +0.000 C 
ATOM     11  O   UNL     1       3.371   4.070  17.267  0.00  0.00    +0.000 OA
ATOM     12  N   UNL     1       5.061   5.011  18.486  0.00  0.00    +0.000 N 
ATOM     13  H   UNL     1       5.258   5.624  19.263  0.00  0.00    +0.000 HD
BRANCH  12  14
ATOM     14  C   UNL     1       6.112   4.850  17.493  0.00  0.00    +0.000 C 
ATOM     15  C   UNL     1       6.089   6.010  16.493  0.00  0.00    +0.000 C 
ATOM     16  C   UNL     1       6.475   7.339  17.144  0.00  0.00    +0.000 C 
ATOM     17  C   UNL     1       7.810   7.255  17.881  0.00  0.00    +0.000 C 
ATOM     18  C   UNL     1       7.873   6.084  18.857  0.00  0.00    +0.000 C 
ATOM     19  C   UNL     1       7.478   4.765  18.188  0.00  0.00    +0.000 C 
ENDBRANCH  12  14
ENDBRANCH   1  10
BRANCH   1  20
ATOM     20  O   UNL     1       1.604   4.141  19.391  0.00  0.00    +0.000 OA
BRANCH  20  22
ATOM     21  C   UNL     1       1.805   3.156  21.503  0.00  0.00    +0.000 C 
ATOM     22  C   UNL     1       1.660   2.943  20.027  0.00  0.00    +0.000 C 
ATOM     23  O   UNL     1       1.679   1.848  19.488  0.00  0.00    +0.000 OA
ENDBRANCH  20  22
ENDBRANCH   1  20
TORSDOF 5
ENDMDL
MODEL 2
REMARK VINA RESULT:      -7.6      1.964      4.920
REMARK  Name = 
REMARK  6 active torsions:
REMARK  status: ('A' for Active; 'I' for Inactive)
REMARK    1  A    between atoms: C_1  and  C_2
REMARK    2  A    between atoms: C_2  and  O_4
REMARK    3  A    between atoms: O_4  and  C_5
REMARK    4  A    between atoms: C_5  and  C_6
REMARK    5  A    between atoms: C_5  and  C_15
REMARK    6  A    between atoms: N_8  and  C_9
REMARK                            x       y       z     vdW  Elec       q    Type
REMARK                         _______ _______ _______ _____ _____    ______ ____
ROOT
ATOM      1  C   UNL     1       5.109   5.578  17.869  0.00  0.00    +0.000 C 
ENDROOT
BRANCH   1   2
ATOM      2  C   UNL     1       4.013   6.595  18.207  0.00  0.00    +0.000 A 
ATOM      3  C   UNL     1       3.708   7.623  17.301  0.00  0.00    +0.000 A 
ATOM      4  C   UNL     1       2.664   8.515  17.565  0.00  0.00    +0.000 A 
ATOM      5  C   UNL     1       1.902   8.392  18.731  0.00  0.00    +0.000 A 
ATOM      6 CL   UNL     1       0.616   9.517  18.979  0.00  0.00    +0.000 Cl
ATOM      7  C   UNL     1       2.193   7.374  19.643  0.00  0.00    +0.000 A 
ATOM      8 CL   UNL     1       1.280   7.130  21.089  0.00  0.00    +0.000 Cl
ATOM      9  C   UNL     1       3.243   6.487  19.383  0.00  0.00    +0.000 A 
ENDBRANCH   1   2
BRANCH   1  10
ATOM     10  C   UNL     1       4.903   4.217  18.590  0.00  0.00    +0.000 C 
ATOM     11  O   UNL     1       5.776   3.694  19.280  0.00  0.00    +0.000 OA
ATOM     12  N   UNL     1       3.656   3.646  18.424  0.00  0.00    +0.000 N 
ATOM     13  H   UNL     1       2.933   4.218  18.012  0.00  0.00    +0.000 HD
BRANCH  12  14
ATOM     14  C   UNL     1       3.234   2.405  19.055  0.00  0.00    +0.000 C 
ATOM     15  C   UNL     1       3.290   2.531  20.580  0.00  0.00    +0.000 C 
ATOM     16  C   UNL     1       2.254   3.521  21.114  0.00  0.00    +0.000 C 
ATOM     17  C   UNL     1       0.843   3.201  20.625  0.00  0.00    +0.000 C 
ATOM     18  C   UNL     1       0.767   3.033  19.112  0.00  0.00    +0.000 C 
ATOM     19  C   UNL     1       1.814   2.043  18.596  0.00  0.00    +0.000 C 
ENDBRANCH  12  14
ENDBRANCH   1  10
BRANCH   1  20
ATOM     20  O   UNL     1       6.369   6.153  18.240  0.00  0.00    +0.000 OA
BRANCH  20  22
ATOM     21  C   UNL     1       7.648   7.969  17.506  0.00  0.00    +0.000 C 
ATOM     22  C   UNL     1       7.145   6.588  17.214  0.00  0.00    +0.000 C 
ATOM     23  O   UNL     1       7.343   5.995  16.166  0.00  0.00    +0.000 OA
ENDBRANCH  20  22
ENDBRANCH   1  20
TORSDOF 5
ENDMDL
MODEL 3
REMARK VINA RESULT:      -7.4      2.063      4.846
REMARK  Name = 
REMARK  6 active torsions:
REMARK  status: ('A' for Active; 'I' for Inactive)
REMARK    1  A    between atoms: C_1  and  C_2
REMARK    2  A    between atoms: C_2  and  O_4
REMARK    3  A    between atoms: O_4  and  C_5
REMARK    4  A    between atoms: C_5  and  C_6
REMARK    5  A    between atoms: C_5  and  C_15
REMARK    6  A    between atoms: N_8  and  C_9
REMARK                            x       y       z     vdW  Elec       q    Type
REMARK                         _______ _______ _______ _____ _____    ______ ____
ROOT
ATOM      1  C   UNL     1       4.704   5.284  17.488  0.00  0.00    +0.000 C 
ENDROOT
BRANCH   1   2
ATOM      2  C   UNL     1       3.804   6.425  17.976  0.00  0.00    +0.000 A 
ATOM      3  C   UNL     1       3.622   7.564  17.175  0.00  0.00    +0.000 A 
ATOM      4  C   UNL     1       2.749   8.581  17.576  0.00  0.00    +0.000 A 
ATOM      5  C   UNL     1       2.039   8.476  18.776  0.00  0.00    +0.000 A 
ATOM      6 CL   UNL     1       0.965   9.761  19.195  0.00  0.00    +0.000 Cl
ATOM      7  C   UNL     1       2.209   7.349  19.584  0.00  0.00    +0.000 A 
ATOM      8 CL   UNL     1       1.346   7.124  21.063  0.00  0.00    +0.000 Cl
ATOM      9  C   UNL     1       3.088   6.336  19.187  0.00  0.00    +0.000 A 
ENDBRANCH   1   2
BRANCH   1  10
ATOM     10  C   UNL     1       4.650   4.042  18.420  0.00  0.00    +0.000 C 
ATOM     11  O   UNL     1       5.569   3.744  19.181  0.00  0.00    +0.000 OA
ATOM     12  N   UNL     1       3.481   3.308  18.357  0.00  0.00    +0.000 N 
ATOM     13  H   UNL     1       2.701   3.717  17.863  0.00  0.00    +0.000 HD
BRANCH  12  14
ATOM     14  C   UNL     1       3.200   2.144  19.183  0.00  0.00    +0.000 C 
ATOM     15  C   UNL     1       3.427   2.467  20.662  0.00  0.00    +0.000 C 
ATOM     16  C   UNL     1       2.409   3.479  21.193  0.00  0.00    +0.000 C 
ATOM     17  C   UNL     1       0.970   3.047  20.923  0.00  0.00    +0.000 C 
ATOM     18  C   UNL     1       0.727   2.683  19.462  0.00  0.00    +0.000 C 
ATOM     19  C   UNL     1       1.757   1.674  18.949  0.00  0.00    +0.000 C 
ENDBRANCH  12  14
ENDBRANCH   1  10
BRANCH   1  20
ATOM     20  O   UNL     1       6.043   5.788  17.405  0.00  0.00    +0.000 OA
BRANCH  20  22
ATOM     21  C   UNL     1       6.221   5.185  15.152  0.00  0.00    +0.000 C 
ATOM     22  C   UNL     1       6.854   5.167  16.509  0.00  0.00    +0.000 C 
ATOM     23  O   UNL     1       7.901   4.598  16.769  0.00  0.00    +0.000 OA
ENDBRANCH  20  22
ENDBRANCH   1  20
TORSDOF 5
ENDMDL
MODEL 4
REMARK VINA RESULT:      -7.4      4.373      7.161
REMARK  Name = 
REMARK  6 active torsions:
REMARK  status: ('A' for Active; 'I' for Inactive)
REMARK    1  A    between atoms: C_1  and  C_2
REMARK    2  A    between atoms: C_2  and  O_4
REMARK    3  A    between atoms: O_4  and  C_5
REMARK    4  A    between atoms: C_5  and  C_6
REMARK    5  A    between atoms: C_5  and  C_15
REMARK    6  A    between atoms: N_8  and  C_9
REMARK                            x       y       z     vdW  Elec       q    Type
REMARK                         _______ _______ _______ _____ _____    ______ ____
ROOT
ATOM      1  C   UNL     1       5.953   6.064  17.315  0.00  0.00    +0.000 C 
ENDROOT
BRANCH   1   2
ATOM      2  C   UNL     1       6.090   5.275  16.008  0.00  0.00    +0.000 A 
ATOM      3  C   UNL     1       5.221   4.205  15.743  0.00  0.00    +0.000 A 
ATOM      4  C   UNL     1       5.290   3.521  14.524  0.00  0.00    +0.000 A 
ATOM      5  C   UNL     1       6.217   3.899  13.548  0.00  0.00    +0.000 A 
ATOM      6 CL   UNL     1       6.228   3.022  12.061  0.00  0.00    +0.000 Cl
ATOM      7  C   UNL     1       7.088   4.962  13.797  0.00  0.00    +0.000 A 
ATOM      8 CL   UNL     1       8.239   5.515  12.635  0.00  0.00    +0.000 Cl
ATOM      9  C   UNL     1       7.026   5.640  15.019  0.00  0.00    +0.000 A 
ENDBRANCH   1   2
BRANCH   1  10
ATOM     10  C   UNL     1       4.472   6.328  17.702  0.00  0.00    +0.000 C 
ATOM     11  O   UNL     1       3.837   7.290  17.274  0.00  0.00    +0.000 OA
ATOM     12  N   UNL     1       3.905   5.386  18.539  0.00  0.00    +0.000 N 
ATOM     13  H   UNL     1       4.416   4.529  18.689  0.00  0.00    +0.000 HD
BRANCH  12  14
ATOM     14  C   UNL     1       2.518   5.410  18.977  0.00  0.00    +0.000 C 
ATOM     15  C   UNL     1       1.637   4.605  18.018  0.00  0.00    +0.000 C 
ATOM     16  C   UNL     1       1.953   3.108  18.065  0.00  0.00    +0.000 C 
ATOM     17  C   UNL     1       1.899   2.551  19.485  0.00  0.00    +0.000 C 
ATOM     18  C   UNL     1       2.740   3.358  20.469  0.00  0.00    +0.000 C 
ATOM     19  C   UNL     1       2.412   4.852  20.403  0.00  0.00    +0.000 C 
ENDBRANCH  12  14
ENDBRANCH   1  10
BRANCH   1  20
ATOM     20  O   UNL     1       6.655   7.304  17.153  0.00  0.00    +0.000 OA
BRANCH  20  22
ATOM     21  C   UNL     1       8.178   8.927  17.872  0.00  0.00    +0.000 C 
ATOM     22  C   UNL     1       7.680   7.521  18.016  0.00  0.00    +0.000 C 
ATOM     23  O   UNL     1       8.189   6.685  18.744  0.00  0.00    +0.000 OA
ENDBRANCH  20  22
ENDBRANCH   1  20
TORSDOF 5
ENDMDL
MODEL 5
REMARK VINA RESULT:      -7.3      1.761      4.945
REMARK  Name = 
REMARK  6 active torsions:
REMARK  status: ('A' for Active; 'I' for Inactive)
REMARK    1  A    between atoms: C_1  and  C_2
REMARK    2  A    between atoms: C_2  and  O_4
REMARK    3  A    between atoms: O_4  and  C_5
REMARK    4  A    between atoms: C_5  and  C_6
REMARK    5  A    between atoms: C_5  and  C_15
REMARK    6  A    between atoms: N_8  and  C_9
REMARK                            x       y       z     vdW  Elec       q    Type
REMARK                         _______ _______ _______ _____ _____    ______ ____
ROOT
ATOM      1  C   UNL     1       4.222   5.941  17.388  0.00  0.00    +0.000 C 
ENDROOT
BRANCH   1   2
ATOM      2  C   UNL     1       3.239   6.748  18.244  0.00  0.00    +0.000 A 
ATOM      3  C   UNL     1       2.893   6.295  19.527  0.00  0.00    +0.000 A 
ATOM      4  C   UNL     1       2.052   7.057  20.345  0.00  0.00    +0.000 A 
ATOM      5  C   UNL     1       1.551   8.285  19.902  0.00  0.00    +0.000 A 
ATOM      6 CL   UNL     1       0.536   9.179  20.974  0.00  0.00    +0.000 Cl
ATOM      7  C   UNL     1       1.886   8.749  18.627  0.00  0.00    +0.000 A 
ATOM      8 CL   UNL     1       1.339  10.269  18.015  0.00  0.00    +0.000 Cl
ATOM      9  C   UNL     1       2.720   7.983  17.806  0.00  0.00    +0.000 A 
ENDBRANCH   1   2
BRANCH   1  10
ATOM     10  C   UNL     1       3.946   4.413  17.442  0.00  0.00    +0.000 C 
ATOM     11  O   UNL     1       4.732   3.582  16.992  0.00  0.00    +0.000 OA
ATOM     12  N   UNL     1       2.763   4.050  18.058  0.00  0.00    +0.000 N 
ATOM     13  H   UNL     1       2.268   4.764  18.573  0.00  0.00    +0.000 HD
BRANCH  12  14
ATOM     14  C   UNL     1       2.337   2.674  18.265  0.00  0.00    +0.000 C 
ATOM     15  C   UNL     1       3.232   1.985  19.299  0.00  0.00    +0.000 C 
ATOM     16  C   UNL     1       3.058   2.579  20.698  0.00  0.00    +0.000 C 
ATOM     17  C   UNL     1       1.596   2.601  21.139  0.00  0.00    +0.000 C 
ATOM     18  C   UNL     1       0.678   3.249  20.109  0.00  0.00    +0.000 C 
ATOM     19  C   UNL     1       0.870   2.645  18.716  0.00  0.00    +0.000 C 
ENDBRANCH  12  14
ENDBRANCH   1  10
BRANCH   1  20
ATOM     20  O   UNL     1       5.547   6.225  17.858  0.00  0.00    +0.000 OA
BRANCH  20  22
ATOM     21  C   UNL     1       7.514   7.448  17.533  0.00  0.00    +0.000 C 
ATOM     22  C   UNL     1       6.441   6.607  16.911  0.00  0.00    +0.000 C 
ATOM     23  O   UNL     1       6.354   6.383  15.715  0.00  0.00    +0.000 OA
ENDBRANCH  20  22
ENDBRANCH   1  20
TORSDOF 5
ENDMDL
MODEL 6
REMARK VINA RESULT:      -7.3      0.690      1.515
REMARK  Name = 
REMARK  6 active torsions:
REMARK  status: ('A' for Active; 'I' for Inactive)
REMARK    1  A    between atoms: C_1  and  C_2
REMARK    2  A    between atoms: C_2  and  O_4
REMARK    3  A    between atoms: O_4  and  C_5
REMARK    4  A    between atoms: C_5  and  C_6
REMARK    5  A    between atoms: C_5  and  C_15
REMARK    6  A    between atoms: N_8  and  C_9
REMARK                            x       y       z     vdW  Elec       q    Type
REMARK                         _______ _______ _______ _____ _____    ______ ____
ROOT
ATOM      1  C   UNL     1       2.686   4.822  19.607  0.00  0.00    +0.000 C 
ENDROOT
BRANCH   1   2
ATOM      2  C   UNL     1       2.163   6.257  19.747  0.00  0.00    +0.000 A 
ATOM      3  C   UNL     1       1.566   6.670  20.948  0.00  0.00    +0.000 A 
ATOM      4  C   UNL     1       1.148   7.995  21.113  0.00  0.00    +0.000 A 
ATOM      5  C   UNL     1       1.327   8.929  20.089  0.00  0.00    +0.000 A 
ATOM      6 CL   UNL     1       0.805  10.550  20.372  0.00  0.00    +0.000 Cl
ATOM      7  C   UNL     1       1.919   8.533  18.887  0.00  0.00    +0.000 A 
ATOM      8 CL   UNL     1       2.207   9.630  17.584  0.00  0.00    +0.000 Cl
ATOM      9  C   UNL     1       2.329   7.206  18.718  0.00  0.00    +0.000 A 
ENDBRANCH   1   2
BRANCH   1  10
ATOM     10  C   UNL     1       3.516   4.613  18.311  0.00  0.00    +0.000 C 
ATOM     11  O   UNL     1       3.009   4.247  17.252  0.00  0.00    +0.000 OA
ATOM     12  N   UNL     1       4.864   4.896  18.423  0.00  0.00    +0.000 N 
ATOM     13  H   UNL     1       5.172   5.374  19.256  0.00  0.00    +0.000 HD
BRANCH  12  14
ATOM     14  C   UNL     1       5.810   4.821  17.320  0.00  0.00    +0.000 C 
ATOM     15  C   UNL     1       5.704   6.068  16.436  0.00  0.00    +0.000 C 
ATOM     16  C   UNL     1       6.172   7.330  17.164  0.00  0.00    +0.000 C 
ATOM     17  C   UNL     1       7.571   7.171  17.754  0.00  0.00    +0.000 C 
ATOM     18  C   UNL     1       7.713   5.916  18.608  0.00  0.00    +0.000 C 
ATOM     19  C   UNL     1       7.236   4.666  17.865  0.00  0.00    +0.000 C 
ENDBRANCH  12  14
ENDBRANCH   1  10
BRANCH   1  20
ATOM     20  O   UNL     1       1.555   3.941  19.624  0.00  0.00    +0.000 OA
BRANCH  20  22
ATOM     21  C   UNL     1       1.928   2.760  21.608  0.00  0.00    +0.000 C 
ATOM     22  C   UNL     1       1.782   2.697  20.118  0.00  0.00    +0.000 C 
ATOM     23  O   UNL     1       1.934   1.682  19.457  0.00  0.00    +0.000 OA
ENDBRANCH  20  22
ENDBRANCH   1  20
TORSDOF 5
ENDMDL
MODEL 7
REMARK VINA RESULT:      -7.2      1.960      4.981
REMARK  Name = 
REMARK  6 active torsions:
REMARK  status: ('A' for Active; 'I' for Inactive)
REMARK    1  A    between atoms: C_1  and  C_2
REMARK    2  A    between atoms: C_2  and  O_4
REMARK    3  A    between atoms: O_4  and  C_5
REMARK    4  A    between atoms: C_5  and  C_6
REMARK    5  A    between atoms: C_5  and  C_15
REMARK    6  A    between atoms: N_8  and  C_9
REMARK                            x       y       z     vdW  Elec       q    Type
REMARK                         _______ _______ _______ _____ _____    ______ ____
ROOT
ATOM      1  C   UNL     1       4.297   5.784  17.690  0.00  0.00    +0.000 C 
ENDROOT
BRANCH   1   2
ATOM      2  C   UNL     1       3.295   6.714  18.383  0.00  0.00    +0.000 A 
ATOM      3  C   UNL     1       2.758   6.359  19.631  0.00  0.00    +0.000 A 
ATOM      4  C   UNL     1       1.897   7.230  20.306  0.00  0.00    +0.000 A 
ATOM      5  C   UNL     1       1.564   8.471  19.753  0.00  0.00    +0.000 A 
ATOM      6 CL   UNL     1       0.511   9.501  20.653  0.00  0.00    +0.000 Cl
ATOM      7  C   UNL     1       2.089   8.838  18.512  0.00  0.00    +0.000 A 
ATOM      8 CL   UNL     1       1.756  10.364  17.774  0.00  0.00    +0.000 Cl
ATOM      9  C   UNL     1       2.943   7.963  17.833  0.00  0.00    +0.000 A 
ENDBRANCH   1   2
BRANCH   1  10
ATOM     10  C   UNL     1       4.441   4.416  18.412  0.00  0.00    +0.000 C 
ATOM     11  O   UNL     1       5.496   4.043  18.922  0.00  0.00    +0.000 OA
ATOM     12  N   UNL     1       3.288   3.656  18.468  0.00  0.00    +0.000 N 
ATOM     13  H   UNL     1       2.422   4.104  18.207  0.00  0.00    +0.000 HD
BRANCH  12  14
ATOM     14  C   UNL     1       3.186   2.372  19.145  0.00  0.00    +0.000 C 
ATOM     15  C   UNL     1       3.519   2.520  20.632  0.00  0.00    +0.000 C 
ATOM     16  C   UNL     1       2.470   3.349  21.377  0.00  0.00    +0.000 C 
ATOM     17  C   UNL     1       1.055   2.815  21.164  0.00  0.00    +0.000 C 
ATOM     18  C   UNL     1       0.712   2.623  19.690  0.00  0.00    +0.000 C 
ATOM     19  C   UNL     1       1.775   1.797  18.962  0.00  0.00    +0.000 C 
ENDBRANCH  12  14
ENDBRANCH   1  10
BRANCH   1  20
ATOM     20  O   UNL     1       5.561   6.459  17.645  0.00  0.00    +0.000 OA
BRANCH  20  22
ATOM     21  C   UNL     1       5.367   5.898  15.383  0.00  0.00    +0.000 C 
ATOM     22  C   UNL     1       6.278   6.297  16.504  0.00  0.00    +0.000 C 
ATOM     23  O   UNL     1       7.492   6.374  16.406  0.00  0.00    +0.000 OA
ENDBRANCH  20  22
ENDBRANCH   1  20
TORSDOF 5
ENDMDL
MODEL 8
REMARK VINA RESULT:      -7.2      2.030      4.762
REMARK  Name = 
REMARK  6 active torsions:
REMARK  status: ('A' for Active; 'I' for Inactive)
REMARK    1  A    between atoms: C_1  and  C_2
REMARK    2  A    between atoms: C_2  and  O_4
REMARK    3  A    between atoms: O_4  and  C_5
REMARK    4  A    between atoms: C_5  and  C_6
REMARK    5  A    between atoms: C_5  and  C_15
REMARK    6  A    between atoms: N_8  and  C_9
REMARK                            x       y       z     vdW  Elec       q    Type
REMARK                         _______ _______ _______ _____ _____    ______ ____
ROOT
ATOM      1  C   UNL     1       4.125   6.361  17.684  0.00  0.00    +0.000 C 
ENDROOT
BRANCH   1   2
ATOM      2  C   UNL     1       3.143   7.411  18.217  0.00  0.00    +0.000 A 
ATOM      3  C   UNL     1       2.748   8.479  17.397  0.00  0.00    +0.000 A 
ATOM      4  C   UNL     1       1.799   9.404  17.845  0.00  0.00    +0.000 A 
ATOM      5  C   UNL     1       1.223   9.274  19.112  0.00  0.00    +0.000 A 
ATOM      6 CL   UNL     1       0.044  10.442  19.589  0.00  0.00    +0.000 Cl
ATOM      7  C   UNL     1       1.606   8.216  19.940  0.00  0.00    +0.000 A 
ATOM      8 CL   UNL     1       0.920   7.962  21.505  0.00  0.00    +0.000 Cl
ATOM      9  C   UNL     1       2.561   7.296  19.496  0.00  0.00    +0.000 A 
ENDBRANCH   1   2
BRANCH   1  10
ATOM     10  C   UNL     1       4.325   5.177  18.670  0.00  0.00    +0.000 C 
ATOM     11  O   UNL     1       5.213   5.166  19.520  0.00  0.00    +0.000 OA
ATOM     12  N   UNL     1       3.415   4.145  18.543  0.00  0.00    +0.000 N 
ATOM     13  H   UNL     1       2.604   4.308  17.964  0.00  0.00    +0.000 HD
BRANCH  12  14
ATOM     14  C   UNL     1       3.387   2.969  19.400  0.00  0.00    +0.000 C 
ATOM     15  C   UNL     1       2.869   3.332  20.794  0.00  0.00    +0.000 C 
ATOM     16  C   UNL     1       1.394   3.739  20.772  0.00  0.00    +0.000 C 
ATOM     17  C   UNL     1       0.515   2.687  20.099  0.00  0.00    +0.000 C 
ATOM     18  C   UNL     1       1.031   2.280  18.723  0.00  0.00    +0.000 C 
ATOM     19  C   UNL     1       2.508   1.882  18.764  0.00  0.00    +0.000 C 
ENDBRANCH  12  14
ENDBRANCH   1  10
BRANCH   1  20
ATOM     20  O   UNL     1       5.374   7.019  17.434  0.00  0.00    +0.000 OA
BRANCH  20  22
ATOM     21  C   UNL     1       5.325   6.003  15.327  0.00  0.00    +0.000 C 
ATOM     22  C   UNL     1       6.163   6.449  16.486  0.00  0.00    +0.000 C 
ATOM     23  O   UNL     1       7.362   6.243  16.585  0.00  0.00    +0.000 OA
ENDBRANCH  20  22
ENDBRANCH   1  20
TORSDOF 5
ENDMDL
MODEL 9
REMARK VINA RESULT:      -7.1      1.165      1.820
REMARK  Name = 
REMARK  6 active torsions:
REMARK  status: ('A' for Active; 'I' for Inactive)
REMARK    1  A    between atoms: C_1  and  C_2
REMARK    2  A    between atoms: C_2  and  O_4
REMARK    3  A    between atoms: O_4  and  C_5
REMARK    4  A    between atoms: C_5  and  C_6
REMARK    5  A    between atoms: C_5  and  C_15
REMARK    6  A    between atoms: N_8  and  C_9
REMARK                            x       y       z     vdW  Elec       q    Type
REMARK                         _______ _______ _______ _____ _____    ______ ____
ROOT
ATOM      1  C   UNL     1       2.524   5.519  20.089  0.00  0.00    +0.000 C 
ENDROOT
BRANCH   1   2
ATOM      2  C   UNL     1       1.928   6.932  20.069  0.00  0.00    +0.000 A 
ATOM      3  C   UNL     1       1.177   7.390  21.162  0.00  0.00    +0.000 A 
ATOM      4  C   UNL     1       0.687   8.700  21.186  0.00  0.00    +0.000 A 
ATOM      5  C   UNL     1       0.946   9.576  20.127  0.00  0.00    +0.000 A 
ATOM      6 CL   UNL     1       0.326  11.183  20.237  0.00  0.00    +0.000 Cl
ATOM      7  C   UNL     1       1.691   9.134  19.031  0.00  0.00    +0.000 A 
ATOM      8 CL   UNL     1       2.084  10.159  17.698  0.00  0.00    +0.000 Cl
ATOM      9  C   UNL     1       2.173   7.821  19.003  0.00  0.00    +0.000 A 
ENDBRANCH   1   2
BRANCH   1  10
ATOM     10  C   UNL     1       3.190   5.133  18.739  0.00  0.00    +0.000 C 
ATOM     11  O   UNL     1       2.540   4.767  17.761  0.00  0.00    +0.000 OA
ATOM     12  N   UNL     1       4.566   5.256  18.705  0.00  0.00    +0.000 N 
ATOM     13  H   UNL     1       5.009   5.744  19.469  0.00  0.00    +0.000 HD
BRANCH  12  14
ATOM     14  C   UNL     1       5.380   5.001  17.527  0.00  0.00    +0.000 C 
ATOM     15  C   UNL     1       5.389   6.223  16.604  0.00  0.00    +0.000 C 
ATOM     16  C   UNL     1       6.114   7.414  17.233  0.00  0.00    +0.000 C 
ATOM     17  C   UNL     1       7.520   7.051  17.704  0.00  0.00    +0.000 C 
ATOM     18  C   UNL     1       7.544   5.814  18.595  0.00  0.00    +0.000 C 
ATOM     19  C   UNL     1       6.810   4.636  17.951  0.00  0.00    +0.000 C 
ENDBRANCH  12  14
ENDBRANCH   1  10
BRANCH   1  20
ATOM     20  O   UNL     1       1.467   4.603  20.405  0.00  0.00    +0.000 OA
BRANCH  20  22
ATOM     21  C   UNL     1       1.581   2.281  20.148  0.00  0.00    +0.000 C 
ATOM     22  C   UNL     1       1.843   3.460  21.034  0.00  0.00    +0.000 C 
ATOM     23  O   UNL     1       2.253   3.378  22.181  0.00  0.00    +0.000 OA
ENDBRANCH  20  22
ENDBRANCH   1  20
TORSDOF 5
ENDMDL
