MODEL 1
REMARK VINA RESULT:      -7.9      0.000      0.000
REMARK  Name = 
REMARK  3 active torsions:
REMARK  status: ('A' for Active; 'I' for Inactive)
REMARK    1  A    between atoms: C_1  and  C_2
REMARK    2  A    between atoms: C_12  and  N_13
REMARK    3  A    between atoms: C_14  and  C_16
REMARK                            x       y       z     vdW  Elec       q    Type
REMARK                         _______ _______ _______ _____ _____    ______ ____
ROOT
ATOM      1  C   UNL     1       7.046   4.665  14.816  0.00  0.00    +0.000 C 
ATOM      2  C   UNL     1       6.041   5.141  15.827  0.00  0.00    +0.000 A 
ATOM      3  C   UNL     1       5.408   6.397  15.738  0.00  0.00    +0.000 A 
ATOM      4  C   UNL     1       4.460   6.819  16.699  0.00  0.00    +0.000 A 
ATOM      5  C   UNL     1       4.151   5.971  17.755  0.00  0.00    +0.000 A 
ATOM      6  C   UNL     1       4.797   4.727  17.823  0.00  0.00    +0.000 A 
ATOM      7  C   UNL     1       5.725   4.299  16.890  0.00  0.00    +0.000 A 
ATOM      8  S   UNL     1       4.280   3.788  19.219  0.00  0.00    +0.000 S 
ATOM      9  C   UNL     1       3.197   5.075  19.687  0.00  0.00    +0.000 A 
ATOM     10  N   UNL     1       2.466   4.950  20.732  0.00  0.00    +0.000 NA
ATOM     11  C   UNL     1       1.651   6.002  21.013  0.00  0.00    +0.000 A 
ATOM     12  C   UNL     1       1.541   7.146  20.317  0.00  0.00    +0.000 A 
ATOM     13  C   UNL     1       2.426   7.265  19.077  0.00  0.00    +0.000 A 
ATOM     14  O   UNL     1       2.365   8.289  18.398  0.00  0.00    +0.000 OA
ATOM     15  N   UNL     1       3.233   6.160  18.832  0.00  0.00    +0.000 N 
ENDROOT
BRANCH  12  16
ATOM     16  N   UNL     1       0.692   8.204  20.656  0.00  0.00    +0.000 N 
ATOM     17  C   UNL     1       0.929   9.127  21.673  0.00  0.00    +0.000 C 
ATOM     18  O   UNL     1       1.908   9.122  22.414  0.00  0.00    +0.000 OA
ATOM     19  H   UNL     1      -0.127   8.301  20.064  0.00  0.00    +0.000 HD
BRANCH  17  20
ATOM     20  C   UNL     1      -0.040  10.233  21.900  0.00  0.00    +0.000 A 
ATOM     21  C   UNL     1      -0.752  10.409  23.089  0.00  0.00    +0.000 A 
ATOM     22  C   UNL     1      -1.582  11.528  23.235  0.00  0.00    +0.000 A 
ATOM     23  C   UNL     1      -1.694  12.461  22.206  0.00  0.00    +0.000 A 
ATOM     24  F   UNL     1      -2.486  13.529  22.362  0.00  0.00    +0.000 F 
ATOM     25  C   UNL     1      -0.984  12.308  21.026  0.00  0.00    +0.000 A 
ATOM     26  C   UNL     1      -0.156  11.197  20.874  0.00  0.00    +0.000 A 
ENDBRANCH  17  20
ENDBRANCH  12  16
TORSDOF 2
ENDMDL
MODEL 2
REMARK VINA RESULT:      -7.8      0.354      1.015
REMARK  Name = 
REMARK  3 active torsions:
REMARK  status: ('A' for Active; 'I' for Inactive)
REMARK    1  A    between atoms: C_1  and  C_2
REMARK    2  A    between atoms: C_12  and  N_13
REMARK    3  A    between atoms: C_14  and  C_16
REMARK                            x       y       z     vdW  Elec       q    Type
REMARK                         _______ _______ _______ _____ _____    ______ ____
ROOT
ATOM      1  C   UNL     1       6.818   4.314  14.462  0.00  0.00    +0.000 C 
ATOM      2  C   UNL     1       5.894   4.893  15.494  0.00  0.00    +0.000 A 
ATOM      3  C   UNL     1       5.347   6.188  15.387  0.00  0.00    +0.000 A 
ATOM      4  C   UNL     1       4.473   6.707  16.369  0.00  0.00    +0.000 A 
ATOM      5  C   UNL     1       4.150   5.918  17.466  0.00  0.00    +0.000 A 
ATOM      6  C   UNL     1       4.709   4.634  17.551  0.00  0.00    +0.000 A 
ATOM      7  C   UNL     1       5.565   4.111  16.598  0.00  0.00    +0.000 A 
ATOM      8  S   UNL     1       4.187   3.780  18.999  0.00  0.00    +0.000 S 
ATOM      9  C   UNL     1       3.217   5.154  19.464  0.00  0.00    +0.000 A 
ATOM     10  N   UNL     1       2.525   5.116  20.541  0.00  0.00    +0.000 NA
ATOM     11  C   UNL     1       1.798   6.232  20.818  0.00  0.00    +0.000 A 
ATOM     12  C   UNL     1       1.739   7.359  20.087  0.00  0.00    +0.000 A 
ATOM     13  C   UNL     1       2.577   7.374  18.810  0.00  0.00    +0.000 A 
ATOM     14  O   UNL     1       2.559   8.377  18.098  0.00  0.00    +0.000 OA
ATOM     15  N   UNL     1       3.294   6.207  18.571  0.00  0.00    +0.000 N 
ENDROOT
BRANCH  12  16
ATOM     16  N   UNL     1       0.982   8.485  20.423  0.00  0.00    +0.000 N 
ATOM     17  C   UNL     1       1.119   9.222  21.598  0.00  0.00    +0.000 C 
ATOM     18  O   UNL     1       1.915   8.968  22.498  0.00  0.00    +0.000 OA
ATOM     19  H   UNL     1       0.323   8.784  19.710  0.00  0.00    +0.000 HD
BRANCH  17  20
ATOM     20  C   UNL     1       0.276  10.428  21.809  0.00  0.00    +0.000 A 
ATOM     21  C   UNL     1       0.312  11.555  20.983  0.00  0.00    +0.000 A 
ATOM     22  C   UNL     1      -0.580  12.610  21.218  0.00  0.00    +0.000 A 
ATOM     23  C   UNL     1      -1.498  12.536  22.264  0.00  0.00    +0.000 A 
ATOM     24  F   UNL     1      -2.348  13.549  22.472  0.00  0.00    +0.000 F 
ATOM     25  C   UNL     1      -1.555  11.420  23.084  0.00  0.00    +0.000 A 
ATOM     26  C   UNL     1      -0.672  10.367  22.854  0.00  0.00    +0.000 A 
ENDBRANCH  17  20
ENDBRANCH  12  16
TORSDOF 2
ENDMDL
MODEL 3
REMARK VINA RESULT:      -7.6      3.885      8.728
REMARK  Name = 
REMARK  3 active torsions:
REMARK  status: ('A' for Active; 'I' for Inactive)
REMARK    1  A    between atoms: C_1  and  C_2
REMARK    2  A    between atoms: C_12  and  N_13
REMARK    3  A    between atoms: C_14  and  C_16
REMARK                            x       y       z     vdW  Elec       q    Type
REMARK                         _______ _______ _______ _____ _____    ______ ____
ROOT
ATOM      1  C   UNL     1      -1.861  14.207  20.611  0.00  0.00    +0.000 C 
ATOM      2  C   UNL     1      -1.088  12.964  20.273  0.00  0.00    +0.000 A 
ATOM      3  C   UNL     1      -0.434  12.785  19.037  0.00  0.00    +0.000 A 
ATOM      4  C   UNL     1       0.293  11.608  18.746  0.00  0.00    +0.000 A 
ATOM      5  C   UNL     1       0.359  10.605  19.706  0.00  0.00    +0.000 A 
ATOM      6  C   UNL     1      -0.302  10.805  20.926  0.00  0.00    +0.000 A 
ATOM      7  C   UNL     1      -1.017  11.952  21.227  0.00  0.00    +0.000 A 
ATOM      8  S   UNL     1      -0.107   9.437  22.016  0.00  0.00    +0.000 S 
ATOM      9  C   UNL     1       0.869   8.621  20.822  0.00  0.00    +0.000 A 
ATOM     10  N   UNL     1       1.359   7.464  21.075  0.00  0.00    +0.000 NA
ATOM     11  C   UNL     1       2.109   6.909  20.086  0.00  0.00    +0.000 A 
ATOM     12  C   UNL     1       2.380   7.443  18.882  0.00  0.00    +0.000 A 
ATOM     13  C   UNL     1       1.781   8.822  18.610  0.00  0.00    +0.000 A 
ATOM     14  O   UNL     1       1.998   9.362  17.527  0.00  0.00    +0.000 OA
ATOM     15  N   UNL     1       1.029   9.346  19.656  0.00  0.00    +0.000 N 
ENDROOT
BRANCH  12  16
ATOM     16  N   UNL     1       3.151   6.824  17.894  0.00  0.00    +0.000 N 
ATOM     17  C   UNL     1       4.201   5.940  18.133  0.00  0.00    +0.000 C 
ATOM     18  O   UNL     1       4.596   5.602  19.246  0.00  0.00    +0.000 OA
ATOM     19  H   UNL     1       2.863   7.025  16.940  0.00  0.00    +0.000 HD
BRANCH  17  20
ATOM     20  C   UNL     1       4.912   5.318  16.984  0.00  0.00    +0.000 A 
ATOM     21  C   UNL     1       5.176   3.949  16.885  0.00  0.00    +0.000 A 
ATOM     22  C   UNL     1       5.782   3.447  15.726  0.00  0.00    +0.000 A 
ATOM     23  C   UNL     1       6.114   4.304  14.677  0.00  0.00    +0.000 A 
ATOM     24  F   UNL     1       6.686   3.809  13.573  0.00  0.00    +0.000 F 
ATOM     25  C   UNL     1       5.846   5.662  14.756  0.00  0.00    +0.000 A 
ATOM     26  C   UNL     1       5.244   6.167  15.906  0.00  0.00    +0.000 A 
ENDBRANCH  17  20
ENDBRANCH  12  16
TORSDOF 2
ENDMDL
MODEL 4
REMARK VINA RESULT:      -7.4      1.276      1.640
REMARK  Name = 
REMARK  3 active torsions:
REMARK  status: ('A' for Active; 'I' for Inactive)
REMARK    1  A    between atoms: C_1  and  C_2
REMARK    2  A    between atoms: C_12  and  N_13
REMARK    3  A    between atoms: C_14  and  C_16
REMARK                            x       y       z     vdW  Elec       q    Type
REMARK                         _______ _______ _______ _____ _____    ______ ____
ROOT
ATOM      1  C   UNL     1       6.661   4.116  13.774  0.00  0.00    +0.000 C 
ATOM      2  C   UNL     1       5.837   4.566  14.946  0.00  0.00    +0.000 A 
ATOM      3  C   UNL     1       5.608   5.926  15.240  0.00  0.00    +0.000 A 
ATOM      4  C   UNL     1       4.822   6.323  16.346  0.00  0.00    +0.000 A 
ATOM      5  C   UNL     1       4.266   5.345  17.161  0.00  0.00    +0.000 A 
ATOM      6  C   UNL     1       4.511   4.000  16.850  0.00  0.00    +0.000 A 
ATOM      7  C   UNL     1       5.276   3.594  15.771  0.00  0.00    +0.000 A 
ATOM      8  S   UNL     1       3.727   2.905  17.984  0.00  0.00    +0.000 S 
ATOM      9  C   UNL     1       3.073   4.270  18.854  0.00  0.00    +0.000 A 
ATOM     10  N   UNL     1       2.331   4.080  19.881  0.00  0.00    +0.000 NA
ATOM     11  C   UNL     1       1.865   5.203  20.490  0.00  0.00    +0.000 A 
ATOM     12  C   UNL     1       2.106   6.476  20.130  0.00  0.00    +0.000 A 
ATOM     13  C   UNL     1       2.995   6.669  18.903  0.00  0.00    +0.000 A 
ATOM     14  O   UNL     1       3.248   7.812  18.524  0.00  0.00    +0.000 OA
ATOM     15  N   UNL     1       3.439   5.489  18.315  0.00  0.00    +0.000 N 
ENDROOT
BRANCH  12  16
ATOM     16  N   UNL     1       1.609   7.599  20.799  0.00  0.00    +0.000 N 
ATOM     17  C   UNL     1       0.920   8.650  20.197  0.00  0.00    +0.000 C 
ATOM     18  O   UNL     1       0.674   8.734  18.997  0.00  0.00    +0.000 OA
ATOM     19  H   UNL     1       1.740   7.588  21.806  0.00  0.00    +0.000 HD
BRANCH  17  20
ATOM     20  C   UNL     1       0.407   9.765  21.036  0.00  0.00    +0.000 A 
ATOM     21  C   UNL     1       0.427  11.106  20.642  0.00  0.00    +0.000 A 
ATOM     22  C   UNL     1      -0.154  12.076  21.469  0.00  0.00    +0.000 A 
ATOM     23  C   UNL     1      -0.751  11.708  22.674  0.00  0.00    +0.000 A 
ATOM     24  F   UNL     1      -1.307  12.645  23.451  0.00  0.00    +0.000 F 
ATOM     25  C   UNL     1      -0.790  10.381  23.073  0.00  0.00    +0.000 A 
ATOM     26  C   UNL     1      -0.215   9.411  22.254  0.00  0.00    +0.000 A 
ENDBRANCH  17  20
ENDBRANCH  12  16
TORSDOF 2
ENDMDL
MODEL 5
REMARK VINA RESULT:      -7.3      4.724      9.230
REMARK  Name = 
REMARK  3 active torsions:
REMARK  status: ('A' for Active; 'I' for Inactive)
REMARK    1  A    between atoms: C_1  and  C_2
REMARK    2  A    between atoms: C_12  and  N_13
REMARK    3  A    between atoms: C_14  and  C_16
REMARK                            x       y       z     vdW  Elec       q    Type
REMARK                         _______ _______ _______ _____ _____    ______ ____
ROOT
ATOM      1  C   UNL     1      -7.013  12.899  18.248  0.00  0.00    +0.000 C 
ATOM      2  C   UNL     1      -5.622  12.339  18.335  0.00  0.00    +0.000 A 
ATOM      3  C   UNL     1      -5.131  11.371  17.435  0.00  0.00    +0.000 A 
ATOM      4  C   UNL     1      -3.815  10.866  17.534  0.00  0.00    +0.000 A 
ATOM      5  C   UNL     1      -2.989  11.337  18.547  0.00  0.00    +0.000 A 
ATOM      6  C   UNL     1      -3.501  12.298  19.432  0.00  0.00    +0.000 A 
ATOM      7  C   UNL     1      -4.786  12.804  19.348  0.00  0.00    +0.000 A 
ATOM      8  S   UNL     1      -2.317  12.779  20.643  0.00  0.00    +0.000 S 
ATOM      9  C   UNL     1      -1.149  11.692  19.938  0.00  0.00    +0.000 A 
ATOM     10  N   UNL     1       0.028  11.604  20.436  0.00  0.00    +0.000 NA
ATOM     11  C   UNL     1       0.870  10.734  19.817  0.00  0.00    +0.000 A 
ATOM     12  C   UNL     1       0.592   9.962  18.751  0.00  0.00    +0.000 A 
ATOM     13  C   UNL     1      -0.820  10.088  18.182  0.00  0.00    +0.000 A 
ATOM     14  O   UNL     1      -1.130   9.409  17.205  0.00  0.00    +0.000 OA
ATOM     15  N   UNL     1      -1.636  10.996  18.848  0.00  0.00    +0.000 N 
ENDROOT
BRANCH  12  16
ATOM     16  N   UNL     1       1.493   9.073  18.157  0.00  0.00    +0.000 N 
ATOM     17  C   UNL     1       2.071   7.974  18.790  0.00  0.00    +0.000 C 
ATOM     18  O   UNL     1       1.873   7.652  19.959  0.00  0.00    +0.000 OA
ATOM     19  H   UNL     1       1.682   9.250  17.175  0.00  0.00    +0.000 HD
BRANCH  17  20
ATOM     20  C   UNL     1       2.983   7.083  18.026  0.00  0.00    +0.000 A 
ATOM     21  C   UNL     1       4.089   7.540  17.305  0.00  0.00    +0.000 A 
ATOM     22  C   UNL     1       4.936   6.613  16.682  0.00  0.00    +0.000 A 
ATOM     23  C   UNL     1       4.679   5.246  16.783  0.00  0.00    +0.000 A 
ATOM     24  F   UNL     1       5.500   4.373  16.187  0.00  0.00    +0.000 F 
ATOM     25  C   UNL     1       3.593   4.777  17.505  0.00  0.00    +0.000 A 
ATOM     26  C   UNL     1       2.748   5.694  18.127  0.00  0.00    +0.000 A 
ENDBRANCH  17  20
ENDBRANCH  12  16
TORSDOF 2
ENDMDL
MODEL 6
REMARK VINA RESULT:      -7.3      3.842      8.778
REMARK  Name = 
REMARK  3 active torsions:
REMARK  status: ('A' for Active; 'I' for Inactive)
REMARK    1  A    between atoms: C_1  and  C_2
REMARK    2  A    between atoms: C_12  and  N_13
REMARK    3  A    between atoms: C_14  and  C_16
REMARK                            x       y       z     vdW  Elec       q    Type
REMARK                         _______ _______ _______ _____ _____    ______ ____
ROOT
ATOM      1  C   UNL     1      -1.406  14.450  21.481  0.00  0.00    +0.000 C 
ATOM      2  C   UNL     1      -0.746  13.182  21.020  0.00  0.00    +0.000 A 
ATOM      3  C   UNL     1      -0.108  13.067  19.768  0.00  0.00    +0.000 A 
ATOM      4  C   UNL     1       0.512  11.864  19.360  0.00  0.00    +0.000 A 
ATOM      5  C   UNL     1       0.488  10.771  20.218  0.00  0.00    +0.000 A 
ATOM      6  C   UNL     1      -0.156  10.909  21.456  0.00  0.00    +0.000 A 
ATOM      7  C   UNL     1      -0.767  12.080  21.871  0.00  0.00    +0.000 A 
ATOM      8  S   UNL     1      -0.085   9.430  22.408  0.00  0.00    +0.000 S 
ATOM      9  C   UNL     1       0.817   8.650  21.134  0.00  0.00    +0.000 A 
ATOM     10  N   UNL     1       1.201   7.436  21.271  0.00  0.00    +0.000 NA
ATOM     11  C   UNL     1       1.902   6.915  20.228  0.00  0.00    +0.000 A 
ATOM     12  C   UNL     1       2.221   7.537  19.080  0.00  0.00    +0.000 A 
ATOM     13  C   UNL     1       1.748   8.983  18.946  0.00  0.00    +0.000 A 
ATOM     14  O   UNL     1       2.014   9.605  17.918  0.00  0.00    +0.000 OA
ATOM     15  N   UNL     1       1.043   9.468  20.043  0.00  0.00    +0.000 N 
ENDROOT
BRANCH  12  16
ATOM     16  N   UNL     1       2.937   6.951  18.031  0.00  0.00    +0.000 N 
ATOM     17  C   UNL     1       4.011   6.077  18.184  0.00  0.00    +0.000 C 
ATOM     18  O   UNL     1       4.480   5.720  19.262  0.00  0.00    +0.000 OA
ATOM     19  H   UNL     1       2.587   7.168  17.102  0.00  0.00    +0.000 HD
BRANCH  17  20
ATOM     20  C   UNL     1       4.656   5.490  16.979  0.00  0.00    +0.000 A 
ATOM     21  C   UNL     1       5.117   6.248  15.899  0.00  0.00    +0.000 A 
ATOM     22  C   UNL     1       5.783   5.609  14.845  0.00  0.00    +0.000 A 
ATOM     23  C   UNL     1       5.989   4.231  14.874  0.00  0.00    +0.000 A 
ATOM     24  F   UNL     1       6.633   3.636  13.863  0.00  0.00    +0.000 F 
ATOM     25  C   UNL     1       5.550   3.468  15.945  0.00  0.00    +0.000 A 
ATOM     26  C   UNL     1       4.888   4.097  16.997  0.00  0.00    +0.000 A 
ENDBRANCH  17  20
ENDBRANCH  12  16
TORSDOF 2
ENDMDL
MODEL 7
REMARK VINA RESULT:      -7.2      4.104      8.975
REMARK  Name = 
REMARK  3 active torsions:
REMARK  status: ('A' for Active; 'I' for Inactive)
REMARK    1  A    between atoms: C_1  and  C_2
REMARK    2  A    between atoms: C_12  and  N_13
REMARK    3  A    between atoms: C_14  and  C_16
REMARK                            x       y       z     vdW  Elec       q    Type
REMARK                         _______ _______ _______ _____ _____    ______ ____
ROOT
ATOM      1  C   UNL     1      -1.729  14.504  23.503  0.00  0.00    +0.000 C 
ATOM      2  C   UNL     1      -1.097  13.421  22.677  0.00  0.00    +0.000 A 
ATOM      3  C   UNL     1      -1.156  12.058  23.032  0.00  0.00    +0.000 A 
ATOM      4  C   UNL     1      -0.558  11.057  22.233  0.00  0.00    +0.000 A 
ATOM      5  C   UNL     1       0.104  11.432  21.070  0.00  0.00    +0.000 A 
ATOM      6  C   UNL     1       0.152  12.794  20.740  0.00  0.00    +0.000 A 
ATOM      7  C   UNL     1      -0.429  13.786  21.511  0.00  0.00    +0.000 A 
ATOM      8  S   UNL     1       1.025  13.081  19.239  0.00  0.00    +0.000 S 
ATOM      9  C   UNL     1       1.305  11.366  19.070  0.00  0.00    +0.000 A 
ATOM     10  N   UNL     1       1.948  10.918  18.058  0.00  0.00    +0.000 NA
ATOM     11  C   UNL     1       2.112   9.569  18.011  0.00  0.00    +0.000 A 
ATOM     12  C   UNL     1       1.678   8.671  18.912  0.00  0.00    +0.000 A 
ATOM     13  C   UNL     1       0.916   9.237  20.109  0.00  0.00    +0.000 A 
ATOM     14  O   UNL     1       0.491   8.462  20.965  0.00  0.00    +0.000 OA
ATOM     15  N   UNL     1       0.771  10.620  20.104  0.00  0.00    +0.000 N 
ENDROOT
BRANCH  12  16
ATOM     16  N   UNL     1       1.883   7.291  18.821  0.00  0.00    +0.000 N 
ATOM     17  C   UNL     1       2.976   6.681  18.209  0.00  0.00    +0.000 C 
ATOM     18  O   UNL     1       3.895   7.279  17.654  0.00  0.00    +0.000 OA
ATOM     19  H   UNL     1       1.182   6.723  19.290  0.00  0.00    +0.000 HD
BRANCH  17  20
ATOM     20  C   UNL     1       3.092   5.199  18.222  0.00  0.00    +0.000 A 
ATOM     21  C   UNL     1       2.153   4.342  17.641  0.00  0.00    +0.000 A 
ATOM     22  C   UNL     1       2.391   2.961  17.636  0.00  0.00    +0.000 A 
ATOM     23  C   UNL     1       3.557   2.446  18.201  0.00  0.00    +0.000 A 
ATOM     24  F   UNL     1       3.774   1.125  18.183  0.00  0.00    +0.000 F 
ATOM     25  C   UNL     1       4.504   3.284  18.769  0.00  0.00    +0.000 A 
ATOM     26  C   UNL     1       4.273   4.658  18.776  0.00  0.00    +0.000 A 
ENDBRANCH  17  20
ENDBRANCH  12  16
TORSDOF 2
ENDMDL
MODEL 8
REMARK VINA RESULT:      -7.2      4.183      8.895
REMARK  Name = 
REMARK  3 active torsions:
REMARK  status: ('A' for Active; 'I' for Inactive)
REMARK    1  A    between atoms: C_1  and  C_2
REMARK    2  A    between atoms: C_12  and  N_13
REMARK    3  A    between atoms: C_14  and  C_16
REMARK                            x       y       z     vdW  Elec       q    Type
REMARK                         _______ _______ _______ _____ _____    ______ ____
ROOT
ATOM      1  C   UNL     1      -2.181  13.071  23.177  0.00  0.00    +0.000 C 
ATOM      2  C   UNL     1      -1.354  12.048  22.452  0.00  0.00    +0.000 A 
ATOM      3  C   UNL     1      -1.095  10.766  22.978  0.00  0.00    +0.000 A 
ATOM      4  C   UNL     1      -0.319   9.818  22.273  0.00  0.00    +0.000 A 
ATOM      5  C   UNL     1       0.200  10.165  21.031  0.00  0.00    +0.000 A 
ATOM      6  C   UNL     1      -0.069  11.447  20.531  0.00  0.00    +0.000 A 
ATOM      7  C   UNL     1      -0.828  12.386  21.208  0.00  0.00    +0.000 A 
ATOM      8  S   UNL     1       0.661  11.708  18.950  0.00  0.00    +0.000 S 
ATOM      9  C   UNL     1       1.310  10.088  18.980  0.00  0.00    +0.000 A 
ATOM     10  N   UNL     1       1.999   9.655  17.991  0.00  0.00    +0.000 NA
ATOM     11  C   UNL     1       2.458   8.379  18.103  0.00  0.00    +0.000 A 
ATOM     12  C   UNL     1       2.269   7.541  19.136  0.00  0.00    +0.000 A 
ATOM     13  C   UNL     1       1.444   8.087  20.300  0.00  0.00    +0.000 A 
ATOM     14  O   UNL     1       1.234   7.363  21.273  0.00  0.00    +0.000 OA
ATOM     15  N   UNL     1       0.994   9.392  20.132  0.00  0.00    +0.000 N 
ENDROOT
BRANCH  12  16
ATOM     16  N   UNL     1       2.773   6.238  19.205  0.00  0.00    +0.000 N 
ATOM     17  C   UNL     1       2.245   5.138  18.533  0.00  0.00    +0.000 C 
ATOM     18  O   UNL     1       1.258   5.167  17.803  0.00  0.00    +0.000 OA
ATOM     19  H   UNL     1       3.616   6.136  19.763  0.00  0.00    +0.000 HD
BRANCH  17  20
ATOM     20  C   UNL     1       2.908   3.813  18.661  0.00  0.00    +0.000 A 
ATOM     21  C   UNL     1       3.166   2.967  17.580  0.00  0.00    +0.000 A 
ATOM     22  C   UNL     1       3.868   1.773  17.792  0.00  0.00    +0.000 A 
ATOM     23  C   UNL     1       4.310   1.433  19.070  0.00  0.00    +0.000 A 
ATOM     24  F   UNL     1       4.985   0.292  19.256  0.00  0.00    +0.000 F 
ATOM     25  C   UNL     1       4.074   2.269  20.150  0.00  0.00    +0.000 A 
ATOM     26  C   UNL     1       3.377   3.458  19.945  0.00  0.00    +0.000 A 
ENDBRANCH  17  20
ENDBRANCH  12  16
TORSDOF 2
ENDMDL
MODEL 9
REMARK VINA RESULT:      -7.2      2.425      3.654
REMARK  Name = 
REMARK  3 active torsions:
REMARK  status: ('A' for Active; 'I' for Inactive)
REMARK    1  A    between atoms: C_1  and  C_2
REMARK    2  A    between atoms: C_12  and  N_13
REMARK    3  A    between atoms: C_14  and  C_16
REMARK                            x       y       z     vdW  Elec       q    Type
REMARK                         _______ _______ _______ _____ _____    ______ ____
ROOT
ATOM      1  C   UNL     1       4.294   2.663  19.486  0.00  0.00    +0.000 C 
ATOM      2  C   UNL     1       3.579   3.978  19.613  0.00  0.00    +0.000 A 
ATOM      3  C   UNL     1       2.716   4.276  20.687  0.00  0.00    +0.000 A 
ATOM      4  C   UNL     1       2.059   5.524  20.787  0.00  0.00    +0.000 A 
ATOM      5  C   UNL     1       2.273   6.476  19.797  0.00  0.00    +0.000 A 
ATOM      6  C   UNL     1       3.133   6.155  18.737  0.00  0.00    +0.000 A 
ATOM      7  C   UNL     1       3.784   4.939  18.626  0.00  0.00    +0.000 A 
ATOM      8  S   UNL     1       3.286   7.477  17.585  0.00  0.00    +0.000 S 
ATOM      9  C   UNL     1       2.200   8.446  18.549  0.00  0.00    +0.000 A 
ATOM     10  N   UNL     1       1.907   9.638  18.182  0.00  0.00    +0.000 NA
ATOM     11  C   UNL     1       1.057  10.316  18.998  0.00  0.00    +0.000 A 
ATOM     12  C   UNL     1       0.497   9.866  20.134  0.00  0.00    +0.000 A 
ATOM     13  C   UNL     1       0.865   8.441  20.544  0.00  0.00    +0.000 A 
ATOM     14  O   UNL     1       0.386   7.976  21.577  0.00  0.00    +0.000 OA
ATOM     15  N   UNL     1       1.742   7.796  19.679  0.00  0.00    +0.000 N 
ENDROOT
BRANCH  12  16
ATOM     16  N   UNL     1      -0.381  10.603  20.934  0.00  0.00    +0.000 N 
ATOM     17  C   UNL     1      -0.060  11.787  21.596  0.00  0.00    +0.000 C 
ATOM     18  O   UNL     1       1.043  12.328  21.575  0.00  0.00    +0.000 OA
ATOM     19  H   UNL     1      -1.329  10.240  20.974  0.00  0.00    +0.000 HD
BRANCH  17  20
ATOM     20  C   UNL     1      -1.106  12.495  22.381  0.00  0.00    +0.000 A 
ATOM     21  C   UNL     1      -2.318  11.912  22.762  0.00  0.00    +0.000 A 
ATOM     22  C   UNL     1      -3.206  12.635  23.569  0.00  0.00    +0.000 A 
ATOM     23  C   UNL     1      -2.882  13.923  23.994  0.00  0.00    +0.000 A 
ATOM     24  F   UNL     1      -3.738  14.598  24.771  0.00  0.00    +0.000 F 
ATOM     25  C   UNL     1      -1.679  14.509  23.636  0.00  0.00    +0.000 A 
ATOM     26  C   UNL     1      -0.791  13.795  22.834  0.00  0.00    +0.000 A 
ENDBRANCH  17  20
ENDBRANCH  12  16
TORSDOF 2
ENDMDL
