MODEL 1
REMARK VINA RESULT:      -7.1      0.000      0.000
REMARK  Name = 
REMARK  8 active torsions:
REMARK  status: ('A' for Active; 'I' for Inactive)
REMARK    1  A    between atoms: C_1  and  S_2
REMARK    2  A    between atoms: S_2  and  C_3
REMARK    3  A    between atoms: C_7  and  C_8
REMARK    4  A    between atoms: C_8  and  N_9
REMARK    5  A    between atoms: C_12  and  C_13
REMARK    6  A    between atoms: C_13  and  C_14
REMARK    7  A    between atoms: C_14  and  C_15
REMARK    8  A    between atoms: N_17  and  C_18
REMARK                            x       y       z     vdW  Elec       q    Type
REMARK                         _______ _______ _______ _____ _____    ______ ____
ROOT
ATOM      1  N   UNL     1       1.691   5.641  19.684  0.00  0.00    +0.000 NA
ATOM      2  C   UNL     1       2.034   4.999  18.403  0.00  0.00    +0.000 C 
ATOM      3  C   UNL     1       1.272   3.685  18.188  0.00  0.00    +0.000 C 
ATOM      4  C   UNL     1       1.468   2.690  19.345  0.00  0.00    +0.000 C 
ATOM      5  C   UNL     1       1.088   3.411  20.642  0.00  0.00    +0.000 C 
ATOM      6  C   UNL     1       1.859   4.721  20.823  0.00  0.00    +0.000 C 
ENDROOT
BRANCH   1   7
ATOM      7  C   UNL     1       2.522   6.842  19.910  0.00  0.00    +0.000 C 
BRANCH   7  12
ATOM      8  C   UNL     1       0.390   9.953  20.535  0.00  0.00    +0.000 A 
ATOM      9  C   UNL     1       0.330  10.507  19.254  0.00  0.00    +0.000 A 
ATOM     10  C   UNL     1       0.995   9.894  18.192  0.00  0.00    +0.000 A 
ATOM     11  C   UNL     1       1.724   8.722  18.407  0.00  0.00    +0.000 A 
ATOM     12  C   UNL     1       1.813   8.162  19.688  0.00  0.00    +0.000 A 
ATOM     13  C   UNL     1       1.150   8.798  20.752  0.00  0.00    +0.000 A 
BRANCH   8  15
ATOM     14  C   UNL     1      -0.043   9.514  23.204  0.00  0.00    +0.000 C 
ATOM     15  S   UNL     1      -0.509  10.680  21.894  0.00  0.00    +0.000 S 
ENDBRANCH   8  15
ENDBRANCH   7  12
ENDBRANCH   1   7
BRANCH   4  16
ATOM     16  C   UNL     1       2.898   2.108  19.346  0.00  0.00    +0.000 C 
BRANCH  16  17
ATOM     17  C   UNL     1       3.614   2.195  17.994  0.00  0.00    +0.000 C 
BRANCH  17  18
ATOM     18  C   UNL     1       4.796   3.147  18.048  0.00  0.00    +0.000 C 
ATOM     19  O   UNL     1       5.255   3.593  19.095  0.00  0.00    +0.000 OA
ATOM     20  N   UNL     1       5.308   3.449  16.799  0.00  0.00    +0.000 N 
ATOM     21  H   UNL     1       4.883   3.046  15.975  0.00  0.00    +0.000 HD
BRANCH  20  22
ATOM     22  C   UNL     1       6.430   4.322  16.644  0.00  0.00    +0.000 C 
ATOM     23  C   UNL     1       6.950   4.711  15.288  0.00  0.00    +0.000 C 
ATOM     24  C   UNL     1       6.229   5.721  16.133  0.00  0.00    +0.000 C 
ENDBRANCH  20  22
ENDBRANCH  17  18
ENDBRANCH  16  17
ENDBRANCH   4  16
TORSDOF 7
ENDMDL
MODEL 2
REMARK VINA RESULT:      -7.0      2.676      4.076
REMARK  Name = 
REMARK  8 active torsions:
REMARK  status: ('A' for Active; 'I' for Inactive)
REMARK    1  A    between atoms: C_1  and  S_2
REMARK    2  A    between atoms: S_2  and  C_3
REMARK    3  A    between atoms: C_7  and  C_8
REMARK    4  A    between atoms: C_8  and  N_9
REMARK    5  A    between atoms: C_12  and  C_13
REMARK    6  A    between atoms: C_13  and  C_14
REMARK    7  A    between atoms: C_14  and  C_15
REMARK    8  A    between atoms: N_17  and  C_18
REMARK                            x       y       z     vdW  Elec       q    Type
REMARK                         _______ _______ _______ _____ _____    ______ ____
ROOT
ATOM      1  N   UNL     1       4.749   6.513  18.557  0.00  0.00    +0.000 NA
ATOM      2  C   UNL     1       5.320   5.310  19.187  0.00  0.00    +0.000 C 
ATOM      3  C   UNL     1       6.846   5.392  19.321  0.00  0.00    +0.000 C 
ATOM      4  C   UNL     1       7.545   5.665  17.979  0.00  0.00    +0.000 C 
ATOM      5  C   UNL     1       6.916   6.928  17.381  0.00  0.00    +0.000 C 
ATOM      6  C   UNL     1       5.394   6.817  17.267  0.00  0.00    +0.000 C 
ENDROOT
BRANCH   1   7
ATOM      7  C   UNL     1       3.295   6.354  18.342  0.00  0.00    +0.000 C 
BRANCH   7  12
ATOM      8  C   UNL     1       1.182   8.847  20.326  0.00  0.00    +0.000 A 
ATOM      9  C   UNL     1       0.756   9.712  19.316  0.00  0.00    +0.000 A 
ATOM     10  C   UNL     1       1.167   9.509  17.998  0.00  0.00    +0.000 A 
ATOM     11  C   UNL     1       2.007   8.438  17.685  0.00  0.00    +0.000 A 
ATOM     12  C   UNL     1       2.461   7.571  18.687  0.00  0.00    +0.000 A 
ATOM     13  C   UNL     1       2.052   7.796  20.013  0.00  0.00    +0.000 A 
BRANCH   8  15
ATOM     14  C   UNL     1      -0.318  10.589  21.815  0.00  0.00    +0.000 C 
ATOM     15  S   UNL     1       0.615   9.046  22.006  0.00  0.00    +0.000 S 
ENDBRANCH   8  15
ENDBRANCH   7  12
ENDBRANCH   1   7
BRANCH   4  16
ATOM     16  C   UNL     1       7.480   4.432  17.052  0.00  0.00    +0.000 C 
BRANCH  16  17
ATOM     17  C   UNL     1       6.267   4.413  16.115  0.00  0.00    +0.000 C 
BRANCH  17  18
ATOM     18  C   UNL     1       6.686   4.484  14.657  0.00  0.00    +0.000 C 
ATOM     19  O   UNL     1       7.615   5.178  14.255  0.00  0.00    +0.000 OA
ATOM     20  N   UNL     1       5.922   3.678  13.832  0.00  0.00    +0.000 N 
ATOM     21  H   UNL     1       5.170   3.129  14.227  0.00  0.00    +0.000 HD
BRANCH  20  22
ATOM     22  C   UNL     1       6.170   3.601  12.426  0.00  0.00    +0.000 C 
ATOM     23  C   UNL     1       6.566   2.313  11.761  0.00  0.00    +0.000 C 
ATOM     24  C   UNL     1       5.198   2.887  11.530  0.00  0.00    +0.000 C 
ENDBRANCH  20  22
ENDBRANCH  17  18
ENDBRANCH  16  17
ENDBRANCH   4  16
TORSDOF 7
ENDMDL
MODEL 3
REMARK VINA RESULT:      -7.0      2.197      3.187
REMARK  Name = 
REMARK  8 active torsions:
REMARK  status: ('A' for Active; 'I' for Inactive)
REMARK    1  A    between atoms: C_1  and  S_2
REMARK    2  A    between atoms: S_2  and  C_3
REMARK    3  A    between atoms: C_7  and  C_8
REMARK    4  A    between atoms: C_8  and  N_9
REMARK    5  A    between atoms: C_12  and  C_13
REMARK    6  A    between atoms: C_13  and  C_14
REMARK    7  A    between atoms: C_14  and  C_15
REMARK    8  A    between atoms: N_17  and  C_18
REMARK                            x       y       z     vdW  Elec       q    Type
REMARK                         _______ _______ _______ _____ _____    ______ ____
ROOT
ATOM      1  N   UNL     1       2.604   4.538  19.632  0.00  0.00    +0.000 NA
ATOM      2  C   UNL     1       2.053   4.569  18.266  0.00  0.00    +0.000 C 
ATOM      3  C   UNL     1       2.565   3.407  17.406  0.00  0.00    +0.000 C 
ATOM      4  C   UNL     1       4.101   3.341  17.353  0.00  0.00    +0.000 C 
ATOM      5  C   UNL     1       4.610   3.301  18.797  0.00  0.00    +0.000 C 
ATOM      6  C   UNL     1       4.076   4.468  19.631  0.00  0.00    +0.000 C 
ENDROOT
BRANCH   1   7
ATOM      7  C   UNL     1       2.180   5.730  20.397  0.00  0.00    +0.000 C 
BRANCH   7  12
ATOM      8  C   UNL     1       1.330   9.293  19.304  0.00  0.00    +0.000 A 
ATOM      9  C   UNL     1       1.989   9.368  18.075  0.00  0.00    +0.000 A 
ATOM     10  C   UNL     1       2.728   8.281  17.607  0.00  0.00    +0.000 A 
ATOM     11  C   UNL     1       2.810   7.112  18.367  0.00  0.00    +0.000 A 
ATOM     12  C   UNL     1       2.172   7.025  19.611  0.00  0.00    +0.000 A 
ATOM     13  C   UNL     1       1.445   8.133  20.078  0.00  0.00    +0.000 A 
BRANCH   8  15
ATOM     14  C   UNL     1      -0.783  10.822  18.464  0.00  0.00    +0.000 C 
ATOM     15  S   UNL     1       0.323  10.644  19.891  0.00  0.00    +0.000 S 
ENDBRANCH   8  15
ENDBRANCH   7  12
ENDBRANCH   1   7
BRANCH   4  16
ATOM     16  C   UNL     1       4.683   4.498  16.513  0.00  0.00    +0.000 C 
BRANCH  16  17
ATOM     17  C   UNL     1       6.207   4.456  16.357  0.00  0.00    +0.000 C 
BRANCH  17  18
ATOM     18  C   UNL     1       6.621   4.511  14.896  0.00  0.00    +0.000 C 
ATOM     19  O   UNL     1       7.631   5.088  14.502  0.00  0.00    +0.000 OA
ATOM     20  N   UNL     1       5.752   3.834  14.059  0.00  0.00    +0.000 N 
ATOM     21  H   UNL     1       4.938   3.378  14.448  0.00  0.00    +0.000 HD
BRANCH  20  22
ATOM     22  C   UNL     1       5.977   3.764  12.649  0.00  0.00    +0.000 C 
ATOM     23  C   UNL     1       6.069   2.450  11.926  0.00  0.00    +0.000 C 
ATOM     24  C   UNL     1       4.869   3.331  11.732  0.00  0.00    +0.000 C 
ENDBRANCH  20  22
ENDBRANCH  17  18
ENDBRANCH  16  17
ENDBRANCH   4  16
TORSDOF 7
ENDMDL
MODEL 4
REMARK VINA RESULT:      -6.9      1.110      1.376
REMARK  Name = 
REMARK  8 active torsions:
REMARK  status: ('A' for Active; 'I' for Inactive)
REMARK    1  A    between atoms: C_1  and  S_2
REMARK    2  A    between atoms: S_2  and  C_3
REMARK    3  A    between atoms: C_7  and  C_8
REMARK    4  A    between atoms: C_8  and  N_9
REMARK    5  A    between atoms: C_12  and  C_13
REMARK    6  A    between atoms: C_13  and  C_14
REMARK    7  A    between atoms: C_14  and  C_15
REMARK    8  A    between atoms: N_17  and  C_18
REMARK                            x       y       z     vdW  Elec       q    Type
REMARK                         _______ _______ _______ _____ _____    ______ ____
ROOT
ATOM      1  N   UNL     1       1.807   5.118  20.011  0.00  0.00    +0.000 NA
ATOM      2  C   UNL     1       1.854   4.784  18.577  0.00  0.00    +0.000 C 
ATOM      3  C   UNL     1       1.097   3.489  18.256  0.00  0.00    +0.000 C 
ATOM      4  C   UNL     1       1.586   2.294  19.091  0.00  0.00    +0.000 C 
ATOM      5  C   UNL     1       1.503   2.699  20.566  0.00  0.00    +0.000 C 
ATOM      6  C   UNL     1       2.262   3.997  20.853  0.00  0.00    +0.000 C 
ENDROOT
BRANCH   1   7
ATOM      7  C   UNL     1       2.637   6.306  20.303  0.00  0.00    +0.000 C 
BRANCH   7  12
ATOM      8  C   UNL     1       0.787   9.583  19.632  0.00  0.00    +0.000 A 
ATOM      9  C   UNL     1       1.181   9.858  18.321  0.00  0.00    +0.000 A 
ATOM     10  C   UNL     1       2.061   9.002  17.658  0.00  0.00    +0.000 A 
ATOM     11  C   UNL     1       2.552   7.866  18.305  0.00  0.00    +0.000 A 
ATOM     12  C   UNL     1       2.184   7.584  19.627  0.00  0.00    +0.000 A 
ATOM     13  C   UNL     1       1.309   8.463  20.288  0.00  0.00    +0.000 A 
BRANCH   8  15
ATOM     14  C   UNL     1      -1.516  10.966  19.094  0.00  0.00    +0.000 C 
ATOM     15  S   UNL     1      -0.391  10.625  20.476  0.00  0.00    +0.000 S 
ENDBRANCH   8  15
ENDBRANCH   7  12
ENDBRANCH   1   7
BRANCH   4  16
ATOM     16  C   UNL     1       2.990   1.834  18.644  0.00  0.00    +0.000 C 
BRANCH  16  17
ATOM     17  C   UNL     1       4.124   2.287  19.569  0.00  0.00    +0.000 C 
BRANCH  17  18
ATOM     18  C   UNL     1       4.993   3.345  18.912  0.00  0.00    +0.000 C 
ATOM     19  O   UNL     1       5.704   4.121  19.544  0.00  0.00    +0.000 OA
ATOM     20  N   UNL     1       4.911   3.336  17.531  0.00  0.00    +0.000 N 
ATOM     21  H   UNL     1       4.306   2.668  17.072  0.00  0.00    +0.000 HD
BRANCH  20  22
ATOM     22  C   UNL     1       5.665   4.252  16.733  0.00  0.00    +0.000 C 
ATOM     23  C   UNL     1       5.414   4.410  15.259  0.00  0.00    +0.000 C 
ATOM     24  C   UNL     1       5.016   5.502  16.210  0.00  0.00    +0.000 C 
ENDBRANCH  20  22
ENDBRANCH  17  18
ENDBRANCH  16  17
ENDBRANCH   4  16
TORSDOF 7
ENDMDL
MODEL 5
REMARK VINA RESULT:      -6.9      1.469      1.644
REMARK  Name = 
REMARK  8 active torsions:
REMARK  status: ('A' for Active; 'I' for Inactive)
REMARK    1  A    between atoms: C_1  and  S_2
REMARK    2  A    between atoms: S_2  and  C_3
REMARK    3  A    between atoms: C_7  and  C_8
REMARK    4  A    between atoms: C_8  and  N_9
REMARK    5  A    between atoms: C_12  and  C_13
REMARK    6  A    between atoms: C_13  and  C_14
REMARK    7  A    between atoms: C_14  and  C_15
REMARK    8  A    between atoms: N_17  and  C_18
REMARK                            x       y       z     vdW  Elec       q    Type
REMARK                         _______ _______ _______ _____ _____    ______ ____
ROOT
ATOM      1  N   UNL     1       2.137   5.922  19.137  0.00  0.00    +0.000 NA
ATOM      2  C   UNL     1       1.997   5.119  17.910  0.00  0.00    +0.000 C 
ATOM      3  C   UNL     1       1.610   3.665  18.207  0.00  0.00    +0.000 C 
ATOM      4  C   UNL     1       2.586   2.978  19.176  0.00  0.00    +0.000 C 
ATOM      5  C   UNL     1       2.680   3.853  20.431  0.00  0.00    +0.000 C 
ATOM      6  C   UNL     1       3.061   5.298  20.101  0.00  0.00    +0.000 C 
ENDROOT
BRANCH   1   7
ATOM      7  C   UNL     1       2.618   7.284  18.822  0.00  0.00    +0.000 C 
BRANCH   7  12
ATOM      8  C   UNL     1       0.410   9.427  21.091  0.00  0.00    +0.000 A 
ATOM      9  C   UNL     1      -0.090  10.364  20.184  0.00  0.00    +0.000 A 
ATOM     10  C   UNL     1       0.301  10.323  18.846  0.00  0.00    +0.000 A 
ATOM     11  C   UNL     1       1.195   9.342  18.408  0.00  0.00    +0.000 A 
ATOM     12  C   UNL     1       1.722   8.406  19.307  0.00  0.00    +0.000 A 
ATOM     13  C   UNL     1       1.332   8.469  20.656  0.00  0.00    +0.000 A 
BRANCH   8  15
ATOM     14  C   UNL     1      -1.013  11.001  22.825  0.00  0.00    +0.000 C 
ATOM     15  S   UNL     1      -0.128   9.417  22.793  0.00  0.00    +0.000 S 
ENDBRANCH   8  15
ENDBRANCH   7  12
ENDBRANCH   1   7
BRANCH   4  16
ATOM     16  C   UNL     1       3.946   2.701  18.500  0.00  0.00    +0.000 C 
BRANCH  16  17
ATOM     17  C   UNL     1       4.026   3.157  17.039  0.00  0.00    +0.000 C 
BRANCH  17  18
ATOM     18  C   UNL     1       5.344   3.850  16.741  0.00  0.00    +0.000 C 
ATOM     19  O   UNL     1       5.758   4.050  15.602  0.00  0.00    +0.000 OA
ATOM     20  N   UNL     1       6.022   4.243  17.881  0.00  0.00    +0.000 N 
ATOM     21  H   UNL     1       5.624   4.048  18.790  0.00  0.00    +0.000 HD
BRANCH  20  22
ATOM     22  C   UNL     1       7.279   4.921  17.805  0.00  0.00    +0.000 C 
ATOM     23  C   UNL     1       7.366   6.420  17.739  0.00  0.00    +0.000 C 
ATOM     24  C   UNL     1       7.785   5.698  18.987  0.00  0.00    +0.000 C 
ENDBRANCH  20  22
ENDBRANCH  17  18
ENDBRANCH  16  17
ENDBRANCH   4  16
TORSDOF 7
ENDMDL
MODEL 6
REMARK VINA RESULT:      -6.9      1.121      1.259
REMARK  Name = 
REMARK  8 active torsions:
REMARK  status: ('A' for Active; 'I' for Inactive)
REMARK    1  A    between atoms: C_1  and  S_2
REMARK    2  A    between atoms: S_2  and  C_3
REMARK    3  A    between atoms: C_7  and  C_8
REMARK    4  A    between atoms: C_8  and  N_9
REMARK    5  A    between atoms: C_12  and  C_13
REMARK    6  A    between atoms: C_13  and  C_14
REMARK    7  A    between atoms: C_14  and  C_15
REMARK    8  A    between atoms: N_17  and  C_18
REMARK                            x       y       z     vdW  Elec       q    Type
REMARK                         _______ _______ _______ _____ _____    ______ ____
ROOT
ATOM      1  N   UNL     1       1.898   5.308  19.780  0.00  0.00    +0.000 NA
ATOM      2  C   UNL     1       1.752   4.745  18.426  0.00  0.00    +0.000 C 
ATOM      3  C   UNL     1       0.936   3.446  18.421  0.00  0.00    +0.000 C 
ATOM      4  C   UNL     1       1.508   2.383  19.374  0.00  0.00    +0.000 C 
ATOM      5  C   UNL     1       1.626   3.024  20.761  0.00  0.00    +0.000 C 
ATOM      6  C   UNL     1       2.439   4.321  20.731  0.00  0.00    +0.000 C 
ENDROOT
BRANCH   1   7
ATOM      7  C   UNL     1       2.781   6.494  19.764  0.00  0.00    +0.000 C 
BRANCH   7  12
ATOM      8  C   UNL     1       0.628   9.625  20.187  0.00  0.00    +0.000 A 
ATOM      9  C   UNL     1       0.627  10.135  18.887  0.00  0.00    +0.000 A 
ATOM     10  C   UNL     1       1.337   9.486  17.877  0.00  0.00    +0.000 A 
ATOM     11  C   UNL     1       2.054   8.322  18.164  0.00  0.00    +0.000 A 
ATOM     12  C   UNL     1       2.084   7.805  19.466  0.00  0.00    +0.000 A 
ATOM     13  C   UNL     1       1.377   8.478  20.477  0.00  0.00    +0.000 A 
BRANCH   8  15
ATOM     14  C   UNL     1       0.241   9.409  22.890  0.00  0.00    +0.000 C 
ATOM     15  S   UNL     1      -0.328  10.398  21.480  0.00  0.00    +0.000 S 
ENDBRANCH   8  15
ENDBRANCH   7  12
ENDBRANCH   1   7
BRANCH   4  16
ATOM     16  C   UNL     1       2.833   1.802  18.836  0.00  0.00    +0.000 C 
BRANCH  16  17
ATOM     17  C   UNL     1       4.090   2.460  19.417  0.00  0.00    +0.000 C 
BRANCH  17  18
ATOM     18  C   UNL     1       4.845   3.251  18.363  0.00  0.00    +0.000 C 
ATOM     19  O   UNL     1       4.527   3.269  17.177  0.00  0.00    +0.000 OA
ATOM     20  N   UNL     1       5.917   3.958  18.877  0.00  0.00    +0.000 N 
ATOM     21  H   UNL     1       6.124   3.901  19.865  0.00  0.00    +0.000 HD
BRANCH  20  22
ATOM     22  C   UNL     1       6.744   4.772  18.042  0.00  0.00    +0.000 C 
ATOM     23  C   UNL     1       6.526   6.253  17.914  0.00  0.00    +0.000 C 
ATOM     24  C   UNL     1       7.721   5.732  18.659  0.00  0.00    +0.000 C 
ENDBRANCH  20  22
ENDBRANCH  17  18
ENDBRANCH  16  17
ENDBRANCH   4  16
TORSDOF 7
ENDMDL
MODEL 7
REMARK VINA RESULT:      -6.8      1.800      2.537
REMARK  Name = 
REMARK  8 active torsions:
REMARK  status: ('A' for Active; 'I' for Inactive)
REMARK    1  A    between atoms: C_1  and  S_2
REMARK    2  A    between atoms: S_2  and  C_3
REMARK    3  A    between atoms: C_7  and  C_8
REMARK    4  A    between atoms: C_8  and  N_9
REMARK    5  A    between atoms: C_12  and  C_13
REMARK    6  A    between atoms: C_13  and  C_14
REMARK    7  A    between atoms: C_14  and  C_15
REMARK    8  A    between atoms: N_17  and  C_18
REMARK                            x       y       z     vdW  Elec       q    Type
REMARK                         _______ _______ _______ _____ _____    ______ ____
ROOT
ATOM      1  N   UNL     1       2.325   4.062  19.931  0.00  0.00    +0.000 NA
ATOM      2  C   UNL     1       1.692   4.279  18.619  0.00  0.00    +0.000 C 
ATOM      3  C   UNL     1       1.991   3.143  17.633  0.00  0.00    +0.000 C 
ATOM      4  C   UNL     1       3.499   2.895  17.455  0.00  0.00    +0.000 C 
ATOM      5  C   UNL     1       4.095   2.667  18.848  0.00  0.00    +0.000 C 
ATOM      6  C   UNL     1       3.773   3.813  19.809  0.00  0.00    +0.000 C 
ENDROOT
BRANCH   1   7
ATOM      7  C   UNL     1       2.110   5.225  20.818  0.00  0.00    +0.000 C 
BRANCH   7  12
ATOM      8  C   UNL     1       1.206   8.843  19.977  0.00  0.00    +0.000 A 
ATOM      9  C   UNL     1       1.822   8.999  18.733  0.00  0.00    +0.000 A 
ATOM     10  C   UNL     1       2.549   7.948  18.173  0.00  0.00    +0.000 A 
ATOM     11  C   UNL     1       2.663   6.735  18.857  0.00  0.00    +0.000 A 
ATOM     12  C   UNL     1       2.069   6.566  20.114  0.00  0.00    +0.000 A 
ATOM     13  C   UNL     1       1.353   7.638  20.674  0.00  0.00    +0.000 A 
BRANCH   8  15
ATOM     14  C   UNL     1       0.276   9.649  22.425  0.00  0.00    +0.000 C 
ATOM     15  S   UNL     1       0.214  10.149  20.682  0.00  0.00    +0.000 S 
ENDBRANCH   8  15
ENDBRANCH   7  12
ENDBRANCH   1   7
BRANCH   4  16
ATOM     16  C   UNL     1       4.166   4.041  16.665  0.00  0.00    +0.000 C 
BRANCH  16  17
ATOM     17  C   UNL     1       5.375   3.607  15.829  0.00  0.00    +0.000 C 
BRANCH  17  18
ATOM     18  C   UNL     1       6.639   4.336  16.252  0.00  0.00    +0.000 C 
ATOM     19  O   UNL     1       7.481   4.742  15.456  0.00  0.00    +0.000 OA
ATOM     20  N   UNL     1       6.736   4.506  17.621  0.00  0.00    +0.000 N 
ATOM     21  H   UNL     1       6.005   4.149  18.221  0.00  0.00    +0.000 HD
BRANCH  20  22
ATOM     22  C   UNL     1       7.850   5.180  18.212  0.00  0.00    +0.000 C 
ATOM     23  C   UNL     1       7.832   6.659  18.476  0.00  0.00    +0.000 C 
ATOM     24  C   UNL     1       7.757   5.691  19.622  0.00  0.00    +0.000 C 
ENDBRANCH  20  22
ENDBRANCH  17  18
ENDBRANCH  16  17
ENDBRANCH   4  16
TORSDOF 7
ENDMDL
MODEL 8
REMARK VINA RESULT:      -6.8      2.015      2.866
REMARK  Name = 
REMARK  8 active torsions:
REMARK  status: ('A' for Active; 'I' for Inactive)
REMARK    1  A    between atoms: C_1  and  S_2
REMARK    2  A    between atoms: S_2  and  C_3
REMARK    3  A    between atoms: C_7  and  C_8
REMARK    4  A    between atoms: C_8  and  N_9
REMARK    5  A    between atoms: C_12  and  C_13
REMARK    6  A    between atoms: C_13  and  C_14
REMARK    7  A    between atoms: C_14  and  C_15
REMARK    8  A    between atoms: N_17  and  C_18
REMARK                            x       y       z     vdW  Elec       q    Type
REMARK                         _______ _______ _______ _____ _____    ______ ____
ROOT
ATOM      1  N   UNL     1       2.641   4.677  19.714  0.00  0.00    +0.000 NA
ATOM      2  C   UNL     1       1.952   4.557  18.417  0.00  0.00    +0.000 C 
ATOM      3  C   UNL     1       2.463   3.367  17.595  0.00  0.00    +0.000 C 
ATOM      4  C   UNL     1       3.985   3.405  17.380  0.00  0.00    +0.000 C 
ATOM      5  C   UNL     1       4.641   3.520  18.760  0.00  0.00    +0.000 C 
ATOM      6  C   UNL     1       4.106   4.711  19.558  0.00  0.00    +0.000 C 
ENDROOT
BRANCH   1   7
ATOM      7  C   UNL     1       2.205   5.895  20.430  0.00  0.00    +0.000 C 
BRANCH   7  12
ATOM      8  C   UNL     1       1.191   9.337  19.111  0.00  0.00    +0.000 A 
ATOM      9  C   UNL     1       1.940   9.412  17.935  0.00  0.00    +0.000 A 
ATOM     10  C   UNL     1       2.791   8.367  17.576  0.00  0.00    +0.000 A 
ATOM     11  C   UNL     1       2.896   7.239  18.394  0.00  0.00    +0.000 A 
ATOM     12  C   UNL     1       2.168   7.153  19.588  0.00  0.00    +0.000 A 
ATOM     13  C   UNL     1       1.326   8.221  19.945  0.00  0.00    +0.000 A 
BRANCH   8  15
ATOM     14  C   UNL     1       0.953  11.354  20.950  0.00  0.00    +0.000 C 
ATOM     15  S   UNL     1       0.045  10.630  19.556  0.00  0.00    +0.000 S 
ENDBRANCH   8  15
ENDBRANCH   7  12
ENDBRANCH   1   7
BRANCH   4  16
ATOM     16  C   UNL     1       4.386   4.527  16.400  0.00  0.00    +0.000 C 
BRANCH  16  17
ATOM     17  C   UNL     1       5.530   4.154  15.450  0.00  0.00    +0.000 C 
BRANCH  17  18
ATOM     18  C   UNL     1       6.708   5.102  15.594  0.00  0.00    +0.000 C 
ATOM     19  O   UNL     1       7.576   5.234  14.736  0.00  0.00    +0.000 OA
ATOM     20  N   UNL     1       6.695   5.809  16.783  0.00  0.00    +0.000 N 
ATOM     21  H   UNL     1       5.948   5.654  17.447  0.00  0.00    +0.000 HD
BRANCH  20  22
ATOM     22  C   UNL     1       7.716   6.760  17.097  0.00  0.00    +0.000 C 
ATOM     23  C   UNL     1       7.389   8.126  17.629  0.00  0.00    +0.000 C 
ATOM     24  C   UNL     1       8.010   7.099  18.531  0.00  0.00    +0.000 C 
ENDBRANCH  20  22
ENDBRANCH  17  18
ENDBRANCH  16  17
ENDBRANCH   4  16
TORSDOF 7
ENDMDL
MODEL 9
REMARK VINA RESULT:      -6.8      2.539      4.054
REMARK  Name = 
REMARK  8 active torsions:
REMARK  status: ('A' for Active; 'I' for Inactive)
REMARK    1  A    between atoms: C_1  and  S_2
REMARK    2  A    between atoms: S_2  and  C_3
REMARK    3  A    between atoms: C_7  and  C_8
REMARK    4  A    between atoms: C_8  and  N_9
REMARK    5  A    between atoms: C_12  and  C_13
REMARK    6  A    between atoms: C_13  and  C_14
REMARK    7  A    between atoms: C_14  and  C_15
REMARK    8  A    between atoms: N_17  and  C_18
REMARK                            x       y       z     vdW  Elec       q    Type
REMARK                         _______ _______ _______ _____ _____    ______ ____
ROOT
ATOM      1  N   UNL     1       4.753   6.511  18.610  0.00  0.00    +0.000 NA
ATOM      2  C   UNL     1       5.379   5.304  19.177  0.00  0.00    +0.000 C 
ATOM      3  C   UNL     1       6.910   5.404  19.211  0.00  0.00    +0.000 C 
ATOM      4  C   UNL     1       7.513   5.710  17.829  0.00  0.00    +0.000 C 
ATOM      5  C   UNL     1       6.831   6.976  17.300  0.00  0.00    +0.000 C 
ATOM      6  C   UNL     1       5.306   6.848  17.287  0.00  0.00    +0.000 C 
ENDROOT
BRANCH   1   7
ATOM      7  C   UNL     1       3.289   6.337  18.490  0.00  0.00    +0.000 C 
BRANCH   7  12
ATOM      8  C   UNL     1       0.918   8.888  20.066  0.00  0.00    +0.000 A 
ATOM      9  C   UNL     1       0.811   9.832  19.043  0.00  0.00    +0.000 A 
ATOM     10  C   UNL     1       1.520   9.663  17.854  0.00  0.00    +0.000 A 
ATOM     11  C   UNL     1       2.340   8.546  17.683  0.00  0.00    +0.000 A 
ATOM     12  C   UNL     1       2.476   7.597  18.705  0.00  0.00    +0.000 A 
ATOM     13  C   UNL     1       1.768   7.788  19.903  0.00  0.00    +0.000 A 
BRANCH   8  15
ATOM     14  C   UNL     1       1.330   9.224  22.754  0.00  0.00    +0.000 C 
ATOM     15  S   UNL     1      -0.032   9.047  21.568  0.00  0.00    +0.000 S 
ENDBRANCH   8  15
ENDBRANCH   7  12
ENDBRANCH   1   7
BRANCH   4  16
ATOM     16  C   UNL     1       7.401   4.495  16.885  0.00  0.00    +0.000 C 
BRANCH  16  17
ATOM     17  C   UNL     1       7.214   4.860  15.409  0.00  0.00    +0.000 C 
BRANCH  17  18
ATOM     18  C   UNL     1       6.009   4.158  14.807  0.00  0.00    +0.000 C 
ATOM     19  O   UNL     1       4.923   4.078  15.374  0.00  0.00    +0.000 OA
ATOM     20  N   UNL     1       6.257   3.631  13.552  0.00  0.00    +0.000 N 
ATOM     21  H   UNL     1       7.174   3.734  13.141  0.00  0.00    +0.000 HD
BRANCH  20  22
ATOM     22  C   UNL     1       5.241   2.941  12.819  0.00  0.00    +0.000 C 
ATOM     23  C   UNL     1       4.664   3.499  11.549  0.00  0.00    +0.000 C 
ATOM     24  C   UNL     1       5.571   2.304  11.499  0.00  0.00    +0.000 C 
ENDBRANCH  20  22
ENDBRANCH  17  18
ENDBRANCH  16  17
ENDBRANCH   4  16
TORSDOF 7
ENDMDL
