MODEL 1
REMARK VINA RESULT:      -8.8      0.000      0.000
REMARK  Name = 
REMARK  8 active torsions:
REMARK  status: ('A' for Active; 'I' for Inactive)
REMARK    1  A    between atoms: C_1  and  O_2
REMARK    2  A    between atoms: O_2  and  C_3
REMARK    3  A    between atoms: C_6  and  O_7
REMARK    4  A    between atoms: O_7  and  C_8
REMARK    5  A    between atoms: C_9  and  N_10
REMARK    6  A    between atoms: C_11  and  C_13
REMARK    7  A    between atoms: N_21  and  C_22
REMARK    8  A    between atoms: C_22  and  C_23
REMARK                            x       y       z     vdW  Elec       q    Type
REMARK                         _______ _______ _______ _____ _____    ______ ____
ROOT
ATOM      1  C   UNL     1       8.006   7.799  18.218  0.00  0.00    +0.000 A 
ATOM      2  C   UNL     1       8.442   6.830  19.157  0.00  0.00    +0.000 A 
ATOM      3  C   UNL     1       7.777   5.591  19.273  0.00  0.00    +0.000 A 
ATOM      4  C   UNL     1       6.724   5.350  18.406  0.00  0.00    +0.000 A 
ATOM      5  C   UNL     1       6.485   6.203  17.348  0.00  0.00    +0.000 A 
ATOM      6  C   UNL     1       7.066   7.444  17.247  0.00  0.00    +0.000 A 
ATOM      7  C   UNL     1       5.356   5.688  16.614  0.00  0.00    +0.000 C 
ATOM      8  O   UNL     1       5.089   5.988  15.466  0.00  0.00    +0.000 OA
ATOM      9  N   UNL     1       4.716   4.845  17.464  0.00  0.00    +0.000 N 
ATOM     10  C   UNL     1       5.559   4.448  18.474  0.00  0.00    +0.000 C 
ATOM     11  O   UNL     1       5.423   3.574  19.312  0.00  0.00    +0.000 OA
ENDROOT
BRANCH   1  13
ATOM     12  N   UNL     1       9.329   9.616  19.186  0.00  0.00    +0.000 N 
ATOM     13  C   UNL     1       8.386   9.250  18.242  0.00  0.00    +0.000 C 
ATOM     14  O   UNL     1       7.769   9.969  17.469  0.00  0.00    +0.000 OA
ATOM     15  H   UNL     1       9.721   8.866  19.734  0.00  0.00    +0.000 HD
BRANCH  12  20
ATOM     16  C   UNL     1      11.176  12.798  18.771  0.00  0.00    +0.000 A 
ATOM     17  C   UNL     1      10.915  13.471  19.953  0.00  0.00    +0.000 A 
ATOM     18  C   UNL     1      10.127  12.884  20.940  0.00  0.00    +0.000 A 
ATOM     19  C   UNL     1       9.586  11.604  20.762  0.00  0.00    +0.000 A 
ATOM     20  C   UNL     1       9.808  10.910  19.554  0.00  0.00    +0.000 A 
ATOM     21  C   UNL     1      10.624  11.528  18.573  0.00  0.00    +0.000 A 
BRANCH  16  23
ATOM     22  C   UNL     1      12.333  14.810  18.240  0.00  0.00    +0.000 C 
ATOM     23  O   UNL     1      11.976  13.482  17.897  0.00  0.00    +0.000 OA
ENDBRANCH  16  23
BRANCH  19  24
ATOM     24  O   UNL     1       8.825  11.032  21.740  0.00  0.00    +0.000 OA
ATOM     25  C   UNL     1       8.092  11.891  22.602  0.00  0.00    +0.000 C 
ENDBRANCH  19  24
ENDBRANCH  12  20
ENDBRANCH   1  13
BRANCH   9  26
ATOM     26  C   UNL     1       3.337   4.453  17.239  0.00  0.00    +0.000 C 
BRANCH  26  27
ATOM     27  C   UNL     1       2.369   4.787  18.411  0.00  0.00    +0.000 C 
ATOM     28  C   UNL     1       2.717   5.916  19.372  0.00  0.00    +0.000 C 
ATOM     29  C   UNL     1       1.744   5.680  20.500  0.00  0.00    +0.000 C 
ATOM     30  C   UNL     1       1.664   4.165  20.545  0.00  0.00    +0.000 C 
ATOM     31  O   UNL     1       2.148   3.658  19.283  0.00  0.00    +0.000 OA
ENDBRANCH  26  27
ENDBRANCH   9  26
TORSDOF 6
ENDMDL
MODEL 2
REMARK VINA RESULT:      -8.8      0.898      2.440
REMARK  Name = 
REMARK  8 active torsions:
REMARK  status: ('A' for Active; 'I' for Inactive)
REMARK    1  A    between atoms: C_1  and  O_2
REMARK    2  A    between atoms: O_2  and  C_3
REMARK    3  A    between atoms: C_6  and  O_7
REMARK    4  A    between atoms: O_7  and  C_8
REMARK    5  A    between atoms: C_9  and  N_10
REMARK    6  A    between atoms: C_11  and  C_13
REMARK    7  A    between atoms: N_21  and  C_22
REMARK    8  A    between atoms: C_22  and  C_23
REMARK                            x       y       z     vdW  Elec       q    Type
REMARK                         _______ _______ _______ _____ _____    ______ ____
ROOT
ATOM      1  C   UNL     1       8.109   8.008  18.281  0.00  0.00    +0.000 A 
ATOM      2  C   UNL     1       8.564   6.979  19.144  0.00  0.00    +0.000 A 
ATOM      3  C   UNL     1       7.896   5.738  19.199  0.00  0.00    +0.000 A 
ATOM      4  C   UNL     1       6.819   5.556  18.347  0.00  0.00    +0.000 A 
ATOM      5  C   UNL     1       6.557   6.475  17.352  0.00  0.00    +0.000 A 
ATOM      6  C   UNL     1       7.142   7.718  17.315  0.00  0.00    +0.000 A 
ATOM      7  C   UNL     1       5.407   6.013  16.617  0.00  0.00    +0.000 C 
ATOM      8  O   UNL     1       5.112   6.386  15.497  0.00  0.00    +0.000 OA
ATOM      9  N   UNL     1       4.785   5.119  17.428  0.00  0.00    +0.000 N 
ATOM     10  C   UNL     1       5.652   4.655  18.388  0.00  0.00    +0.000 C 
ATOM     11  O   UNL     1       5.534   3.730  19.172  0.00  0.00    +0.000 OA
ENDROOT
BRANCH   1  13
ATOM     12  N   UNL     1       9.267   9.796  19.484  0.00  0.00    +0.000 N 
ATOM     13  C   UNL     1       8.496   9.453  18.388  0.00  0.00    +0.000 C 
ATOM     14  O   UNL     1       8.030  10.188  17.529  0.00  0.00    +0.000 OA
ATOM     15  H   UNL     1       9.551   9.036  20.082  0.00  0.00    +0.000 HD
BRANCH  12  20
ATOM     16  C   UNL     1       9.414  12.707  21.767  0.00  0.00    +0.000 A 
ATOM     17  C   UNL     1      10.314  13.554  21.141  0.00  0.00    +0.000 A 
ATOM     18  C   UNL     1      10.893  13.195  19.927  0.00  0.00    +0.000 A 
ATOM     19  C   UNL     1      10.578  11.977  19.311  0.00  0.00    +0.000 A 
ATOM     20  C   UNL     1       9.692  11.080  19.944  0.00  0.00    +0.000 A 
ATOM     21  C   UNL     1       9.108  11.478  21.173  0.00  0.00    +0.000 A 
BRANCH  16  23
ATOM     22  C   UNL     1       8.438  12.245  23.890  0.00  0.00    +0.000 C 
ATOM     23  O   UNL     1       8.908  13.190  22.943  0.00  0.00    +0.000 OA
ENDBRANCH  16  23
BRANCH  19  24
ATOM     24  O   UNL     1      11.141  11.640  18.115  0.00  0.00    +0.000 OA
ATOM     25  C   UNL     1      11.386  12.679  17.177  0.00  0.00    +0.000 C 
ENDBRANCH  19  24
ENDBRANCH  12  20
ENDBRANCH   1  13
BRANCH   9  26
ATOM     26  C   UNL     1       3.399   4.746  17.215  0.00  0.00    +0.000 C 
BRANCH  26  27
ATOM     27  C   UNL     1       2.439   5.131  18.377  0.00  0.00    +0.000 C 
ATOM     28  C   UNL     1       2.772   6.327  19.259  0.00  0.00    +0.000 C 
ATOM     29  C   UNL     1       1.819   6.141  20.414  0.00  0.00    +0.000 C 
ATOM     30  C   UNL     1       1.777   4.630  20.557  0.00  0.00    +0.000 C 
ATOM     31  O   UNL     1       2.258   4.055  19.322  0.00  0.00    +0.000 OA
ENDBRANCH  26  27
ENDBRANCH   9  26
TORSDOF 6
ENDMDL
MODEL 3
REMARK VINA RESULT:      -8.5      1.080      2.447
REMARK  Name = 
REMARK  8 active torsions:
REMARK  status: ('A' for Active; 'I' for Inactive)
REMARK    1  A    between atoms: C_1  and  O_2
REMARK    2  A    between atoms: O_2  and  C_3
REMARK    3  A    between atoms: C_6  and  O_7
REMARK    4  A    between atoms: O_7  and  C_8
REMARK    5  A    between atoms: C_9  and  N_10
REMARK    6  A    between atoms: C_11  and  C_13
REMARK    7  A    between atoms: N_21  and  C_22
REMARK    8  A    between atoms: C_22  and  C_23
REMARK                            x       y       z     vdW  Elec       q    Type
REMARK                         _______ _______ _______ _____ _____    ______ ____
ROOT
ATOM      1  C   UNL     1       8.098   8.044  18.279  0.00  0.00    +0.000 A 
ATOM      2  C   UNL     1       8.564   7.006  19.125  0.00  0.00    +0.000 A 
ATOM      3  C   UNL     1       7.885   5.772  19.191  0.00  0.00    +0.000 A 
ATOM      4  C   UNL     1       6.784   5.607  18.366  0.00  0.00    +0.000 A 
ATOM      5  C   UNL     1       6.506   6.534  17.383  0.00  0.00    +0.000 A 
ATOM      6  C   UNL     1       7.103   7.770  17.337  0.00  0.00    +0.000 A 
ATOM      7  C   UNL     1       5.332   6.087  16.676  0.00  0.00    +0.000 C 
ATOM      8  O   UNL     1       5.011   6.469  15.566  0.00  0.00    +0.000 OA
ATOM      9  N   UNL     1       4.722   5.196  17.499  0.00  0.00    +0.000 N 
ATOM     10  C   UNL     1       5.609   4.718  18.433  0.00  0.00    +0.000 C 
ATOM     11  O   UNL     1       5.501   3.790  19.215  0.00  0.00    +0.000 OA
ENDROOT
BRANCH   1  13
ATOM     12  N   UNL     1       9.265   9.824  19.486  0.00  0.00    +0.000 N 
ATOM     13  C   UNL     1       8.504   9.485  18.382  0.00  0.00    +0.000 C 
ATOM     14  O   UNL     1       8.059  10.221  17.513  0.00  0.00    +0.000 OA
ATOM     15  H   UNL     1       9.530   9.063  20.093  0.00  0.00    +0.000 HD
BRANCH  12  20
ATOM     16  C   UNL     1       9.410  12.753  21.748  0.00  0.00    +0.000 A 
ATOM     17  C   UNL     1      10.337  13.579  21.134  0.00  0.00    +0.000 A 
ATOM     18  C   UNL     1      10.937  13.199  19.937  0.00  0.00    +0.000 A 
ATOM     19  C   UNL     1      10.615  11.981  19.324  0.00  0.00    +0.000 A 
ATOM     20  C   UNL     1       9.700  11.104  19.945  0.00  0.00    +0.000 A 
ATOM     21  C   UNL     1       9.096  11.524  21.157  0.00  0.00    +0.000 A 
BRANCH  16  23
ATOM     22  C   UNL     1       9.050  14.641  23.153  0.00  0.00    +0.000 C 
ATOM     23  O   UNL     1       8.887  13.254  22.907  0.00  0.00    +0.000 OA
ENDBRANCH  16  23
BRANCH  19  24
ATOM     24  O   UNL     1      11.200  11.623  18.145  0.00  0.00    +0.000 OA
ATOM     25  C   UNL     1      11.486  12.650  17.204  0.00  0.00    +0.000 C 
ENDBRANCH  19  24
ENDBRANCH  12  20
ENDBRANCH   1  13
BRANCH   9  26
ATOM     26  C   UNL     1       3.326   4.839  17.320  0.00  0.00    +0.000 C 
BRANCH  26  27
ATOM     27  C   UNL     1       2.664   4.176  18.562  0.00  0.00    +0.000 C 
ATOM     28  C   UNL     1       1.438   3.292  18.374  0.00  0.00    +0.000 C 
ATOM     29  C   UNL     1       0.933   3.150  19.789  0.00  0.00    +0.000 C 
ATOM     30  C   UNL     1       1.242   4.514  20.379  0.00  0.00    +0.000 C 
ATOM     31  O   UNL     1       2.233   5.146  19.541  0.00  0.00    +0.000 OA
ENDBRANCH  26  27
ENDBRANCH   9  26
TORSDOF 6
ENDMDL
MODEL 4
REMARK VINA RESULT:      -8.0      5.247      8.399
REMARK  Name = 
REMARK  8 active torsions:
REMARK  status: ('A' for Active; 'I' for Inactive)
REMARK    1  A    between atoms: C_1  and  O_2
REMARK    2  A    between atoms: O_2  and  C_3
REMARK    3  A    between atoms: C_6  and  O_7
REMARK    4  A    between atoms: O_7  and  C_8
REMARK    5  A    between atoms: C_9  and  N_10
REMARK    6  A    between atoms: C_11  and  C_13
REMARK    7  A    between atoms: N_21  and  C_22
REMARK    8  A    between atoms: C_22  and  C_23
REMARK                            x       y       z     vdW  Elec       q    Type
REMARK                         _______ _______ _______ _____ _____    ______ ____
ROOT
ATOM      1  C   UNL     1       2.505   7.488  18.195  0.00  0.00    +0.000 A 
ATOM      2  C   UNL     1       1.816   6.271  18.429  0.00  0.00    +0.000 A 
ATOM      3  C   UNL     1       2.467   5.031  18.259  0.00  0.00    +0.000 A 
ATOM      4  C   UNL     1       3.805   5.058  17.904  0.00  0.00    +0.000 A 
ATOM      5  C   UNL     1       4.507   6.246  17.926  0.00  0.00    +0.000 A 
ATOM      6  C   UNL     1       3.892   7.471  18.020  0.00  0.00    +0.000 A 
ATOM      7  C   UNL     1       5.866   5.962  17.540  0.00  0.00    +0.000 C 
ATOM      8  O   UNL     1       6.813   6.691  17.771  0.00  0.00    +0.000 OA
ATOM      9  N   UNL     1       5.827   4.764  16.903  0.00  0.00    +0.000 N 
ATOM     10  C   UNL     1       4.684   4.078  17.238  0.00  0.00    +0.000 C 
ATOM     11  O   UNL     1       4.373   2.920  17.025  0.00  0.00    +0.000 OA
ENDROOT
BRANCH   1  13
ATOM     12  N   UNL     1       0.682   9.038  18.705  0.00  0.00    +0.000 N 
ATOM     13  C   UNL     1       1.850   8.822  17.995  0.00  0.00    +0.000 C 
ATOM     14  O   UNL     1       2.382   9.552  17.171  0.00  0.00    +0.000 OA
ATOM     15  H   UNL     1       0.407   8.304  19.339  0.00  0.00    +0.000 HD
BRANCH  12  20
ATOM     16  C   UNL     1      -2.110  11.055  17.346  0.00  0.00    +0.000 A 
ATOM     17  C   UNL     1      -2.198  12.111  18.238  0.00  0.00    +0.000 A 
ATOM     18  C   UNL     1      -1.322  12.201  19.315  0.00  0.00    +0.000 A 
ATOM     19  C   UNL     1      -0.331  11.231  19.520  0.00  0.00    +0.000 A 
ATOM     20  C   UNL     1      -0.241  10.126  18.648  0.00  0.00    +0.000 A 
ATOM     21  C   UNL     1      -1.139  10.069  17.552  0.00  0.00    +0.000 A 
BRANCH  16  23
ATOM     22  C   UNL     1      -3.010  10.031  15.394  0.00  0.00    +0.000 C 
ATOM     23  O   UNL     1      -3.020  11.099  16.326  0.00  0.00    +0.000 OA
ENDBRANCH  16  23
BRANCH  19  24
ATOM     24  O   UNL     1       0.531  11.334  20.572  0.00  0.00    +0.000 OA
ATOM     25  C   UNL     1       1.217  12.566  20.754  0.00  0.00    +0.000 C 
ENDBRANCH  19  24
ENDBRANCH  12  20
ENDBRANCH   1  13
BRANCH   9  26
ATOM     26  C   UNL     1       6.905   4.339  16.030  0.00  0.00    +0.000 C 
BRANCH  26  27
ATOM     27  C   UNL     1       6.708   4.708  14.531  0.00  0.00    +0.000 C 
ATOM     28  C   UNL     1       6.406   3.608  13.522  0.00  0.00    +0.000 C 
ATOM     29  C   UNL     1       6.629   4.316  12.208  0.00  0.00    +0.000 C 
ATOM     30  C   UNL     1       7.789   5.240  12.534  0.00  0.00    +0.000 C 
ATOM     31  O   UNL     1       7.860   5.373  13.970  0.00  0.00    +0.000 OA
ENDBRANCH  26  27
ENDBRANCH   9  26
TORSDOF 6
ENDMDL
MODEL 5
REMARK VINA RESULT:      -8.0      5.283      8.243
REMARK  Name = 
REMARK  8 active torsions:
REMARK  status: ('A' for Active; 'I' for Inactive)
REMARK    1  A    between atoms: C_1  and  O_2
REMARK    2  A    between atoms: O_2  and  C_3
REMARK    3  A    between atoms: C_6  and  O_7
REMARK    4  A    between atoms: O_7  and  C_8
REMARK    5  A    between atoms: C_9  and  N_10
REMARK    6  A    between atoms: C_11  and  C_13
REMARK    7  A    between atoms: N_21  and  C_22
REMARK    8  A    between atoms: C_22  and  C_23
REMARK                            x       y       z     vdW  Elec       q    Type
REMARK                         _______ _______ _______ _____ _____    ______ ____
ROOT
ATOM      1  C   UNL     1       2.539   7.411  18.333  0.00  0.00    +0.000 A 
ATOM      2  C   UNL     1       1.817   6.191  18.359  0.00  0.00    +0.000 A 
ATOM      3  C   UNL     1       2.454   4.972  18.049  0.00  0.00    +0.000 A 
ATOM      4  C   UNL     1       3.810   5.015  17.768  0.00  0.00    +0.000 A 
ATOM      5  C   UNL     1       4.530   6.171  17.992  0.00  0.00    +0.000 A 
ATOM      6  C   UNL     1       3.932   7.385  18.228  0.00  0.00    +0.000 A 
ATOM      7  C   UNL     1       5.903   5.910  17.638  0.00  0.00    +0.000 C 
ATOM      8  O   UNL     1       6.848   6.576  18.017  0.00  0.00    +0.000 OA
ATOM      9  N   UNL     1       5.876   4.814  16.838  0.00  0.00    +0.000 N 
ATOM     10  C   UNL     1       4.705   4.117  17.015  0.00  0.00    +0.000 C 
ATOM     11  O   UNL     1       4.386   3.007  16.626  0.00  0.00    +0.000 OA
ENDROOT
BRANCH   1  13
ATOM     12  N   UNL     1       1.070   9.090  19.338  0.00  0.00    +0.000 N 
ATOM     13  C   UNL     1       1.918   8.776  18.291  0.00  0.00    +0.000 C 
ATOM     14  O   UNL     1       2.176   9.442  17.299  0.00  0.00    +0.000 OA
ATOM     15  H   UNL     1       0.989   8.398  20.066  0.00  0.00    +0.000 HD
BRANCH  12  20
ATOM     16  C   UNL     1      -0.246  12.078  21.086  0.00  0.00    +0.000 A 
ATOM     17  C   UNL     1      -1.233  12.535  20.228  0.00  0.00    +0.000 A 
ATOM     18  C   UNL     1      -1.509  11.858  19.044  0.00  0.00    +0.000 A 
ATOM     19  C   UNL     1      -0.801  10.700  18.695  0.00  0.00    +0.000 A 
ATOM     20  C   UNL     1       0.233  10.232  19.533  0.00  0.00    +0.000 A 
ATOM     21  C   UNL     1       0.483  10.935  20.738  0.00  0.00    +0.000 A 
BRANCH  16  23
ATOM     22  C   UNL     1      -1.241  13.056  23.015  0.00  0.00    +0.000 C 
ATOM     23  O   UNL     1      -0.090  12.827  22.219  0.00  0.00    +0.000 OA
ENDBRANCH  16  23
BRANCH  19  24
ATOM     24  O   UNL     1      -1.087  10.036  17.538  0.00  0.00    +0.000 OA
ATOM     25  C   UNL     1      -2.437  10.020  17.095  0.00  0.00    +0.000 C 
ENDBRANCH  19  24
ENDBRANCH  12  20
ENDBRANCH   1  13
BRANCH   9  26
ATOM     26  C   UNL     1       6.992   4.490  15.968  0.00  0.00    +0.000 C 
BRANCH  26  27
ATOM     27  C   UNL     1       6.749   4.794  14.462  0.00  0.00    +0.000 C 
ATOM     28  C   UNL     1       6.396   3.655  13.514  0.00  0.00    +0.000 C 
ATOM     29  C   UNL     1       6.585   4.300  12.163  0.00  0.00    +0.000 C 
ATOM     30  C   UNL     1       7.768   5.219  12.407  0.00  0.00    +0.000 C 
ATOM     31  O   UNL     1       7.890   5.414  13.833  0.00  0.00    +0.000 OA
ENDBRANCH  26  27
ENDBRANCH   9  26
TORSDOF 6
ENDMDL
MODEL 6
REMARK VINA RESULT:      -8.0      6.086     10.072
REMARK  Name = 
REMARK  8 active torsions:
REMARK  status: ('A' for Active; 'I' for Inactive)
REMARK    1  A    between atoms: C_1  and  O_2
REMARK    2  A    between atoms: O_2  and  C_3
REMARK    3  A    between atoms: C_6  and  O_7
REMARK    4  A    between atoms: O_7  and  C_8
REMARK    5  A    between atoms: C_9  and  N_10
REMARK    6  A    between atoms: C_11  and  C_13
REMARK    7  A    between atoms: N_21  and  C_22
REMARK    8  A    between atoms: C_22  and  C_23
REMARK                            x       y       z     vdW  Elec       q    Type
REMARK                         _______ _______ _______ _____ _____    ______ ____
ROOT
ATOM      1  C   UNL     1       0.627   9.622  19.282  0.00  0.00    +0.000 A 
ATOM      2  C   UNL     1       0.646   9.148  20.618  0.00  0.00    +0.000 A 
ATOM      3  C   UNL     1       1.382   7.995  20.963  0.00  0.00    +0.000 A 
ATOM      4  C   UNL     1       2.113   7.383  19.958  0.00  0.00    +0.000 A 
ATOM      5  C   UNL     1       2.272   8.004  18.737  0.00  0.00    +0.000 A 
ATOM      6  C   UNL     1       1.519   9.086  18.349  0.00  0.00    +0.000 A 
ATOM      7  C   UNL     1       3.093   7.153  17.913  0.00  0.00    +0.000 C 
ATOM      8  O   UNL     1       3.698   7.527  16.926  0.00  0.00    +0.000 OA
ATOM      9  N   UNL     1       3.028   5.920  18.477  0.00  0.00    +0.000 N 
ATOM     10  C   UNL     1       2.623   6.010  19.787  0.00  0.00    +0.000 C 
ATOM     11  O   UNL     1       2.616   5.167  20.667  0.00  0.00    +0.000 OA
ENDROOT
BRANCH   1  13
ATOM     12  N   UNL     1      -1.674  10.137  18.629  0.00  0.00    +0.000 N 
ATOM     13  C   UNL     1      -0.372  10.594  18.728  0.00  0.00    +0.000 C 
ATOM     14  O   UNL     1       0.085  11.666  18.358  0.00  0.00    +0.000 OA
ATOM     15  H   UNL     1      -1.848   9.212  18.992  0.00  0.00    +0.000 HD
BRANCH  12  20
ATOM     16  C   UNL     1      -4.816  12.094  18.549  0.00  0.00    +0.000 A 
ATOM     17  C   UNL     1      -5.165  12.075  17.208  0.00  0.00    +0.000 A 
ATOM     18  C   UNL     1      -4.376  11.397  16.283  0.00  0.00    +0.000 A 
ATOM     19  C   UNL     1      -3.219  10.717  16.685  0.00  0.00    +0.000 A 
ATOM     20  C   UNL     1      -2.821  10.749  18.038  0.00  0.00    +0.000 A 
ATOM     21  C   UNL     1      -3.651  11.437  18.959  0.00  0.00    +0.000 A 
BRANCH  16  23
ATOM     22  C   UNL     1      -6.836  12.091  19.810  0.00  0.00    +0.000 C 
ATOM     23  O   UNL     1      -5.686  12.781  19.349  0.00  0.00    +0.000 OA
ENDBRANCH  16  23
BRANCH  19  24
ATOM     24  O   UNL     1      -2.459  10.045  15.773  0.00  0.00    +0.000 OA
ATOM     25  C   UNL     1      -2.922   9.991  14.430  0.00  0.00    +0.000 C 
ENDBRANCH  19  24
ENDBRANCH  12  20
ENDBRANCH   1  13
BRANCH   9  26
ATOM     26  C   UNL     1       3.385   4.729  17.727  0.00  0.00    +0.000 C 
BRANCH  26  27
ATOM     27  C   UNL     1       4.910   4.428  17.679  0.00  0.00    +0.000 C 
ATOM     28  C   UNL     1       5.848   5.147  18.640  0.00  0.00    +0.000 C 
ATOM     29  C   UNL     1       7.201   4.843  18.046  0.00  0.00    +0.000 C 
ATOM     30  C   UNL     1       6.910   4.856  16.557  0.00  0.00    +0.000 C 
ATOM     31  O   UNL     1       5.485   4.698  16.382  0.00  0.00    +0.000 OA
ENDBRANCH  26  27
ENDBRANCH   9  26
TORSDOF 6
ENDMDL
MODEL 7
REMARK VINA RESULT:      -7.9      5.896      8.860
REMARK  Name = 
REMARK  8 active torsions:
REMARK  status: ('A' for Active; 'I' for Inactive)
REMARK    1  A    between atoms: C_1  and  O_2
REMARK    2  A    between atoms: O_2  and  C_3
REMARK    3  A    between atoms: C_6  and  O_7
REMARK    4  A    between atoms: O_7  and  C_8
REMARK    5  A    between atoms: C_9  and  N_10
REMARK    6  A    between atoms: C_11  and  C_13
REMARK    7  A    between atoms: N_21  and  C_22
REMARK    8  A    between atoms: C_22  and  C_23
REMARK                            x       y       z     vdW  Elec       q    Type
REMARK                         _______ _______ _______ _____ _____    ______ ____
ROOT
ATOM      1  C   UNL     1       1.089   9.268  20.071  0.00  0.00    +0.000 A 
ATOM      2  C   UNL     1       1.230   9.658  18.715  0.00  0.00    +0.000 A 
ATOM      3  C   UNL     1       1.989   8.880  17.817  0.00  0.00    +0.000 A 
ATOM      4  C   UNL     1       2.544   7.708  18.303  0.00  0.00    +0.000 A 
ATOM      5  C   UNL     1       2.187   7.233  19.548  0.00  0.00    +0.000 A 
ATOM      6  C   UNL     1       1.507   7.995  20.468  0.00  0.00    +0.000 A 
ATOM      7  C   UNL     1       2.895   5.997  19.768  0.00  0.00    +0.000 C 
ATOM      8  O   UNL     1       2.575   5.158  20.588  0.00  0.00    +0.000 OA
ATOM      9  N   UNL     1       3.933   6.005  18.893  0.00  0.00    +0.000 N 
ATOM     10  C   UNL     1       3.691   6.888  17.868  0.00  0.00    +0.000 C 
ATOM     11  O   UNL     1       4.281   7.048  16.814  0.00  0.00    +0.000 OA
ENDROOT
BRANCH   1  13
ATOM     12  N   UNL     1      -0.456  10.979  20.891  0.00  0.00    +0.000 N 
ATOM     13  C   UNL     1       0.625  10.164  21.180  0.00  0.00    +0.000 C 
ATOM     14  O   UNL     1       1.295  10.129  22.202  0.00  0.00    +0.000 OA
ATOM     15  H   UNL     1      -0.873  10.856  19.982  0.00  0.00    +0.000 HD
BRANCH  12  20
ATOM     16  C   UNL     1      -2.785  12.471  23.353  0.00  0.00    +0.000 A 
ATOM     17  C   UNL     1      -2.446  13.815  23.332  0.00  0.00    +0.000 A 
ATOM     18  C   UNL     1      -1.441  14.277  22.487  0.00  0.00    +0.000 A 
ATOM     19  C   UNL     1      -0.755  13.399  21.638  0.00  0.00    +0.000 A 
ATOM     20  C   UNL     1      -1.055  12.020  21.663  0.00  0.00    +0.000 A 
ATOM     21  C   UNL     1      -2.091  11.582  22.525  0.00  0.00    +0.000 A 
BRANCH  16  23
ATOM     22  C   UNL     1      -4.989  12.922  24.132  0.00  0.00    +0.000 C 
ATOM     23  O   UNL     1      -3.798  12.157  24.215  0.00  0.00    +0.000 OA
ENDBRANCH  16  23
BRANCH  19  24
ATOM     24  O   UNL     1       0.220  13.863  20.804  0.00  0.00    +0.000 OA
ATOM     25  C   UNL     1       1.531  14.019  21.332  0.00  0.00    +0.000 C 
ENDBRANCH  19  24
ENDBRANCH  12  20
ENDBRANCH   1  13
BRANCH   9  26
ATOM     26  C   UNL     1       5.085   5.143  19.082  0.00  0.00    +0.000 C 
BRANCH  26  27
ATOM     27  C   UNL     1       4.855   3.659  18.675  0.00  0.00    +0.000 C 
ATOM     28  C   UNL     1       3.648   3.293  17.822  0.00  0.00    +0.000 C 
ATOM     29  C   UNL     1       3.614   1.790  17.952  0.00  0.00    +0.000 C 
ATOM     30  C   UNL     1       4.068   1.581  19.385  0.00  0.00    +0.000 C 
ATOM     31  O   UNL     1       4.736   2.785  19.819  0.00  0.00    +0.000 OA
ENDBRANCH  26  27
ENDBRANCH   9  26
TORSDOF 6
ENDMDL
MODEL 8
REMARK VINA RESULT:      -7.8      5.558      9.081
REMARK  Name = 
REMARK  8 active torsions:
REMARK  status: ('A' for Active; 'I' for Inactive)
REMARK    1  A    between atoms: C_1  and  O_2
REMARK    2  A    between atoms: O_2  and  C_3
REMARK    3  A    between atoms: C_6  and  O_7
REMARK    4  A    between atoms: O_7  and  C_8
REMARK    5  A    between atoms: C_9  and  N_10
REMARK    6  A    between atoms: C_11  and  C_13
REMARK    7  A    between atoms: N_21  and  C_22
REMARK    8  A    between atoms: C_22  and  C_23
REMARK                            x       y       z     vdW  Elec       q    Type
REMARK                         _______ _______ _______ _____ _____    ______ ____
ROOT
ATOM      1  C   UNL     1       1.372   8.588  19.269  0.00  0.00    +0.000 A 
ATOM      2  C   UNL     1       1.383   8.221  20.638  0.00  0.00    +0.000 A 
ATOM      3  C   UNL     1       0.705   9.001  21.598  0.00  0.00    +0.000 A 
ATOM      4  C   UNL     1      -0.002  10.101  21.140  0.00  0.00    +0.000 A 
ATOM      5  C   UNL     1      -0.196  10.288  19.787  0.00  0.00    +0.000 A 
ATOM      6  C   UNL     1       0.501   9.590  18.831  0.00  0.00    +0.000 A 
ATOM      7  C   UNL     1      -0.980  11.486  19.616  0.00  0.00    +0.000 C 
ATOM      8  O   UNL     1      -1.607  11.759  18.611  0.00  0.00    +0.000 OA
ATOM      9  N   UNL     1      -0.853  12.179  20.777  0.00  0.00    +0.000 N 
ATOM     10  C   UNL     1      -0.446  11.347  21.792  0.00  0.00    +0.000 C 
ATOM     11  O   UNL     1      -0.394  11.542  22.994  0.00  0.00    +0.000 OA
ENDROOT
BRANCH   1  13
ATOM     12  N   UNL     1       2.848   6.809  18.468  0.00  0.00    +0.000 N 
ATOM     13  C   UNL     1       2.320   8.065  18.231  0.00  0.00    +0.000 C 
ATOM     14  O   UNL     1       2.580   8.836  17.318  0.00  0.00    +0.000 OA
ATOM     15  H   UNL     1       2.504   6.331  19.286  0.00  0.00    +0.000 HD
BRANCH  12  20
ATOM     16  C   UNL     1       6.144   6.261  16.871  0.00  0.00    +0.000 A 
ATOM     17  C   UNL     1       6.055   4.960  16.404  0.00  0.00    +0.000 A 
ATOM     18  C   UNL     1       4.889   4.222  16.588  0.00  0.00    +0.000 A 
ATOM     19  C   UNL     1       3.782   4.776  17.244  0.00  0.00    +0.000 A 
ATOM     20  C   UNL     1       3.858   6.087  17.761  0.00  0.00    +0.000 A 
ATOM     21  C   UNL     1       5.053   6.818  17.547  0.00  0.00    +0.000 A 
BRANCH  16  23
ATOM     22  C   UNL     1       7.787   7.853  17.531  0.00  0.00    +0.000 C 
ATOM     23  O   UNL     1       7.337   6.875  16.608  0.00  0.00    +0.000 OA
ENDBRANCH  16  23
BRANCH  19  24
ATOM     24  O   UNL     1       2.640   4.049  17.409  0.00  0.00    +0.000 OA
ATOM     25  C   UNL     1       2.766   2.653  17.645  0.00  0.00    +0.000 C 
ENDBRANCH  19  24
ENDBRANCH  12  20
ENDBRANCH   1  13
BRANCH   9  26
ATOM     26  C   UNL     1      -1.156  13.597  20.845  0.00  0.00    +0.000 C 
BRANCH  26  27
ATOM     27  C   UNL     1      -0.014  14.527  20.343  0.00  0.00    +0.000 C 
ATOM     28  C   UNL     1      -0.126  15.176  18.969  0.00  0.00    +0.000 C 
ATOM     29  C   UNL     1       1.278  15.682  18.745  0.00  0.00    +0.000 C 
ATOM     30  C   UNL     1       2.118  14.600  19.400  0.00  0.00    +0.000 C 
ATOM     31  O   UNL     1       1.264  13.856  20.295  0.00  0.00    +0.000 OA
ENDBRANCH  26  27
ENDBRANCH   9  26
TORSDOF 6
ENDMDL
MODEL 9
REMARK VINA RESULT:      -7.8      5.985      9.113
REMARK  Name = 
REMARK  8 active torsions:
REMARK  status: ('A' for Active; 'I' for Inactive)
REMARK    1  A    between atoms: C_1  and  O_2
REMARK    2  A    between atoms: O_2  and  C_3
REMARK    3  A    between atoms: C_6  and  O_7
REMARK    4  A    between atoms: O_7  and  C_8
REMARK    5  A    between atoms: C_9  and  N_10
REMARK    6  A    between atoms: C_11  and  C_13
REMARK    7  A    between atoms: N_21  and  C_22
REMARK    8  A    between atoms: C_22  and  C_23
REMARK                            x       y       z     vdW  Elec       q    Type
REMARK                         _______ _______ _______ _____ _____    ______ ____
ROOT
ATOM      1  C   UNL     1       1.492   8.390  19.270  0.00  0.00    +0.000 A 
ATOM      2  C   UNL     1       1.529   7.982  20.627  0.00  0.00    +0.000 A 
ATOM      3  C   UNL     1       0.835   8.709  21.617  0.00  0.00    +0.000 A 
ATOM      4  C   UNL     1       0.087   9.798  21.199  0.00  0.00    +0.000 A 
ATOM      5  C   UNL     1      -0.127  10.020  19.855  0.00  0.00    +0.000 A 
ATOM      6  C   UNL     1       0.584   9.375  18.872  0.00  0.00    +0.000 A 
ATOM      7  C   UNL     1      -0.952  11.195  19.728  0.00  0.00    +0.000 C 
ATOM      8  O   UNL     1      -1.599  11.477  18.737  0.00  0.00    +0.000 OA
ATOM      9  N   UNL     1      -0.837  11.856  20.909  0.00  0.00    +0.000 N 
ATOM     10  C   UNL     1      -0.392  11.007  21.894  0.00  0.00    +0.000 C 
ATOM     11  O   UNL     1      -0.335  11.167  23.101  0.00  0.00    +0.000 OA
ENDROOT
BRANCH   1  13
ATOM     12  N   UNL     1       3.094   6.733  18.449  0.00  0.00    +0.000 N 
ATOM     13  C   UNL     1       2.447   7.932  18.208  0.00  0.00    +0.000 C 
ATOM     14  O   UNL     1       2.605   8.703  17.273  0.00  0.00    +0.000 OA
ATOM     15  H   UNL     1       2.822   6.243  19.287  0.00  0.00    +0.000 HD
BRANCH  12  20
ATOM     16  C   UNL     1       6.440   6.383  16.903  0.00  0.00    +0.000 A 
ATOM     17  C   UNL     1       6.397   5.116  16.342  0.00  0.00    +0.000 A 
ATOM     18  C   UNL     1       5.248   4.338  16.444  0.00  0.00    +0.000 A 
ATOM     19  C   UNL     1       4.111   4.817  17.109  0.00  0.00    +0.000 A 
ATOM     20  C   UNL     1       4.138   6.088  17.719  0.00  0.00    +0.000 A 
ATOM     21  C   UNL     1       5.319   6.863  17.588  0.00  0.00    +0.000 A 
BRANCH  16  23
ATOM     22  C   UNL     1       7.921   8.113  17.596  0.00  0.00    +0.000 C 
ATOM     23  O   UNL     1       7.622   7.044  16.715  0.00  0.00    +0.000 OA
ENDBRANCH  16  23
BRANCH  19  24
ATOM     24  O   UNL     1       2.984   4.051  17.192  0.00  0.00    +0.000 OA
ATOM     25  C   UNL     1       2.958   3.007  18.156  0.00  0.00    +0.000 C 
ENDBRANCH  19  24
ENDBRANCH  12  20
ENDBRANCH   1  13
BRANCH   9  26
ATOM     26  C   UNL     1      -1.187  13.260  21.023  0.00  0.00    +0.000 C 
BRANCH  26  27
ATOM     27  C   UNL     1      -2.490  13.539  21.826  0.00  0.00    +0.000 C 
ATOM     28  C   UNL     1      -3.777  12.822  21.439  0.00  0.00    +0.000 C 
ATOM     29  C   UNL     1      -4.815  13.606  22.203  0.00  0.00    +0.000 C 
ATOM     30  C   UNL     1      -4.266  15.019  22.136  0.00  0.00    +0.000 C 
ATOM     31  O   UNL     1      -2.862  14.934  21.806  0.00  0.00    +0.000 OA
ENDBRANCH  26  27
ENDBRANCH   9  26
TORSDOF 6
ENDMDL
