MODEL 1
REMARK VINA RESULT:      -8.8      0.000      0.000
REMARK  Name = 
REMARK  3 active torsions:
REMARK  status: ('A' for Active; 'I' for Inactive)
REMARK    1  A    between atoms: C_1  and  C_2
REMARK    2  A    between atoms: C_5  and  C_6
REMARK    3  A    between atoms: C_16  and  C_17
REMARK                            x       y       z     vdW  Elec       q    Type
REMARK                         _______ _______ _______ _____ _____    ______ ____
ROOT
ATOM      1  C   UNL     1       2.570   5.564  20.365  0.00  0.00    +0.000 C 
ATOM      2  C   UNL     1       3.381   5.206  19.185  0.00  0.00    +0.000 A 
ATOM      3  O   UNL     1       4.622   5.768  19.071  0.00  0.00    +0.000 OA
ATOM      4  C   UNL     1       5.142   5.368  17.867  0.00  0.00    +0.000 A 
ATOM      5  C   UNL     1       6.372   5.757  17.304  0.00  0.00    +0.000 A 
ATOM      6  C   UNL     1       7.375   6.622  18.002  0.00  0.00    +0.000 C 
ATOM      7  C   UNL     1       6.575   5.284  15.988  0.00  0.00    +0.000 A 
ATOM      8  O   UNL     1       7.723   5.737  15.265  0.00  0.00    +0.000 OA
ATOM      9  C   UNL     1       7.945   5.451  13.906  0.00  0.00    +0.000 A 
ATOM     10  O   UNL     1       8.895   5.905  13.280  0.00  0.00    +0.000 OA
ATOM     11  C   UNL     1       6.945   4.567  13.290  0.00  0.00    +0.000 A 
ATOM     12  C   UNL     1       5.913   4.063  13.964  0.00  0.00    +0.000 A 
ATOM     13  C   UNL     1       5.680   4.425  15.339  0.00  0.00    +0.000 A 
ATOM     14  C   UNL     1       4.531   3.992  15.989  0.00  0.00    +0.000 A 
ATOM     15  C   UNL     1       4.233   4.515  17.249  0.00  0.00    +0.000 A 
ATOM     16  C   UNL     1       3.104   4.401  18.098  0.00  0.00    +0.000 A 
ATOM     17  C   UNL     1       1.864   3.634  17.823  0.00  0.00    +0.000 C 
ATOM     18  C   UNL     1       5.015   3.224  13.131  0.00  0.00    +0.000 C 
ATOM     19  C   UNL     1       5.676   3.264  11.755  0.00  0.00    +0.000 C 
ATOM     20  C   UNL     1       6.921   4.162  11.861  0.00  0.00    +0.000 C 
ENDROOT
TORSDOF 0
ENDMDL
MODEL 2
REMARK VINA RESULT:      -7.5      4.337      6.792
REMARK  Name = 
REMARK  3 active torsions:
REMARK  status: ('A' for Active; 'I' for Inactive)
REMARK    1  A    between atoms: C_1  and  C_2
REMARK    2  A    between atoms: C_5  and  C_6
REMARK    3  A    between atoms: C_16  and  C_17
REMARK                            x       y       z     vdW  Elec       q    Type
REMARK                         _______ _______ _______ _____ _____    ______ ____
ROOT
ATOM      1  C   UNL     1      -0.438  11.578  20.959  0.00  0.00    +0.000 C 
ATOM      2  C   UNL     1       0.278  10.299  20.789  0.00  0.00    +0.000 A 
ATOM      3  O   UNL     1       0.971  10.106  19.626  0.00  0.00    +0.000 OA
ATOM      4  C   UNL     1       1.468   8.828  19.654  0.00  0.00    +0.000 A 
ATOM      5  C   UNL     1       2.192   8.178  18.636  0.00  0.00    +0.000 A 
ATOM      6  C   UNL     1       2.624   8.839  17.365  0.00  0.00    +0.000 C 
ATOM      7  C   UNL     1       2.455   6.815  18.902  0.00  0.00    +0.000 A 
ATOM      8  O   UNL     1       3.055   6.020  17.876  0.00  0.00    +0.000 OA
ATOM      9  C   UNL     1       3.225   4.627  17.976  0.00  0.00    +0.000 A 
ATOM     10  O   UNL     1       3.674   3.948  17.062  0.00  0.00    +0.000 OA
ATOM     11  C   UNL     1       2.817   4.046  19.263  0.00  0.00    +0.000 A 
ATOM     12  C   UNL     1       2.334   4.778  20.265  0.00  0.00    +0.000 A 
ATOM     13  C   UNL     1       2.115   6.194  20.110  0.00  0.00    +0.000 A 
ATOM     14  C   UNL     1       1.494   6.918  21.119  0.00  0.00    +0.000 A 
ATOM     15  C   UNL     1       1.118   8.239  20.865  0.00  0.00    +0.000 A 
ATOM     16  C   UNL     1       0.360   9.185  21.600  0.00  0.00    +0.000 A 
ATOM     17  C   UNL     1      -0.267   8.974  22.928  0.00  0.00    +0.000 C 
ATOM     18  C   UNL     1       1.957   3.975  21.457  0.00  0.00    +0.000 C 
ATOM     19  C   UNL     1       2.303   2.547  21.040  0.00  0.00    +0.000 C 
ATOM     20  C   UNL     1       2.841   2.599  19.599  0.00  0.00    +0.000 C 
ENDROOT
TORSDOF 0
ENDMDL
MODEL 3
REMARK VINA RESULT:      -7.4      3.543      7.687
REMARK  Name = 
REMARK  3 active torsions:
REMARK  status: ('A' for Active; 'I' for Inactive)
REMARK    1  A    between atoms: C_1  and  C_2
REMARK    2  A    between atoms: C_5  and  C_6
REMARK    3  A    between atoms: C_16  and  C_17
REMARK                            x       y       z     vdW  Elec       q    Type
REMARK                         _______ _______ _______ _____ _____    ______ ____
ROOT
ATOM      1  C   UNL     1       5.354   3.646  16.415  0.00  0.00    +0.000 C 
ATOM      2  C   UNL     1       4.675   4.749  17.123  0.00  0.00    +0.000 A 
ATOM      3  O   UNL     1       4.072   4.464  18.316  0.00  0.00    +0.000 OA
ATOM      4  C   UNL     1       3.437   5.604  18.735  0.00  0.00    +0.000 A 
ATOM      5  C   UNL     1       2.635   5.755  19.883  0.00  0.00    +0.000 A 
ATOM      6  C   UNL     1       2.427   4.681  20.904  0.00  0.00    +0.000 C 
ATOM      7  C   UNL     1       2.004   7.016  19.979  0.00  0.00    +0.000 A 
ATOM      8  O   UNL     1       1.053   7.229  21.025  0.00  0.00    +0.000 OA
ATOM      9  C   UNL     1       0.260   8.386  21.127  0.00  0.00    +0.000 A 
ATOM     10  O   UNL     1      -0.601   8.526  21.986  0.00  0.00    +0.000 OA
ATOM     11  C   UNL     1       0.540   9.418  20.117  0.00  0.00    +0.000 A 
ATOM     12  C   UNL     1       1.479   9.278  19.184  0.00  0.00    +0.000 A 
ATOM     13  C   UNL     1       2.233   8.056  19.069  0.00  0.00    +0.000 A 
ATOM     14  C   UNL     1       3.119   7.879  18.013  0.00  0.00    +0.000 A 
ATOM     15  C   UNL     1       3.685   6.618  17.815  0.00  0.00    +0.000 A 
ATOM     16  C   UNL     1       4.489   6.073  16.782  0.00  0.00    +0.000 A 
ATOM     17  C   UNL     1       4.956   6.776  15.562  0.00  0.00    +0.000 C 
ATOM     18  C   UNL     1       1.564  10.432  18.252  0.00  0.00    +0.000 C 
ATOM     19  C   UNL     1       0.485  11.380  18.771  0.00  0.00    +0.000 C 
ATOM     20  C   UNL     1      -0.195  10.701  19.973  0.00  0.00    +0.000 C 
ENDROOT
TORSDOF 0
ENDMDL
MODEL 4
REMARK VINA RESULT:      -7.4      4.859      8.296
REMARK  Name = 
REMARK  3 active torsions:
REMARK  status: ('A' for Active; 'I' for Inactive)
REMARK    1  A    between atoms: C_1  and  C_2
REMARK    2  A    between atoms: C_5  and  C_6
REMARK    3  A    between atoms: C_16  and  C_17
REMARK                            x       y       z     vdW  Elec       q    Type
REMARK                         _______ _______ _______ _____ _____    ______ ____
ROOT
ATOM      1  C   UNL     1       4.261   3.060  19.316  0.00  0.00    +0.000 C 
ATOM      2  C   UNL     1       3.410   4.243  19.552  0.00  0.00    +0.000 A 
ATOM      3  O   UNL     1       3.502   5.282  18.668  0.00  0.00    +0.000 OA
ATOM      4  C   UNL     1       2.701   6.290  19.137  0.00  0.00    +0.000 A 
ATOM      5  C   UNL     1       2.538   7.573  18.579  0.00  0.00    +0.000 A 
ATOM      6  C   UNL     1       3.165   8.010  17.293  0.00  0.00    +0.000 C 
ATOM      7  C   UNL     1       1.747   8.442  19.363  0.00  0.00    +0.000 A 
ATOM      8  O   UNL     1       1.635   9.812  18.968  0.00  0.00    +0.000 OA
ATOM      9  C   UNL     1       1.000  10.794  19.749  0.00  0.00    +0.000 A 
ATOM     10  O   UNL     1       0.973  11.977  19.433  0.00  0.00    +0.000 OA
ATOM     11  C   UNL     1       0.371  10.292  20.980  0.00  0.00    +0.000 A 
ATOM     12  C   UNL     1       0.389   9.008  21.328  0.00  0.00    +0.000 A 
ATOM     13  C   UNL     1       1.101   8.036  20.537  0.00  0.00    +0.000 A 
ATOM     14  C   UNL     1       1.215   6.725  20.981  0.00  0.00    +0.000 A 
ATOM     15  C   UNL     1       2.071   5.857  20.300  0.00  0.00    +0.000 A 
ATOM     16  C   UNL     1       2.518   4.537  20.564  0.00  0.00    +0.000 A 
ATOM     17  C   UNL     1       2.150   3.697  21.730  0.00  0.00    +0.000 C 
ATOM     18  C   UNL     1      -0.279   8.737  22.628  0.00  0.00    +0.000 C 
ATOM     19  C   UNL     1      -0.758  10.118  23.068  0.00  0.00    +0.000 C 
ATOM     20  C   UNL     1      -0.309  11.131  22.001  0.00  0.00    +0.000 C 
ENDROOT
TORSDOF 0
ENDMDL
MODEL 5
REMARK VINA RESULT:      -7.2      2.964      5.184
REMARK  Name = 
REMARK  3 active torsions:
REMARK  status: ('A' for Active; 'I' for Inactive)
REMARK    1  A    between atoms: C_1  and  C_2
REMARK    2  A    between atoms: C_5  and  C_6
REMARK    3  A    between atoms: C_16  and  C_17
REMARK                            x       y       z     vdW  Elec       q    Type
REMARK                         _______ _______ _______ _____ _____    ______ ____
ROOT
ATOM      1  C   UNL     1       0.302  10.628  20.692  0.00  0.00    +0.000 C 
ATOM      2  C   UNL     1       1.003   9.549  19.971  0.00  0.00    +0.000 A 
ATOM      3  O   UNL     1       1.031   8.310  20.547  0.00  0.00    +0.000 OA
ATOM      4  C   UNL     1       1.807   7.506  19.753  0.00  0.00    +0.000 A 
ATOM      5  C   UNL     1       2.163   6.165  19.994  0.00  0.00    +0.000 A 
ATOM      6  C   UNL     1       1.653   5.359  21.147  0.00  0.00    +0.000 C 
ATOM      7  C   UNL     1       3.085   5.641  19.060  0.00  0.00    +0.000 A 
ATOM      8  O   UNL     1       3.628   4.338  19.290  0.00  0.00    +0.000 OA
ATOM      9  C   UNL     1       4.659   3.781  18.512  0.00  0.00    +0.000 A 
ATOM     10  O   UNL     1       5.164   2.694  18.762  0.00  0.00    +0.000 OA
ATOM     11  C   UNL     1       5.088   4.606  17.373  0.00  0.00    +0.000 A 
ATOM     12  C   UNL     1       4.539   5.785  17.088  0.00  0.00    +0.000 A 
ATOM     13  C   UNL     1       3.527   6.356  17.940  0.00  0.00    +0.000 A 
ATOM     14  C   UNL     1       3.057   7.641  17.700  0.00  0.00    +0.000 A 
ATOM     15  C   UNL     1       2.228   8.242  18.649  0.00  0.00    +0.000 A 
ATOM     16  C   UNL     1       1.705   9.553  18.782  0.00  0.00    +0.000 A 
ATOM     17  C   UNL     1       1.939  10.694  17.864  0.00  0.00    +0.000 C 
ATOM     18  C   UNL     1       5.153   6.455  15.913  0.00  0.00    +0.000 C 
ATOM     19  C   UNL     1       6.224   5.463  15.465  0.00  0.00    +0.000 C 
ATOM     20  C   UNL     1       6.192   4.270  16.437  0.00  0.00    +0.000 C 
ENDROOT
TORSDOF 0
ENDMDL
MODEL 6
REMARK VINA RESULT:      -7.0      1.030      5.785
REMARK  Name = 
REMARK  3 active torsions:
REMARK  status: ('A' for Active; 'I' for Inactive)
REMARK    1  A    between atoms: C_1  and  C_2
REMARK    2  A    between atoms: C_5  and  C_6
REMARK    3  A    between atoms: C_16  and  C_17
REMARK                            x       y       z     vdW  Elec       q    Type
REMARK                         _______ _______ _______ _____ _____    ______ ____
ROOT
ATOM      1  C   UNL     1       8.363   5.213  12.978  0.00  0.00    +0.000 C 
ATOM      2  C   UNL     1       7.262   5.073  13.951  0.00  0.00    +0.000 A 
ATOM      3  O   UNL     1       7.335   5.802  15.105  0.00  0.00    +0.000 OA
ATOM      4  C   UNL     1       6.265   5.443  15.884  0.00  0.00    +0.000 A 
ATOM      5  C   UNL     1       5.975   5.895  17.185  0.00  0.00    +0.000 A 
ATOM      6  C   UNL     1       6.766   6.943  17.903  0.00  0.00    +0.000 C 
ATOM      7  C   UNL     1       4.874   5.242  17.785  0.00  0.00    +0.000 A 
ATOM      8  O   UNL     1       4.579   5.517  19.157  0.00  0.00    +0.000 OA
ATOM      9  C   UNL     1       3.605   4.818  19.895  0.00  0.00    +0.000 A 
ATOM     10  O   UNL     1       3.411   5.013  21.088  0.00  0.00    +0.000 OA
ATOM     11  C   UNL     1       2.837   3.830  19.122  0.00  0.00    +0.000 A 
ATOM     12  C   UNL     1       3.036   3.616  17.824  0.00  0.00    +0.000 A 
ATOM     13  C   UNL     1       4.082   4.304  17.111  0.00  0.00    +0.000 A 
ATOM     14  C   UNL     1       4.358   3.978  15.790  0.00  0.00    +0.000 A 
ATOM     15  C   UNL     1       5.498   4.515  15.188  0.00  0.00    +0.000 A 
ATOM     16  C   UNL     1       6.131   4.282  13.941  0.00  0.00    +0.000 A 
ATOM     17  C   UNL     1       5.694   3.328  12.893  0.00  0.00    +0.000 C 
ATOM     18  C   UNL     1       2.169   2.549  17.260  0.00  0.00    +0.000 C 
ATOM     19  C   UNL     1       1.338   2.103  18.461  0.00  0.00    +0.000 C 
ATOM     20  C   UNL     1       1.797   2.926  19.678  0.00  0.00    +0.000 C 
ENDROOT
TORSDOF 0
ENDMDL
MODEL 7
REMARK VINA RESULT:      -7.0      3.960      6.323
REMARK  Name = 
REMARK  3 active torsions:
REMARK  status: ('A' for Active; 'I' for Inactive)
REMARK    1  A    between atoms: C_1  and  C_2
REMARK    2  A    between atoms: C_5  and  C_6
REMARK    3  A    between atoms: C_16  and  C_17
REMARK                            x       y       z     vdW  Elec       q    Type
REMARK                         _______ _______ _______ _____ _____    ______ ____
ROOT
ATOM      1  C   UNL     1       1.147  11.508  18.425  0.00  0.00    +0.000 C 
ATOM      2  C   UNL     1       1.551  10.123  18.734  0.00  0.00    +0.000 A 
ATOM      3  O   UNL     1       2.431   9.511  17.886  0.00  0.00    +0.000 OA
ATOM      4  C   UNL     1       2.583   8.218  18.316  0.00  0.00    +0.000 A 
ATOM      5  C   UNL     1       3.348   7.206  17.706  0.00  0.00    +0.000 A 
ATOM      6  C   UNL     1       4.215   7.422  16.505  0.00  0.00    +0.000 C 
ATOM      7  C   UNL     1       3.202   5.936  18.309  0.00  0.00    +0.000 A 
ATOM      8  O   UNL     1       3.817   4.806  17.685  0.00  0.00    +0.000 OA
ATOM      9  C   UNL     1       3.615   3.481  18.111  0.00  0.00    +0.000 A 
ATOM     10  O   UNL     1       4.090   2.516  17.525  0.00  0.00    +0.000 OA
ATOM     11  C   UNL     1       2.786   3.340  19.317  0.00  0.00    +0.000 A 
ATOM     12  C   UNL     1       2.272   4.383  19.966  0.00  0.00    +0.000 A 
ATOM     13  C   UNL     1       2.446   5.724  19.468  0.00  0.00    +0.000 A 
ATOM     14  C   UNL     1       1.798   6.787  20.085  0.00  0.00    +0.000 A 
ATOM     15  C   UNL     1       1.824   8.039  19.468  0.00  0.00    +0.000 A 
ATOM     16  C   UNL     1       1.166   9.264  19.745  0.00  0.00    +0.000 A 
ATOM     17  C   UNL     1       0.211   9.525  20.850  0.00  0.00    +0.000 C 
ATOM     18  C   UNL     1       1.440   4.001  21.136  0.00  0.00    +0.000 C 
ATOM     19  C   UNL     1       1.519   2.476  21.138  0.00  0.00    +0.000 C 
ATOM     20  C   UNL     1       2.379   2.051  19.934  0.00  0.00    +0.000 C 
ENDROOT
TORSDOF 0
ENDMDL
MODEL 8
REMARK VINA RESULT:      -6.8      3.632      7.116
REMARK  Name = 
REMARK  3 active torsions:
REMARK  status: ('A' for Active; 'I' for Inactive)
REMARK    1  A    between atoms: C_1  and  C_2
REMARK    2  A    between atoms: C_5  and  C_6
REMARK    3  A    between atoms: C_16  and  C_17
REMARK                            x       y       z     vdW  Elec       q    Type
REMARK                         _______ _______ _______ _____ _____    ______ ____
ROOT
ATOM      1  C   UNL     1       4.198   1.185  17.600  0.00  0.00    +0.000 C 
ATOM      2  C   UNL     1       3.881   2.563  18.024  0.00  0.00    +0.000 A 
ATOM      3  O   UNL     1       3.306   2.735  19.251  0.00  0.00    +0.000 OA
ATOM      4  C   UNL     1       3.020   4.070  19.386  0.00  0.00    +0.000 A 
ATOM      5  C   UNL     1       2.365   4.692  20.465  0.00  0.00    +0.000 A 
ATOM      6  C   UNL     1       1.951   3.980  21.715  0.00  0.00    +0.000 C 
ATOM      7  C   UNL     1       2.093   6.063  20.257  0.00  0.00    +0.000 A 
ATOM      8  O   UNL     1       1.304   6.761  21.223  0.00  0.00    +0.000 OA
ATOM      9  C   UNL     1       0.849   8.080  21.046  0.00  0.00    +0.000 A 
ATOM     10  O   UNL     1       0.114   8.641  21.848  0.00  0.00    +0.000 OA
ATOM     11  C   UNL     1       1.322   8.736  19.817  0.00  0.00    +0.000 A 
ATOM     12  C   UNL     1       2.127   8.136  18.943  0.00  0.00    +0.000 A 
ATOM     13  C   UNL     1       2.525   6.763  19.123  0.00  0.00    +0.000 A 
ATOM     14  C   UNL     1       3.261   6.115  18.139  0.00  0.00    +0.000 A 
ATOM     15  C   UNL     1       3.463   4.737  18.248  0.00  0.00    +0.000 A 
ATOM     16  C   UNL     1       4.025   3.773  17.375  0.00  0.00    +0.000 A 
ATOM     17  C   UNL     1       4.577   4.022  16.021  0.00  0.00    +0.000 C 
ATOM     18  C   UNL     1       2.448   8.976  17.760  0.00  0.00    +0.000 C 
ATOM     19  C   UNL     1       1.693  10.274  18.039  0.00  0.00    +0.000 C 
ATOM     20  C   UNL     1       0.941  10.100  19.370  0.00  0.00    +0.000 C 
ENDROOT
TORSDOF 0
ENDMDL
MODEL 9
REMARK VINA RESULT:      -6.7      2.959      5.096
REMARK  Name = 
REMARK  3 active torsions:
REMARK  status: ('A' for Active; 'I' for Inactive)
REMARK    1  A    between atoms: C_1  and  C_2
REMARK    2  A    between atoms: C_5  and  C_6
REMARK    3  A    between atoms: C_16  and  C_17
REMARK                            x       y       z     vdW  Elec       q    Type
REMARK                         _______ _______ _______ _____ _____    ______ ____
ROOT
ATOM      1  C   UNL     1       0.373   9.325  22.088  0.00  0.00    +0.000 C 
ATOM      2  C   UNL     1       0.969   8.459  21.052  0.00  0.00    +0.000 A 
ATOM      3  O   UNL     1       0.927   7.107  21.248  0.00  0.00    +0.000 OA
ATOM      4  C   UNL     1       1.614   6.522  20.217  0.00  0.00    +0.000 A 
ATOM      5  C   UNL     1       1.880   5.150  20.046  0.00  0.00    +0.000 A 
ATOM      6  C   UNL     1       1.352   4.077  20.947  0.00  0.00    +0.000 C 
ATOM      7  C   UNL     1       2.729   4.862  18.953  0.00  0.00    +0.000 A 
ATOM      8  O   UNL     1       3.183   3.519  18.773  0.00  0.00    +0.000 OA
ATOM      9  C   UNL     1       4.143   3.148  17.814  0.00  0.00    +0.000 A 
ATOM     10  O   UNL     1       4.577   2.008  17.716  0.00  0.00    +0.000 OA
ATOM     11  C   UNL     1       4.592   4.240  16.936  0.00  0.00    +0.000 A 
ATOM     12  C   UNL     1       4.121   5.481  17.029  0.00  0.00    +0.000 A 
ATOM     13  C   UNL     1       3.183   5.842  18.062  0.00  0.00    +0.000 A 
ATOM     14  C   UNL     1       2.799   7.167  18.224  0.00  0.00    +0.000 A 
ATOM     15  C   UNL     1       2.049   7.518  19.348  0.00  0.00    +0.000 A 
ATOM     16  C   UNL     1       1.628   8.764  19.877  0.00  0.00    +0.000 A 
ATOM     17  C   UNL     1       1.913  10.105  19.311  0.00  0.00    +0.000 C 
ATOM     18  C   UNL     1       4.741   6.424  16.063  0.00  0.00    +0.000 C 
ATOM     19  C   UNL     1       5.721   5.541  15.293  0.00  0.00    +0.000 C 
ATOM     20  C   UNL     1       5.636   4.123  15.885  0.00  0.00    +0.000 C 
ENDROOT
TORSDOF 0
ENDMDL
