MODEL 1
REMARK VINA RESULT:      -6.6      0.000      0.000
REMARK  Name = 
REMARK  4 active torsions:
REMARK  status: ('A' for Active; 'I' for Inactive)
REMARK    1  A    between atoms: C_1  and  N_2
REMARK    2  A    between atoms: C_8  and  C_10
REMARK    3  A    between atoms: C_15  and  O_16
REMARK    4  A    between atoms: C_20  and  C_21
REMARK                            x       y       z     vdW  Elec       q    Type
REMARK                         _______ _______ _______ _____ _____    ______ ____
ROOT
ATOM      1  C   UNL     1       8.871  16.451  17.833  0.00  0.00    +0.000 C 
ATOM      2  N   UNL     1       9.441  15.760  18.974  0.00  0.00    +0.000 N 
ATOM      3  C   UNL     1       8.997  16.138  20.306  0.00  0.00    +0.000 C 
ATOM      4  C   UNL     1       9.125  14.975  21.311  0.00  0.00    +0.000 C 
ATOM      5  C   UNL     1       8.845  15.500  22.741  0.00  0.00    +0.000 C 
ATOM      6  C   UNL     1       8.697  14.388  23.787  0.00  0.00    +0.000 C 
ATOM      7  N   UNL     1       7.830  13.279  23.361  0.00  0.00    +0.000 N 
ATOM      8  C   UNL     1       6.979  12.502  24.163  0.00  0.00    +0.000 C 
ATOM      9  O   UNL     1       6.470  11.456  23.756  0.00  0.00    +0.000 OA
ATOM     10  C   UNL     1       8.072  12.782  22.015  0.00  0.00    +0.000 C 
ATOM     11  C   UNL     1       8.024  13.936  21.027  0.00  0.00    +0.000 C 
ATOM     12  C   UNL     1      10.578  14.435  21.205  0.00  0.00    +0.000 C 
ATOM     13  C   UNL     1      11.010  14.036  19.774  0.00  0.00    +0.000 C 
ATOM     14  C   UNL     1      10.699  15.185  18.815  0.00  0.00    +0.000 C 
ATOM     15  O   UNL     1      11.430  15.434  17.844  0.00  0.00    +0.000 OA
ENDROOT
BRANCH   8  16
ATOM     16  C   UNL     1       6.648  12.930  25.544  0.00  0.00    +0.000 A 
ATOM     17  C   UNL     1       7.352  12.409  26.636  0.00  0.00    +0.000 A 
ATOM     18  C   UNL     1       7.098  12.874  27.925  0.00  0.00    +0.000 A 
ATOM     19  C   UNL     1       6.071  13.787  28.145  0.00  0.00    +0.000 A 
ATOM     20  C   UNL     1       5.290  14.234  27.079  0.00  0.00    +0.000 A 
ATOM     21  C   UNL     1       5.584  13.814  25.781  0.00  0.00    +0.000 A 
BRANCH  21  22
ATOM     22  O   UNL     1       4.833  14.310  24.751  0.00  0.00    +0.000 OA
ATOM     23  H   UNL     1       4.860  15.279  24.776  0.00  0.00    +0.000 HD
ENDBRANCH  21  22
ENDBRANCH   8  16
BRANCH  13  24
ATOM     24  C   UNL     1      10.412  12.708  19.278  0.00  0.00    +0.000 A 
ATOM     25  C   UNL     1       9.602  12.648  18.129  0.00  0.00    +0.000 A 
ATOM     26  C   UNL     1       8.856  11.512  17.825  0.00  0.00    +0.000 A 
ATOM     27  C   UNL     1       8.958  10.387  18.628  0.00  0.00    +0.000 A 
ATOM     28  C   UNL     1       9.850  10.381  19.700  0.00  0.00    +0.000 A 
ATOM     29  C   UNL     1      10.587  11.528  20.014  0.00  0.00    +0.000 A 
ENDBRANCH  13  24
TORSDOF 3
ENDMDL
MODEL 2
REMARK VINA RESULT:      -6.3      0.844      1.346
REMARK  Name = 
REMARK  4 active torsions:
REMARK  status: ('A' for Active; 'I' for Inactive)
REMARK    1  A    between atoms: C_1  and  N_2
REMARK    2  A    between atoms: C_8  and  C_10
REMARK    3  A    between atoms: C_15  and  O_16
REMARK    4  A    between atoms: C_20  and  C_21
REMARK                            x       y       z     vdW  Elec       q    Type
REMARK                         _______ _______ _______ _____ _____    ______ ____
ROOT
ATOM      1  C   UNL     1       9.455  16.391  17.453  0.00  0.00    +0.000 C 
ATOM      2  N   UNL     1       9.896  15.745  18.675  0.00  0.00    +0.000 N 
ATOM      3  C   UNL     1       9.419  16.266  19.946  0.00  0.00    +0.000 C 
ATOM      4  C   UNL     1       9.383  15.181  21.041  0.00  0.00    +0.000 C 
ATOM      5  C   UNL     1       9.078  15.842  22.408  0.00  0.00    +0.000 C 
ATOM      6  C   UNL     1       8.770  14.834  23.524  0.00  0.00    +0.000 C 
ATOM      7  N   UNL     1       7.827  13.777  23.130  0.00  0.00    +0.000 N 
ATOM      8  C   UNL     1       6.865  13.146  23.934  0.00  0.00    +0.000 C 
ATOM      9  O   UNL     1       6.282  12.121  23.576  0.00  0.00    +0.000 OA
ATOM     10  C   UNL     1       8.092  13.154  21.841  0.00  0.00    +0.000 C 
ATOM     11  C   UNL     1       8.206  14.225  20.769  0.00  0.00    +0.000 C 
ATOM     12  C   UNL     1      10.783  14.506  21.063  0.00  0.00    +0.000 C 
ATOM     13  C   UNL     1      11.251  13.956  19.695  0.00  0.00    +0.000 C 
ATOM     14  C   UNL     1      11.101  15.048  18.636  0.00  0.00    +0.000 C 
ATOM     15  O   UNL     1      11.903  15.152  17.696  0.00  0.00    +0.000 OA
ENDROOT
BRANCH   8  16
ATOM     16  C   UNL     1       6.502  13.712  25.257  0.00  0.00    +0.000 A 
ATOM     17  C   UNL     1       5.565  14.747  25.351  0.00  0.00    +0.000 A 
ATOM     18  C   UNL     1       5.162  15.221  26.599  0.00  0.00    +0.000 A 
ATOM     19  C   UNL     1       5.764  14.735  27.755  0.00  0.00    +0.000 A 
ATOM     20  C   UNL     1       6.776  13.778  27.669  0.00  0.00    +0.000 A 
ATOM     21  C   UNL     1       7.137  13.261  26.424  0.00  0.00    +0.000 A 
BRANCH  21  22
ATOM     22  O   UNL     1       8.097  12.288  26.376  0.00  0.00    +0.000 OA
ATOM     23  H   UNL     1       8.277  12.065  25.450  0.00  0.00    +0.000 HD
ENDBRANCH  21  22
ENDBRANCH   8  16
BRANCH  13  24
ATOM     24  C   UNL     1      10.558  12.652  19.264  0.00  0.00    +0.000 A 
ATOM     25  C   UNL     1       9.780  12.583  18.094  0.00  0.00    +0.000 A 
ATOM     26  C   UNL     1       8.950  11.494  17.837  0.00  0.00    +0.000 A 
ATOM     27  C   UNL     1       8.933  10.421  18.714  0.00  0.00    +0.000 A 
ATOM     28  C   UNL     1       9.789  10.413  19.814  0.00  0.00    +0.000 A 
ATOM     29  C   UNL     1      10.611  11.513  20.080  0.00  0.00    +0.000 A 
ENDBRANCH  13  24
TORSDOF 3
ENDMDL
MODEL 3
REMARK VINA RESULT:      -6.3      1.060      1.712
REMARK  Name = 
REMARK  4 active torsions:
REMARK  status: ('A' for Active; 'I' for Inactive)
REMARK    1  A    between atoms: C_1  and  N_2
REMARK    2  A    between atoms: C_8  and  C_10
REMARK    3  A    between atoms: C_15  and  O_16
REMARK    4  A    between atoms: C_20  and  C_21
REMARK                            x       y       z     vdW  Elec       q    Type
REMARK                         _______ _______ _______ _____ _____    ______ ____
ROOT
ATOM      1  C   UNL     1       8.851  16.916  18.697  0.00  0.00    +0.000 C 
ATOM      2  N   UNL     1       9.264  16.059  19.792  0.00  0.00    +0.000 N 
ATOM      3  C   UNL     1       8.757  16.342  21.125  0.00  0.00    +0.000 C 
ATOM      4  C   UNL     1       8.698  15.076  22.003  0.00  0.00    +0.000 C 
ATOM      5  C   UNL     1       8.359  15.478  23.460  0.00  0.00    +0.000 C 
ATOM      6  C   UNL     1       8.028  14.286  24.367  0.00  0.00    +0.000 C 
ATOM      7  N   UNL     1       7.097  13.319  23.766  0.00  0.00    +0.000 N 
ATOM      8  C   UNL     1       6.118  12.555  24.420  0.00  0.00    +0.000 C 
ATOM      9  O   UNL     1       5.546  11.612  23.869  0.00  0.00    +0.000 OA
ATOM     10  C   UNL     1       7.394  12.940  22.393  0.00  0.00    +0.000 C 
ATOM     11  C   UNL     1       7.530  14.188  21.535  0.00  0.00    +0.000 C 
ATOM     12  C   UNL     1      10.098  14.405  21.936  0.00  0.00    +0.000 C 
ATOM     13  C   UNL     1      10.600  14.112  20.502  0.00  0.00    +0.000 C 
ATOM     14  C   UNL     1      10.472  15.378  19.655  0.00  0.00    +0.000 C 
ATOM     15  O   UNL     1      11.295  15.650  18.768  0.00  0.00    +0.000 OA
ENDROOT
BRANCH   8  16
ATOM     16  C   UNL     1       5.723  12.872  25.815  0.00  0.00    +0.000 A 
ATOM     17  C   UNL     1       5.380  14.181  26.173  0.00  0.00    +0.000 A 
ATOM     18  C   UNL     1       4.929  14.463  27.462  0.00  0.00    +0.000 A 
ATOM     19  C   UNL     1       4.912  13.461  28.427  0.00  0.00    +0.000 A 
ATOM     20  C   UNL     1       5.352  12.175  28.111  0.00  0.00    +0.000 A 
ATOM     21  C   UNL     1       5.748  11.879  26.806  0.00  0.00    +0.000 A 
BRANCH  21  22
ATOM     22  O   UNL     1       6.125  10.597  26.515  0.00  0.00    +0.000 OA
ATOM     23  H   UNL     1       5.635   9.985  27.085  0.00  0.00    +0.000 HD
ENDBRANCH  21  22
ENDBRANCH   8  16
BRANCH  13  24
ATOM     24  C   UNL     1       9.920  12.909  19.825  0.00  0.00    +0.000 A 
ATOM     25  C   UNL     1       9.981  11.619  20.384  0.00  0.00    +0.000 A 
ATOM     26  C   UNL     1       9.596  10.495  19.657  0.00  0.00    +0.000 A 
ATOM     27  C   UNL     1       9.079  10.646  18.379  0.00  0.00    +0.000 A 
ATOM     28  C   UNL     1       8.893  11.924  17.855  0.00  0.00    +0.000 A 
ATOM     29  C   UNL     1       9.295  13.052  18.579  0.00  0.00    +0.000 A 
ENDBRANCH  13  24
TORSDOF 3
ENDMDL
MODEL 4
REMARK VINA RESULT:      -6.3      1.383      1.505
REMARK  Name = 
REMARK  4 active torsions:
REMARK  status: ('A' for Active; 'I' for Inactive)
REMARK    1  A    between atoms: C_1  and  N_2
REMARK    2  A    between atoms: C_8  and  C_10
REMARK    3  A    between atoms: C_15  and  O_16
REMARK    4  A    between atoms: C_20  and  C_21
REMARK                            x       y       z     vdW  Elec       q    Type
REMARK                         _______ _______ _______ _____ _____    ______ ____
ROOT
ATOM      1  C   UNL     1       8.438  17.222  18.149  0.00  0.00    +0.000 C 
ATOM      2  N   UNL     1       9.175  16.660  19.265  0.00  0.00    +0.000 N 
ATOM      3  C   UNL     1       8.567  16.693  20.585  0.00  0.00    +0.000 C 
ATOM      4  C   UNL     1       9.075  15.549  21.486  0.00  0.00    +0.000 C 
ATOM      5  C   UNL     1       8.559  15.767  22.930  0.00  0.00    +0.000 C 
ATOM      6  C   UNL     1       8.791  14.564  23.855  0.00  0.00    +0.000 C 
ATOM      7  N   UNL     1       8.417  13.273  23.259  0.00  0.00    +0.000 N 
ATOM      8  C   UNL     1       7.882  12.152  23.913  0.00  0.00    +0.000 C 
ATOM      9  O   UNL     1       7.815  11.047  23.372  0.00  0.00    +0.000 OA
ATOM     10  C   UNL     1       8.883  13.058  21.897  0.00  0.00    +0.000 C 
ATOM     11  C   UNL     1       8.452  14.221  21.018  0.00  0.00    +0.000 C 
ATOM     12  C   UNL     1      10.628  15.592  21.450  0.00  0.00    +0.000 C 
ATOM     13  C   UNL     1      11.237  15.546  20.029  0.00  0.00    +0.000 C 
ATOM     14  C   UNL     1      10.562  16.605  19.157  0.00  0.00    +0.000 C 
ATOM     15  O   UNL     1      11.189  17.214  18.277  0.00  0.00    +0.000 OA
ENDROOT
BRANCH   8  16
ATOM     16  C   UNL     1       7.357  12.267  25.296  0.00  0.00    +0.000 A 
ATOM     17  C   UNL     1       8.134  12.855  26.302  0.00  0.00    +0.000 A 
ATOM     18  C   UNL     1       7.609  13.040  27.580  0.00  0.00    +0.000 A 
ATOM     19  C   UNL     1       6.345  12.548  27.890  0.00  0.00    +0.000 A 
ATOM     20  C   UNL     1       5.602  11.866  26.926  0.00  0.00    +0.000 A 
ATOM     21  C   UNL     1       6.104  11.734  25.630  0.00  0.00    +0.000 A 
BRANCH  21  22
ATOM     22  O   UNL     1       5.330  11.105  24.694  0.00  0.00    +0.000 OA
ATOM     23  H   UNL     1       5.891  10.518  24.162  0.00  0.00    +0.000 HD
ENDBRANCH  21  22
ENDBRANCH   8  16
BRANCH  13  24
ATOM     24  C   UNL     1      11.196  14.159  19.365  0.00  0.00    +0.000 A 
ATOM     25  C   UNL     1      10.459  13.925  18.190  0.00  0.00    +0.000 A 
ATOM     26  C   UNL     1      10.210  12.633  17.734  0.00  0.00    +0.000 A 
ATOM     27  C   UNL     1      10.751  11.549  18.408  0.00  0.00    +0.000 A 
ATOM     28  C   UNL     1      11.589  11.764  19.502  0.00  0.00    +0.000 A 
ATOM     29  C   UNL     1      11.826  13.061  19.969  0.00  0.00    +0.000 A 
ENDBRANCH  13  24
TORSDOF 3
ENDMDL
MODEL 5
REMARK VINA RESULT:      -6.2      7.898     10.382
REMARK  Name = 
REMARK  4 active torsions:
REMARK  status: ('A' for Active; 'I' for Inactive)
REMARK    1  A    between atoms: C_1  and  N_2
REMARK    2  A    between atoms: C_8  and  C_10
REMARK    3  A    between atoms: C_15  and  O_16
REMARK    4  A    between atoms: C_20  and  C_21
REMARK                            x       y       z     vdW  Elec       q    Type
REMARK                         _______ _______ _______ _____ _____    ______ ____
ROOT
ATOM      1  C   UNL     1       2.216  15.801  19.576  0.00  0.00    +0.000 C 
ATOM      2  N   UNL     1       1.411  14.664  19.171  0.00  0.00    +0.000 N 
ATOM      3  C   UNL     1       2.070  13.546  18.514  0.00  0.00    +0.000 C 
ATOM      4  C   UNL     1       1.320  12.218  18.740  0.00  0.00    +0.000 C 
ATOM      5  C   UNL     1       1.945  11.118  17.846  0.00  0.00    +0.000 C 
ATOM      6  C   UNL     1       1.447   9.704  18.170  0.00  0.00    +0.000 C 
ATOM      7  N   UNL     1       1.433   9.390  19.607  0.00  0.00    +0.000 N 
ATOM      8  C   UNL     1       1.681   8.149  20.214  0.00  0.00    +0.000 C 
ATOM      9  O   UNL     1       1.424   7.937  21.401  0.00  0.00    +0.000 OA
ATOM     10  C   UNL     1       0.861  10.419  20.463  0.00  0.00    +0.000 C 
ATOM     11  C   UNL     1       1.543  11.750  20.191  0.00  0.00    +0.000 C 
ATOM     12  C   UNL     1      -0.165  12.457  18.350  0.00  0.00    +0.000 C 
ATOM     13  C   UNL     1      -0.833  13.649  19.076  0.00  0.00    +0.000 C 
ATOM     14  C   UNL     1       0.056  14.885  18.939  0.00  0.00    +0.000 C 
ATOM     15  O   UNL     1      -0.428  16.022  18.837  0.00  0.00    +0.000 OA
ENDROOT
BRANCH   8  16
ATOM     16  C   UNL     1       2.285   7.039  19.437  0.00  0.00    +0.000 A 
ATOM     17  C   UNL     1       3.094   7.309  18.328  0.00  0.00    +0.000 A 
ATOM     18  C   UNL     1       3.729   6.270  17.649  0.00  0.00    +0.000 A 
ATOM     19  C   UNL     1       3.480   4.949  18.010  0.00  0.00    +0.000 A 
ATOM     20  C   UNL     1       2.592   4.662  19.047  0.00  0.00    +0.000 A 
ATOM     21  C   UNL     1       2.003   5.704  19.764  0.00  0.00    +0.000 A 
BRANCH  21  22
ATOM     22  O   UNL     1       1.176   5.390  20.808  0.00  0.00    +0.000 OA
ATOM     23  H   UNL     1       0.596   4.659  20.545  0.00  0.00    +0.000 HD
ENDBRANCH  21  22
ENDBRANCH   8  16
BRANCH  13  24
ATOM     24  C   UNL     1      -1.197  13.375  20.546  0.00  0.00    +0.000 A 
ATOM     25  C   UNL     1      -0.628  14.118  21.597  0.00  0.00    +0.000 A 
ATOM     26  C   UNL     1      -0.751  13.711  22.923  0.00  0.00    +0.000 A 
ATOM     27  C   UNL     1      -1.504  12.588  23.231  0.00  0.00    +0.000 A 
ATOM     28  C   UNL     1      -2.179  11.909  22.218  0.00  0.00    +0.000 A 
ATOM     29  C   UNL     1      -2.042  12.309  20.884  0.00  0.00    +0.000 A 
ENDBRANCH  13  24
TORSDOF 3
ENDMDL
MODEL 6
REMARK VINA RESULT:      -5.9      7.200      9.351
REMARK  Name = 
REMARK  4 active torsions:
REMARK  status: ('A' for Active; 'I' for Inactive)
REMARK    1  A    between atoms: C_1  and  N_2
REMARK    2  A    between atoms: C_8  and  C_10
REMARK    3  A    between atoms: C_15  and  O_16
REMARK    4  A    between atoms: C_20  and  C_21
REMARK                            x       y       z     vdW  Elec       q    Type
REMARK                         _______ _______ _______ _____ _____    ______ ____
ROOT
ATOM      1  C   UNL     1      -3.273  12.132  18.974  0.00  0.00    +0.000 C 
ATOM      2  N   UNL     1      -1.856  11.854  18.827  0.00  0.00    +0.000 N 
ATOM      3  C   UNL     1      -0.971  12.943  18.445  0.00  0.00    +0.000 C 
ATOM      4  C   UNL     1       0.467  12.727  18.956  0.00  0.00    +0.000 C 
ATOM      5  C   UNL     1       1.397  13.800  18.338  0.00  0.00    +0.000 C 
ATOM      6  C   UNL     1       2.796  13.839  18.967  0.00  0.00    +0.000 C 
ATOM      7  N   UNL     1       2.791  13.807  20.437  0.00  0.00    +0.000 N 
ATOM      8  C   UNL     1       3.688  14.443  21.310  0.00  0.00    +0.000 C 
ATOM      9  O   UNL     1       3.736  14.172  22.511  0.00  0.00    +0.000 OA
ATOM     10  C   UNL     1       1.912  12.813  21.035  0.00  0.00    +0.000 C 
ATOM     11  C   UNL     1       0.507  12.970  20.477  0.00  0.00    +0.000 C 
ATOM     12  C   UNL     1       0.905  11.305  18.508  0.00  0.00    +0.000 C 
ATOM     13  C   UNL     1      -0.057  10.173  18.941  0.00  0.00    +0.000 C 
ATOM     14  C   UNL     1      -1.484  10.544  18.539  0.00  0.00    +0.000 C 
ATOM     15  O   UNL     1      -2.300   9.681  18.179  0.00  0.00    +0.000 OA
ENDROOT
BRANCH   8  16
ATOM     16  C   UNL     1       4.612  15.489  20.808  0.00  0.00    +0.000 A 
ATOM     17  C   UNL     1       5.825  15.134  20.207  0.00  0.00    +0.000 A 
ATOM     18  C   UNL     1       6.654  16.112  19.660  0.00  0.00    +0.000 A 
ATOM     19  C   UNL     1       6.326  17.458  19.799  0.00  0.00    +0.000 A 
ATOM     20  C   UNL     1       5.173  17.831  20.490  0.00  0.00    +0.000 A 
ATOM     21  C   UNL     1       4.314  16.848  20.985  0.00  0.00    +0.000 A 
BRANCH  21  22
ATOM     22  O   UNL     1       3.165  17.245  21.613  0.00  0.00    +0.000 OA
ATOM     23  H   UNL     1       3.203  16.976  22.544  0.00  0.00    +0.000 HD
ENDBRANCH  21  22
ENDBRANCH   8  16
BRANCH  13  24
ATOM     24  C   UNL     1       0.031   9.801  20.432  0.00  0.00    +0.000 A 
ATOM     25  C   UNL     1      -0.938  10.230  21.357  0.00  0.00    +0.000 A 
ATOM     26  C   UNL     1      -0.731  10.118  22.730  0.00  0.00    +0.000 A 
ATOM     27  C   UNL     1       0.421   9.511  23.204  0.00  0.00    +0.000 A 
ATOM     28  C   UNL     1       1.337   8.966  22.305  0.00  0.00    +0.000 A 
ATOM     29  C   UNL     1       1.136   9.093  20.926  0.00  0.00    +0.000 A 
ENDBRANCH  13  24
TORSDOF 3
ENDMDL
MODEL 7
REMARK VINA RESULT:      -5.9      4.147      5.680
REMARK  Name = 
REMARK  4 active torsions:
REMARK  status: ('A' for Active; 'I' for Inactive)
REMARK    1  A    between atoms: C_1  and  N_2
REMARK    2  A    between atoms: C_8  and  C_10
REMARK    3  A    between atoms: C_15  and  O_16
REMARK    4  A    between atoms: C_20  and  C_21
REMARK                            x       y       z     vdW  Elec       q    Type
REMARK                         _______ _______ _______ _____ _____    ______ ____
ROOT
ATOM      1  C   UNL     1      11.657  17.225  17.505  0.00  0.00    +0.000 C 
ATOM      2  N   UNL     1      10.671  16.829  18.492  0.00  0.00    +0.000 N 
ATOM      3  C   UNL     1       9.394  17.525  18.516  0.00  0.00    +0.000 C 
ATOM      4  C   UNL     1       8.264  16.643  19.081  0.00  0.00    +0.000 C 
ATOM      5  C   UNL     1       6.992  17.504  19.280  0.00  0.00    +0.000 C 
ATOM      6  C   UNL     1       5.735  16.683  19.598  0.00  0.00    +0.000 C 
ATOM      7  N   UNL     1       5.552  15.511  18.729  0.00  0.00    +0.000 N 
ATOM      8  C   UNL     1       4.341  14.962  18.279  0.00  0.00    +0.000 C 
ATOM      9  O   UNL     1       4.284  13.853  17.744  0.00  0.00    +0.000 OA
ATOM     10  C   UNL     1       6.741  14.698  18.522  0.00  0.00    +0.000 C 
ATOM     11  C   UNL     1       7.884  15.575  18.038  0.00  0.00    +0.000 C 
ATOM     12  C   UNL     1       8.758  16.080  20.443  0.00  0.00    +0.000 C 
ATOM     13  C   UNL     1      10.114  15.339  20.376  0.00  0.00    +0.000 C 
ATOM     14  C   UNL     1      11.135  16.221  19.656  0.00  0.00    +0.000 C 
ATOM     15  O   UNL     1      12.332  16.219  19.978  0.00  0.00    +0.000 OA
ENDROOT
BRANCH   8  16
ATOM     16  C   UNL     1       3.073  15.718  18.420  0.00  0.00    +0.000 A 
ATOM     17  C   UNL     1       2.806  16.814  17.591  0.00  0.00    +0.000 A 
ATOM     18  C   UNL     1       1.579  17.472  17.667  0.00  0.00    +0.000 A 
ATOM     19  C   UNL     1       0.652  17.105  18.638  0.00  0.00    +0.000 A 
ATOM     20  C   UNL     1       0.949  16.083  19.540  0.00  0.00    +0.000 A 
ATOM     21  C   UNL     1       2.152  15.386  19.425  0.00  0.00    +0.000 A 
BRANCH  21  22
ATOM     22  O   UNL     1       2.393  14.356  20.292  0.00  0.00    +0.000 OA
ATOM     23  H   UNL     1       3.266  13.979  20.103  0.00  0.00    +0.000 HD
ENDBRANCH  21  22
ENDBRANCH   8  16
BRANCH  13  24
ATOM     24  C   UNL     1      10.040  13.936  19.750  0.00  0.00    +0.000 A 
ATOM     25  C   UNL     1      10.564  13.670  18.471  0.00  0.00    +0.000 A 
ATOM     26  C   UNL     1      10.275  12.484  17.800  0.00  0.00    +0.000 A 
ATOM     27  C   UNL     1       9.511  11.510  18.424  0.00  0.00    +0.000 A 
ATOM     28  C   UNL     1       9.087  11.699  19.738  0.00  0.00    +0.000 A 
ATOM     29  C   UNL     1       9.364  12.898  20.405  0.00  0.00    +0.000 A 
ENDBRANCH  13  24
TORSDOF 3
ENDMDL
MODEL 8
REMARK VINA RESULT:      -5.9      9.074     11.869
REMARK  Name = 
REMARK  4 active torsions:
REMARK  status: ('A' for Active; 'I' for Inactive)
REMARK    1  A    between atoms: C_1  and  N_2
REMARK    2  A    between atoms: C_8  and  C_10
REMARK    3  A    between atoms: C_15  and  O_16
REMARK    4  A    between atoms: C_20  and  C_21
REMARK                            x       y       z     vdW  Elec       q    Type
REMARK                         _______ _______ _______ _____ _____    ______ ____
ROOT
ATOM      1  C   UNL     1      -5.568  14.004  23.351  0.00  0.00    +0.000 C 
ATOM      2  N   UNL     1      -4.120  13.925  23.313  0.00  0.00    +0.000 N 
ATOM      3  C   UNL     1      -3.497  12.611  23.314  0.00  0.00    +0.000 C 
ATOM      4  C   UNL     1      -2.118  12.623  22.625  0.00  0.00    +0.000 C 
ATOM      5  C   UNL     1      -1.421  11.258  22.849  0.00  0.00    +0.000 C 
ATOM      6  C   UNL     1      -0.156  11.066  22.002  0.00  0.00    +0.000 C 
ATOM      7  N   UNL     1      -0.320  11.446  20.590  0.00  0.00    +0.000 N 
ATOM      8  C   UNL     1       0.286  10.856  19.470  0.00  0.00    +0.000 C 
ATOM      9  O   UNL     1       0.264  11.387  18.358  0.00  0.00    +0.000 OA
ATOM     10  C   UNL     1      -0.984  12.721  20.362  0.00  0.00    +0.000 C 
ATOM     11  C   UNL     1      -2.312  12.746  21.102  0.00  0.00    +0.000 C 
ATOM     12  C   UNL     1      -1.292  13.769  23.274  0.00  0.00    +0.000 C 
ATOM     13  C   UNL     1      -1.984  15.152  23.247  0.00  0.00    +0.000 C 
ATOM     14  C   UNL     1      -3.403  15.016  23.797  0.00  0.00    +0.000 C 
ATOM     15  O   UNL     1      -3.932  15.925  24.455  0.00  0.00    +0.000 OA
ENDROOT
BRANCH   8  16
ATOM     16  C   UNL     1       0.971   9.545  19.588  0.00  0.00    +0.000 A 
ATOM     17  C   UNL     1       0.893   8.810  20.776  0.00  0.00    +0.000 A 
ATOM     18  C   UNL     1       1.465   7.541  20.859  0.00  0.00    +0.000 A 
ATOM     19  C   UNL     1       2.204   7.041  19.791  0.00  0.00    +0.000 A 
ATOM     20  C   UNL     1       2.379   7.809  18.639  0.00  0.00    +0.000 A 
ATOM     21  C   UNL     1       1.756   9.054  18.535  0.00  0.00    +0.000 A 
BRANCH  21  22
ATOM     22  O   UNL     1       1.905   9.760  17.373  0.00  0.00    +0.000 OA
ATOM     23  H   UNL     1       1.153  10.365  17.271  0.00  0.00    +0.000 HD
ENDBRANCH  21  22
ENDBRANCH   8  16
BRANCH  13  24
ATOM     24  C   UNL     1      -1.975  15.839  21.870  0.00  0.00    +0.000 A 
ATOM     25  C   UNL     1      -0.772  16.140  21.204  0.00  0.00    +0.000 A 
ATOM     26  C   UNL     1      -0.747  16.981  20.094  0.00  0.00    +0.000 A 
ATOM     27  C   UNL     1      -1.935  17.485  19.587  0.00  0.00    +0.000 A 
ATOM     28  C   UNL     1      -3.148  17.100  20.155  0.00  0.00    +0.000 A 
ATOM     29  C   UNL     1      -3.171  16.267  21.279  0.00  0.00    +0.000 A 
ENDBRANCH  13  24
TORSDOF 3
ENDMDL
MODEL 9
REMARK VINA RESULT:      -5.9      1.072      1.734
REMARK  Name = 
REMARK  4 active torsions:
REMARK  status: ('A' for Active; 'I' for Inactive)
REMARK    1  A    between atoms: C_1  and  N_2
REMARK    2  A    between atoms: C_8  and  C_10
REMARK    3  A    between atoms: C_15  and  O_16
REMARK    4  A    between atoms: C_20  and  C_21
REMARK                            x       y       z     vdW  Elec       q    Type
REMARK                         _______ _______ _______ _____ _____    ______ ____
ROOT
ATOM      1  C   UNL     1       9.474  16.616  17.648  0.00  0.00    +0.000 C 
ATOM      2  N   UNL     1       9.878  15.894  18.840  0.00  0.00    +0.000 N 
ATOM      3  C   UNL     1       9.543  16.456  20.139  0.00  0.00    +0.000 C 
ATOM      4  C   UNL     1       9.406  15.369  21.223  0.00  0.00    +0.000 C 
ATOM      5  C   UNL     1       9.266  16.043  22.610  0.00  0.00    +0.000 C 
ATOM      6  C   UNL     1       8.872  15.071  23.731  0.00  0.00    +0.000 C 
ATOM      7  N   UNL     1       7.769  14.166  23.375  0.00  0.00    +0.000 N 
ATOM      8  C   UNL     1       6.768  13.664  24.222  0.00  0.00    +0.000 C 
ATOM      9  O   UNL     1       6.028  12.739  23.884  0.00  0.00    +0.000 OA
ATOM     10  C   UNL     1       7.880  13.533  22.069  0.00  0.00    +0.000 C 
ATOM     11  C   UNL     1       8.093  14.595  21.002  0.00  0.00    +0.000 C 
ATOM     12  C   UNL     1      10.695  14.501  21.168  0.00  0.00    +0.000 C 
ATOM     13  C   UNL     1      11.012  13.914  19.772  0.00  0.00    +0.000 C 
ATOM     14  C   UNL     1      10.968  15.034  18.733  0.00  0.00    +0.000 C 
ATOM     15  O   UNL     1      11.729  15.038  17.754  0.00  0.00    +0.000 OA
ENDROOT
BRANCH   8  16
ATOM     16  C   UNL     1       6.555  14.253  25.566  0.00  0.00    +0.000 A 
ATOM     17  C   UNL     1       5.726  15.370  25.727  0.00  0.00    +0.000 A 
ATOM     18  C   UNL     1       5.459  15.872  27.000  0.00  0.00    +0.000 A 
ATOM     19  C   UNL     1       6.096  15.326  28.110  0.00  0.00    +0.000 A 
ATOM     20  C   UNL     1       7.007  14.281  27.952  0.00  0.00    +0.000 A 
ATOM     21  C   UNL     1       7.229  13.740  26.685  0.00  0.00    +0.000 A 
BRANCH  21  22
ATOM     22  O   UNL     1       8.089  12.683  26.569  0.00  0.00    +0.000 OA
ATOM     23  H   UNL     1       7.966  12.090  27.327  0.00  0.00    +0.000 HD
ENDBRANCH  21  22
ENDBRANCH   8  16
BRANCH  13  24
ATOM     24  C   UNL     1      10.120  12.729  19.365  0.00  0.00    +0.000 A 
ATOM     25  C   UNL     1      10.170  11.499  20.047  0.00  0.00    +0.000 A 
ATOM     26  C   UNL     1       9.563  10.357  19.530  0.00  0.00    +0.000 A 
ATOM     27  C   UNL     1       8.836  10.437  18.353  0.00  0.00    +0.000 A 
ATOM     28  C   UNL     1       8.669  11.671  17.726  0.00  0.00    +0.000 A 
ATOM     29  C   UNL     1       9.291  12.815  18.237  0.00  0.00    +0.000 A 
ENDBRANCH  13  24
TORSDOF 3
ENDMDL
