MODEL 1
REMARK VINA RESULT:      -7.8      0.000      0.000
REMARK  Name = 
REMARK  12 active torsions:
REMARK  status: ('A' for Active; 'I' for Inactive)
REMARK    1  A    between atoms: C_1  and  C_2
REMARK    2  A    between atoms: C_2  and  C_3
REMARK    3  A    between atoms: C_3  and  C_4
REMARK    4  A    between atoms: C_4  and  C_5
REMARK    5  A    between atoms: C_5  and  C_11
REMARK    6  A    between atoms: N_6  and  N_7
REMARK    7  A    between atoms: C_15  and  C_16
REMARK    8  A    between atoms: C_16  and  C_17
REMARK    9  A    between atoms: C_17  and  C_18
REMARK   10  A    between atoms: C_18  and  C_19
REMARK   11  A    between atoms: C_19  and  C_20
REMARK   12  A    between atoms: N_21  and  N_22
REMARK                            x       y       z     vdW  Elec       q    Type
REMARK                         _______ _______ _______ _____ _____    ______ ____
ROOT
ATOM      1  C   UNL     1       2.965   5.251  18.017  0.00  0.00    +0.000 A 
ATOM      2  C   UNL     1       2.892   6.631  18.203  0.00  0.00    +0.000 A 
ATOM      3  C   UNL     1       3.732   7.467  17.477  0.00  0.00    +0.000 A 
ATOM      4  C   UNL     1       4.683   6.930  16.597  0.00  0.00    +0.000 A 
ATOM      5  C   UNL     1       4.823   5.553  16.415  0.00  0.00    +0.000 A 
ATOM      6  C   UNL     1       3.875   4.752  17.067  0.00  0.00    +0.000 A 
ENDROOT
BRANCH   1   7
ATOM      7  C   UNL     1       2.021   4.389  18.833  0.00  0.00    +0.000 C 
ATOM      8  N   UNL     1       1.953   4.716  20.097  0.00  0.00    +0.000 NA
BRANCH   8   9
ATOM      9  N   UNL     1       1.196   4.007  20.971  0.00  0.00    +0.000 N 
ATOM     10  C   UNL     1       1.716   3.024  21.767  0.00  0.00    +0.000 C 
ATOM     11  N   UNL     1       2.960   2.680  21.818  0.00  0.00    +0.000 NA
ATOM     12  N   UNL     1       0.821   2.368  22.539  0.00  0.00    +0.000 N 
ATOM     13  H   UNL     1       0.209   4.183  21.062  0.00  0.00    +0.000 HD
ATOM     14  H   UNL     1       3.423   3.301  21.138  0.00  0.00    +0.000 HD
ATOM     15  H   UNL     1       0.092   2.926  22.952  0.00  0.00    +0.000 HD
ATOM     16  H   UNL     1       1.317   1.815  23.238  0.00  0.00    +0.000 HD
ENDBRANCH   8   9
BRANCH   7  17
ATOM     17  C   UNL     1       1.278   3.169  18.196  0.00  0.00    +0.000 C 
BRANCH  17  18
ATOM     18  C   UNL     1       2.011   1.841  18.356  0.00  0.00    +0.000 C 
BRANCH  18  20
ATOM     19  C   UNL     1       4.303   1.759  19.219  0.00  0.00    +0.000 C 
ATOM     20  C   UNL     1       3.453   1.600  17.943  0.00  0.00    +0.000 C 
ENDBRANCH  18  20
ENDBRANCH  17  18
ENDBRANCH   7  17
ENDBRANCH   1   7
BRANCH   5  21
ATOM     21  C   UNL     1       5.860   4.826  15.541  0.00  0.00    +0.000 C 
ATOM     22  N   UNL     1       5.438   4.394  14.385  0.00  0.00    +0.000 NA
BRANCH  22  23
ATOM     23  N   UNL     1       6.288   3.713  13.539  0.00  0.00    +0.000 N 
ATOM     24  C   UNL     1       5.919   3.188  12.346  0.00  0.00    +0.000 C 
ATOM     25  N   UNL     1       4.742   3.261  11.854  0.00  0.00    +0.000 NA
ATOM     26  N   UNL     1       6.901   2.557  11.655  0.00  0.00    +0.000 N 
ATOM     27  H   UNL     1       7.210   3.432  13.866  0.00  0.00    +0.000 HD
ATOM     28  H   UNL     1       4.208   3.783  12.563  0.00  0.00    +0.000 HD
ATOM     29  H   UNL     1       7.796   3.030  11.646  0.00  0.00    +0.000 HD
ATOM     30  H   UNL     1       6.580   2.381  10.709  0.00  0.00    +0.000 HD
ENDBRANCH  22  23
BRANCH  21  31
ATOM     31  C   UNL     1       7.317   4.553  16.000  0.00  0.00    +0.000 C 
BRANCH  31  32
ATOM     32  C   UNL     1       7.582   4.551  17.488  0.00  0.00    +0.000 C 
BRANCH  32  33
ATOM     33  C   UNL     1       7.725   5.894  18.185  0.00  0.00    +0.000 C 
ATOM     34  C   UNL     1       7.432   5.664  19.668  0.00  0.00    +0.000 C 
ENDBRANCH  32  33
ENDBRANCH  31  32
ENDBRANCH  21  31
ENDBRANCH   5  21
TORSDOF 10
ENDMDL
MODEL 2
REMARK VINA RESULT:      -7.5      4.318      8.093
REMARK  Name = 
REMARK  12 active torsions:
REMARK  status: ('A' for Active; 'I' for Inactive)
REMARK    1  A    between atoms: C_1  and  C_2
REMARK    2  A    between atoms: C_2  and  C_3
REMARK    3  A    between atoms: C_3  and  C_4
REMARK    4  A    between atoms: C_4  and  C_5
REMARK    5  A    between atoms: C_5  and  C_11
REMARK    6  A    between atoms: N_6  and  N_7
REMARK    7  A    between atoms: C_15  and  C_16
REMARK    8  A    between atoms: C_16  and  C_17
REMARK    9  A    between atoms: C_17  and  C_18
REMARK   10  A    between atoms: C_18  and  C_19
REMARK   11  A    between atoms: C_19  and  C_20
REMARK   12  A    between atoms: N_21  and  N_22
REMARK                            x       y       z     vdW  Elec       q    Type
REMARK                         _______ _______ _______ _____ _____    ______ ____
ROOT
ATOM      1  C   UNL     1       2.557   7.140  19.115  0.00  0.00    +0.000 A 
ATOM      2  C   UNL     1       3.180   7.404  17.896  0.00  0.00    +0.000 A 
ATOM      3  C   UNL     1       2.916   8.598  17.235  0.00  0.00    +0.000 A 
ATOM      4  C   UNL     1       1.992   9.513  17.761  0.00  0.00    +0.000 A 
ATOM      5  C   UNL     1       1.311   9.268  18.955  0.00  0.00    +0.000 A 
ATOM      6  C   UNL     1       1.699   8.115  19.652  0.00  0.00    +0.000 A 
ENDROOT
BRANCH   1   7
ATOM      7  C   UNL     1       2.887   5.823  19.793  0.00  0.00    +0.000 C 
ATOM      8  N   UNL     1       2.012   5.445  20.687  0.00  0.00    +0.000 NA
BRANCH   8   9
ATOM      9  N   UNL     1       2.191   4.319  21.420  0.00  0.00    +0.000 N 
ATOM     10  C   UNL     1       1.419   3.203  21.256  0.00  0.00    +0.000 C 
ATOM     11  N   UNL     1       0.476   3.064  20.384  0.00  0.00    +0.000 NA
ATOM     12  N   UNL     1       1.682   2.185  22.106  0.00  0.00    +0.000 N 
ATOM     13  H   UNL     1       2.910   4.268  22.124  0.00  0.00    +0.000 HD
ATOM     14  H   UNL     1       0.461   3.964  19.883  0.00  0.00    +0.000 HD
ATOM     15  H   UNL     1       2.652   2.019  22.320  0.00  0.00    +0.000 HD
ATOM     16  H   UNL     1       1.216   1.339  21.778  0.00  0.00    +0.000 HD
ENDBRANCH   8   9
BRANCH   7  17
ATOM     17  C   UNL     1       4.215   5.058  19.481  0.00  0.00    +0.000 C 
BRANCH  17  18
ATOM     18  C   UNL     1       4.065   3.948  18.445  0.00  0.00    +0.000 C 
BRANCH  18  20
ATOM     19  C   UNL     1       2.530   2.216  17.640  0.00  0.00    +0.000 C 
ATOM     20  C   UNL     1       2.827   3.728  17.594  0.00  0.00    +0.000 C 
ENDBRANCH  18  20
ENDBRANCH  17  18
ENDBRANCH   7  17
ENDBRANCH   1   7
BRANCH   5  21
ATOM     21  C   UNL     1       0.229  10.143  19.610  0.00  0.00    +0.000 C 
ATOM     22  N   UNL     1       0.199  10.143  20.914  0.00  0.00    +0.000 NA
BRANCH  22  23
ATOM     23  N   UNL     1      -0.747  10.882  21.594  0.00  0.00    +0.000 N 
ATOM     24  C   UNL     1      -1.042  10.722  22.906  0.00  0.00    +0.000 C 
ATOM     25  N   UNL     1      -0.478   9.874  23.679  0.00  0.00    +0.000 NA
ATOM     26  N   UNL     1      -2.001  11.547  23.395  0.00  0.00    +0.000 N 
ATOM     27  H   UNL     1      -1.391  11.477  21.078  0.00  0.00    +0.000 HD
ATOM     28  H   UNL     1       0.197   9.392  23.069  0.00  0.00    +0.000 HD
ATOM     29  H   UNL     1      -1.937  12.512  23.094  0.00  0.00    +0.000 HD
ATOM     30  H   UNL     1      -2.003  11.488  24.408  0.00  0.00    +0.000 HD
ENDBRANCH  22  23
BRANCH  21  31
ATOM     31  C   UNL     1      -0.820  10.948  18.799  0.00  0.00    +0.000 C 
BRANCH  31  32
ATOM     32  C   UNL     1      -1.804  10.158  17.968  0.00  0.00    +0.000 C 
BRANCH  32  33
ATOM     33  C   UNL     1      -2.570  10.897  16.882  0.00  0.00    +0.000 C 
ATOM     34  C   UNL     1      -2.732   9.931  15.709  0.00  0.00    +0.000 C 
ENDBRANCH  32  33
ENDBRANCH  31  32
ENDBRANCH  21  31
ENDBRANCH   5  21
TORSDOF 10
ENDMDL
MODEL 3
REMARK VINA RESULT:      -7.4      0.462      7.261
REMARK  Name = 
REMARK  12 active torsions:
REMARK  status: ('A' for Active; 'I' for Inactive)
REMARK    1  A    between atoms: C_1  and  C_2
REMARK    2  A    between atoms: C_2  and  C_3
REMARK    3  A    between atoms: C_3  and  C_4
REMARK    4  A    between atoms: C_4  and  C_5
REMARK    5  A    between atoms: C_5  and  C_11
REMARK    6  A    between atoms: N_6  and  N_7
REMARK    7  A    between atoms: C_15  and  C_16
REMARK    8  A    between atoms: C_16  and  C_17
REMARK    9  A    between atoms: C_17  and  C_18
REMARK   10  A    between atoms: C_18  and  C_19
REMARK   11  A    between atoms: C_19  and  C_20
REMARK   12  A    between atoms: N_21  and  N_22
REMARK                            x       y       z     vdW  Elec       q    Type
REMARK                         _______ _______ _______ _____ _____    ______ ____
ROOT
ATOM      1  C   UNL     1       4.829   5.633  16.560  0.00  0.00    +0.000 A 
ATOM      2  C   UNL     1       4.684   7.017  16.475  0.00  0.00    +0.000 A 
ATOM      3  C   UNL     1       3.714   7.654  17.240  0.00  0.00    +0.000 A 
ATOM      4  C   UNL     1       2.850   6.910  18.056  0.00  0.00    +0.000 A 
ATOM      5  C   UNL     1       2.929   5.518  18.136  0.00  0.00    +0.000 A 
ATOM      6  C   UNL     1       3.999   4.928  17.450  0.00  0.00    +0.000 A 
ENDROOT
BRANCH   1   7
ATOM      7  C   UNL     1       5.907   4.993  15.705  0.00  0.00    +0.000 C 
ATOM      8  N   UNL     1       5.466   4.456  14.599  0.00  0.00    +0.000 NA
BRANCH   8   9
ATOM      9  N   UNL     1       6.296   3.796  13.753  0.00  0.00    +0.000 N 
ATOM     10  C   UNL     1       5.879   3.300  12.549  0.00  0.00    +0.000 C 
ATOM     11  N   UNL     1       4.690   3.424  12.058  0.00  0.00    +0.000 NA
ATOM     12  N   UNL     1       6.810   2.613  11.850  0.00  0.00    +0.000 N 
ATOM     13  H   UNL     1       7.263   3.645  13.990  0.00  0.00    +0.000 HD
ATOM     14  H   UNL     1       4.175   3.958  12.773  0.00  0.00    +0.000 HD
ATOM     15  H   UNL     1       7.747   2.980  11.872  0.00  0.00    +0.000 HD
ATOM     16  H   UNL     1       6.480   2.470  10.896  0.00  0.00    +0.000 HD
ENDBRANCH   8   9
BRANCH   7  17
ATOM     17  C   UNL     1       7.394   4.929  16.186  0.00  0.00    +0.000 C 
BRANCH  17  18
ATOM     18  C   UNL     1       7.555   4.604  17.668  0.00  0.00    +0.000 C 
BRANCH  18  20
ATOM     19  C   UNL     1       7.818   7.010  18.053  0.00  0.00    +0.000 C 
ATOM     20  C   UNL     1       7.834   5.634  18.748  0.00  0.00    +0.000 C 
ENDBRANCH  18  20
ENDBRANCH  17  18
ENDBRANCH   7  17
ENDBRANCH   1   7
BRANCH   5  21
ATOM     21  C   UNL     1       2.010   4.574  18.931  0.00  0.00    +0.000 C 
ATOM     22  N   UNL     1       2.004   4.731  20.226  0.00  0.00    +0.000 NA
BRANCH  22  23
ATOM     23  N   UNL     1       1.228   3.920  21.027  0.00  0.00    +0.000 N 
ATOM     24  C   UNL     1       1.718   2.947  21.832  0.00  0.00    +0.000 C 
ATOM     25  N   UNL     1       2.958   2.663  21.955  0.00  0.00    +0.000 NA
ATOM     26  N   UNL     1       0.794   2.257  22.546  0.00  0.00    +0.000 N 
ATOM     27  H   UNL     1       0.216   3.914  20.913  0.00  0.00    +0.000 HD
ATOM     28  H   UNL     1       3.429   3.324  21.321  0.00  0.00    +0.000 HD
ATOM     29  H   UNL     1       0.063   2.819  22.964  0.00  0.00    +0.000 HD
ATOM     30  H   UNL     1       1.267   1.703  23.252  0.00  0.00    +0.000 HD
ENDBRANCH  22  23
BRANCH  21  31
ATOM     31  C   UNL     1       1.170   3.450  18.270  0.00  0.00    +0.000 C 
BRANCH  31  32
ATOM     32  C   UNL     1       1.532   2.024  18.615  0.00  0.00    +0.000 C 
BRANCH  32  33
ATOM     33  C   UNL     1       3.008   1.661  18.671  0.00  0.00    +0.000 C 
ATOM     34  C   UNL     1       3.558   1.795  17.251  0.00  0.00    +0.000 C 
ENDBRANCH  32  33
ENDBRANCH  31  32
ENDBRANCH  21  31
ENDBRANCH   5  21
TORSDOF 10
ENDMDL
MODEL 4
REMARK VINA RESULT:      -7.3      4.982      7.817
REMARK  Name = 
REMARK  12 active torsions:
REMARK  status: ('A' for Active; 'I' for Inactive)
REMARK    1  A    between atoms: C_1  and  C_2
REMARK    2  A    between atoms: C_2  and  C_3
REMARK    3  A    between atoms: C_3  and  C_4
REMARK    4  A    between atoms: C_4  and  C_5
REMARK    5  A    between atoms: C_5  and  C_11
REMARK    6  A    between atoms: N_6  and  N_7
REMARK    7  A    between atoms: C_15  and  C_16
REMARK    8  A    between atoms: C_16  and  C_17
REMARK    9  A    between atoms: C_17  and  C_18
REMARK   10  A    between atoms: C_18  and  C_19
REMARK   11  A    between atoms: C_19  and  C_20
REMARK   12  A    between atoms: N_21  and  N_22
REMARK                            x       y       z     vdW  Elec       q    Type
REMARK                         _______ _______ _______ _____ _____    ______ ____
ROOT
ATOM      1  C   UNL     1       2.183   7.266  19.135  0.00  0.00    +0.000 A 
ATOM      2  C   UNL     1       1.786   6.997  20.444  0.00  0.00    +0.000 A 
ATOM      3  C   UNL     1       1.147   7.984  21.184  0.00  0.00    +0.000 A 
ATOM      4  C   UNL     1       0.943   9.261  20.641  0.00  0.00    +0.000 A 
ATOM      5  C   UNL     1       1.365   9.588  19.351  0.00  0.00    +0.000 A 
ATOM      6  C   UNL     1       1.890   8.531  18.595  0.00  0.00    +0.000 A 
ENDROOT
BRANCH   1   7
ATOM      7  C   UNL     1       2.872   6.149  18.374  0.00  0.00    +0.000 C 
ATOM      8  N   UNL     1       4.131   6.377  18.110  0.00  0.00    +0.000 NA
BRANCH   8   9
ATOM      9  N   UNL     1       4.873   5.501  17.388  0.00  0.00    +0.000 N 
ATOM     10  C   UNL     1       5.868   4.746  17.943  0.00  0.00    +0.000 C 
ATOM     11  N   UNL     1       6.197   4.739  19.193  0.00  0.00    +0.000 NA
ATOM     12  N   UNL     1       6.557   3.966  17.079  0.00  0.00    +0.000 N 
ATOM     13  H   UNL     1       4.713   5.378  16.401  0.00  0.00    +0.000 HD
ATOM     14  H   UNL     1       5.551   5.415  19.627  0.00  0.00    +0.000 HD
ATOM     15  H   UNL     1       6.019   3.519  16.355  0.00  0.00    +0.000 HD
ATOM     16  H   UNL     1       7.121   3.297  17.602  0.00  0.00    +0.000 HD
ENDBRANCH   8   9
BRANCH   7  17
ATOM     17  C   UNL     1       2.084   4.887  17.892  0.00  0.00    +0.000 C 
BRANCH  17  18
ATOM     18  C   UNL     1       2.063   3.744  18.901  0.00  0.00    +0.000 C 
BRANCH  18  20
ATOM     19  C   UNL     1       1.591   3.130  21.226  0.00  0.00    +0.000 C 
ATOM     20  C   UNL     1       0.930   3.481  19.879  0.00  0.00    +0.000 C 
ENDBRANCH  18  20
ENDBRANCH  17  18
ENDBRANCH   7  17
ENDBRANCH   1   7
BRANCH   5  21
ATOM     21  C   UNL     1       1.269  10.957  18.655  0.00  0.00    +0.000 C 
ATOM     22  N   UNL     1       2.391  11.466  18.228  0.00  0.00    +0.000 NA
BRANCH  22  23
ATOM     23  N   UNL     1       2.410  12.698  17.608  0.00  0.00    +0.000 N 
ATOM     24  C   UNL     1       2.869  13.835  18.184  0.00  0.00    +0.000 C 
ATOM     25  N   UNL     1       3.345  13.908  19.368  0.00  0.00    +0.000 NA
ATOM     26  N   UNL     1       2.809  14.948  17.411  0.00  0.00    +0.000 N 
ATOM     27  H   UNL     1       1.915  12.831  16.730  0.00  0.00    +0.000 HD
ATOM     28  H   UNL     1       3.280  12.944  19.722  0.00  0.00    +0.000 HD
ATOM     29  H   UNL     1       3.093  14.822  16.447  0.00  0.00    +0.000 HD
ATOM     30  H   UNL     1       3.351  15.685  17.850  0.00  0.00    +0.000 HD
ENDBRANCH  22  23
BRANCH  21  31
ATOM     31  C   UNL     1      -0.061  11.743  18.504  0.00  0.00    +0.000 C 
BRANCH  31  32
ATOM     32  C   UNL     1      -1.342  10.943  18.537  0.00  0.00    +0.000 C 
BRANCH  32  33
ATOM     33  C   UNL     1      -1.670  10.078  17.330  0.00  0.00    +0.000 C 
ATOM     34  C   UNL     1      -3.173   9.805  17.368  0.00  0.00    +0.000 C 
ENDBRANCH  32  33
ENDBRANCH  31  32
ENDBRANCH  21  31
ENDBRANCH   5  21
TORSDOF 10
ENDMDL
MODEL 5
REMARK VINA RESULT:      -7.3      4.829      7.470
REMARK  Name = 
REMARK  12 active torsions:
REMARK  status: ('A' for Active; 'I' for Inactive)
REMARK    1  A    between atoms: C_1  and  C_2
REMARK    2  A    between atoms: C_2  and  C_3
REMARK    3  A    between atoms: C_3  and  C_4
REMARK    4  A    between atoms: C_4  and  C_5
REMARK    5  A    between atoms: C_5  and  C_11
REMARK    6  A    between atoms: N_6  and  N_7
REMARK    7  A    between atoms: C_15  and  C_16
REMARK    8  A    between atoms: C_16  and  C_17
REMARK    9  A    between atoms: C_17  and  C_18
REMARK   10  A    between atoms: C_18  and  C_19
REMARK   11  A    between atoms: C_19  and  C_20
REMARK   12  A    between atoms: N_21  and  N_22
REMARK                            x       y       z     vdW  Elec       q    Type
REMARK                         _______ _______ _______ _____ _____    ______ ____
ROOT
ATOM      1  C   UNL     1       1.390   9.254  19.161  0.00  0.00    +0.000 A 
ATOM      2  C   UNL     1       1.898   9.685  17.936  0.00  0.00    +0.000 A 
ATOM      3  C   UNL     1       2.735   8.848  17.208  0.00  0.00    +0.000 A 
ATOM      4  C   UNL     1       3.111   7.597  17.719  0.00  0.00    +0.000 A 
ATOM      5  C   UNL     1       2.663   7.145  18.961  0.00  0.00    +0.000 A 
ATOM      6  C   UNL     1       1.723   7.962  19.605  0.00  0.00    +0.000 A 
ENDROOT
BRANCH   1   7
ATOM      7  C   UNL     1       0.477  10.208  19.909  0.00  0.00    +0.000 C 
ATOM      8  N   UNL     1      -0.549  10.623  19.215  0.00  0.00    +0.000 NA
BRANCH   8   9
ATOM      9  N   UNL     1      -1.428  11.523  19.721  0.00  0.00    +0.000 N 
ATOM     10  C   UNL     1      -2.349  12.170  18.946  0.00  0.00    +0.000 C 
ATOM     11  N   UNL     1      -2.523  11.989  17.678  0.00  0.00    +0.000 NA
ATOM     12  N   UNL     1      -3.112  13.083  19.589  0.00  0.00    +0.000 N 
ATOM     13  H   UNL     1      -1.430  11.748  20.703  0.00  0.00    +0.000 HD
ATOM     14  H   UNL     1      -1.824  11.275  17.427  0.00  0.00    +0.000 HD
ATOM     15  H   UNL     1      -3.416  12.838  20.517  0.00  0.00    +0.000 HD
ATOM     16  H   UNL     1      -3.894  13.353  18.992  0.00  0.00    +0.000 HD
ENDBRANCH   8   9
BRANCH   7  17
ATOM     17  C   UNL     1       0.818  10.693  21.356  0.00  0.00    +0.000 C 
BRANCH  17  18
ATOM     18  C   UNL     1       0.509   9.670  22.444  0.00  0.00    +0.000 C 
BRANCH  18  20
ATOM     19  C   UNL     1      -1.357  11.085  23.165  0.00  0.00    +0.000 C 
ATOM     20  C   UNL     1      -0.747   9.675  23.297  0.00  0.00    +0.000 C 
ENDBRANCH  18  20
ENDBRANCH  17  18
ENDBRANCH   7  17
ENDBRANCH   1   7
BRANCH   5  21
ATOM     21  C   UNL     1       3.045   5.836  19.673  0.00  0.00    +0.000 C 
ATOM     22  N   UNL     1       4.159   5.276  19.291  0.00  0.00    +0.000 NA
BRANCH  22  23
ATOM     23  N   UNL     1       4.576   4.088  19.855  0.00  0.00    +0.000 N 
ATOM     24  C   UNL     1       4.575   2.895  19.214  0.00  0.00    +0.000 C 
ATOM     25  N   UNL     1       4.193   2.721  18.007  0.00  0.00    +0.000 NA
ATOM     26  N   UNL     1       5.027   1.841  19.937  0.00  0.00    +0.000 N 
ATOM     27  H   UNL     1       4.751   4.038  20.857  0.00  0.00    +0.000 HD
ATOM     28  H   UNL     1       3.911   3.661  17.697  0.00  0.00    +0.000 HD
ATOM     29  H   UNL     1       5.857   2.019  20.490  0.00  0.00    +0.000 HD
ATOM     30  H   UNL     1       5.173   1.052  19.317  0.00  0.00    +0.000 HD
ENDBRANCH  22  23
BRANCH  21  31
ATOM     31  C   UNL     1       2.151   5.160  20.746  0.00  0.00    +0.000 C 
BRANCH  31  32
ATOM     32  C   UNL     1       1.005   4.308  20.253  0.00  0.00    +0.000 C 
BRANCH  32  33
ATOM     33  C   UNL     1       1.086   2.807  20.483  0.00  0.00    +0.000 C 
ATOM     34  C   UNL     1       1.857   2.592  21.785  0.00  0.00    +0.000 C 
ENDBRANCH  32  33
ENDBRANCH  31  32
ENDBRANCH  21  31
ENDBRANCH   5  21
TORSDOF 10
ENDMDL
MODEL 6
REMARK VINA RESULT:      -7.3      2.683      3.990
REMARK  Name = 
REMARK  12 active torsions:
REMARK  status: ('A' for Active; 'I' for Inactive)
REMARK    1  A    between atoms: C_1  and  C_2
REMARK    2  A    between atoms: C_2  and  C_3
REMARK    3  A    between atoms: C_3  and  C_4
REMARK    4  A    between atoms: C_4  and  C_5
REMARK    5  A    between atoms: C_5  and  C_11
REMARK    6  A    between atoms: N_6  and  N_7
REMARK    7  A    between atoms: C_15  and  C_16
REMARK    8  A    between atoms: C_16  and  C_17
REMARK    9  A    between atoms: C_17  and  C_18
REMARK   10  A    between atoms: C_18  and  C_19
REMARK   11  A    between atoms: C_19  and  C_20
REMARK   12  A    between atoms: N_21  and  N_22
REMARK                            x       y       z     vdW  Elec       q    Type
REMARK                         _______ _______ _______ _____ _____    ______ ____
ROOT
ATOM      1  C   UNL     1       2.940   5.400  18.304  0.00  0.00    +0.000 A 
ATOM      2  C   UNL     1       2.282   4.260  17.844  0.00  0.00    +0.000 A 
ATOM      3  C   UNL     1       2.926   3.407  16.956  0.00  0.00    +0.000 A 
ATOM      4  C   UNL     1       4.211   3.712  16.482  0.00  0.00    +0.000 A 
ATOM      5  C   UNL     1       4.888   4.866  16.880  0.00  0.00    +0.000 A 
ATOM      6  C   UNL     1       4.258   5.631  17.871  0.00  0.00    +0.000 A 
ENDROOT
BRANCH   1   7
ATOM      7  C   UNL     1       2.189   6.291  19.276  0.00  0.00    +0.000 C 
ATOM      8  N   UNL     1       2.149   7.550  18.928  0.00  0.00    +0.000 NA
BRANCH   8   9
ATOM      9  N   UNL     1       1.563   8.483  19.719  0.00  0.00    +0.000 N 
ATOM     10  C   UNL     1       1.120   9.683  19.237  0.00  0.00    +0.000 C 
ATOM     11  N   UNL     1       1.163  10.058  18.001  0.00  0.00    +0.000 NA
ATOM     12  N   UNL     1       0.616  10.531  20.162  0.00  0.00    +0.000 N 
ATOM     13  H   UNL     1       1.436   8.321  20.704  0.00  0.00    +0.000 HD
ATOM     14  H   UNL     1       1.597   9.262  17.511  0.00  0.00    +0.000 HD
ATOM     15  H   UNL     1       0.057  10.118  20.890  0.00  0.00    +0.000 HD
ATOM     16  H   UNL     1       0.127  11.293  19.694  0.00  0.00    +0.000 HD
ENDBRANCH   8   9
BRANCH   7  17
ATOM     17  C   UNL     1       1.603   5.725  20.611  0.00  0.00    +0.000 C 
BRANCH  17  18
ATOM     18  C   UNL     1       2.523   4.741  21.327  0.00  0.00    +0.000 C 
BRANCH  18  20
ATOM     19  C   UNL     1       0.905   2.986  20.771  0.00  0.00    +0.000 C 
ATOM     20  C   UNL     1       2.290   3.241  21.397  0.00  0.00    +0.000 C 
ENDBRANCH  18  20
ENDBRANCH  17  18
ENDBRANCH   7  17
ENDBRANCH   1   7
BRANCH   5  21
ATOM     21  C   UNL     1       6.262   5.358  16.394  0.00  0.00    +0.000 C 
ATOM     22  N   UNL     1       6.516   5.198  15.125  0.00  0.00    +0.000 NA
BRANCH  22  23
ATOM     23  N   UNL     1       7.729   5.590  14.598  0.00  0.00    +0.000 N 
ATOM     24  C   UNL     1       8.089   5.420  13.303  0.00  0.00    +0.000 C 
ATOM     25  N   UNL     1       7.352   4.882  12.409  0.00  0.00    +0.000 NA
ATOM     26  N   UNL     1       9.324   5.875  12.974  0.00  0.00    +0.000 N 
ATOM     27  H   UNL     1       8.481   5.881  15.218  0.00  0.00    +0.000 HD
ATOM     28  H   UNL     1       6.488   4.636  12.913  0.00  0.00    +0.000 HD
ATOM     29  H   UNL     1       9.570   6.778  13.364  0.00  0.00    +0.000 HD
ATOM     30  H   UNL     1       9.415   5.885  11.964  0.00  0.00    +0.000 HD
ENDBRANCH  22  23
BRANCH  21  31
ATOM     31  C   UNL     1       7.332   5.963  17.341  0.00  0.00    +0.000 C 
BRANCH  31  32
ATOM     32  C   UNL     1       7.376   7.469  17.461  0.00  0.00    +0.000 C 
BRANCH  32  33
ATOM     33  C   UNL     1       8.345   8.073  18.465  0.00  0.00    +0.000 C 
ATOM     34  C   UNL     1       8.475   9.558  18.127  0.00  0.00    +0.000 C 
ENDBRANCH  32  33
ENDBRANCH  31  32
ENDBRANCH  21  31
ENDBRANCH   5  21
TORSDOF 10
ENDMDL
MODEL 7
REMARK VINA RESULT:      -7.2      4.449      7.186
REMARK  Name = 
REMARK  12 active torsions:
REMARK  status: ('A' for Active; 'I' for Inactive)
REMARK    1  A    between atoms: C_1  and  C_2
REMARK    2  A    between atoms: C_2  and  C_3
REMARK    3  A    between atoms: C_3  and  C_4
REMARK    4  A    between atoms: C_4  and  C_5
REMARK    5  A    between atoms: C_5  and  C_11
REMARK    6  A    between atoms: N_6  and  N_7
REMARK    7  A    between atoms: C_15  and  C_16
REMARK    8  A    between atoms: C_16  and  C_17
REMARK    9  A    between atoms: C_17  and  C_18
REMARK   10  A    between atoms: C_18  and  C_19
REMARK   11  A    between atoms: C_19  and  C_20
REMARK   12  A    between atoms: N_21  and  N_22
REMARK                            x       y       z     vdW  Elec       q    Type
REMARK                         _______ _______ _______ _____ _____    ______ ____
ROOT
ATOM      1  C   UNL     1       1.288   9.121  19.113  0.00  0.00    +0.000 A 
ATOM      2  C   UNL     1       1.887   9.609  17.953  0.00  0.00    +0.000 A 
ATOM      3  C   UNL     1       2.828   8.833  17.287  0.00  0.00    +0.000 A 
ATOM      4  C   UNL     1       3.211   7.585  17.800  0.00  0.00    +0.000 A 
ATOM      5  C   UNL     1       2.671   7.077  18.982  0.00  0.00    +0.000 A 
ATOM      6  C   UNL     1       1.637   7.832  19.554  0.00  0.00    +0.000 A 
ENDROOT
BRANCH   1   7
ATOM      7  C   UNL     1       0.265  10.011  19.795  0.00  0.00    +0.000 C 
ATOM      8  N   UNL     1       0.617  10.417  20.986  0.00  0.00    +0.000 NA
BRANCH   8   9
ATOM      9  N   UNL     1      -0.210  11.174  21.748  0.00  0.00    +0.000 N 
ATOM     10  C   UNL     1      -0.880  10.672  22.829  0.00  0.00    +0.000 C 
ATOM     11  N   UNL     1      -0.787   9.463  23.275  0.00  0.00    +0.000 NA
ATOM     12  N   UNL     1      -1.715  11.537  23.448  0.00  0.00    +0.000 N 
ATOM     13  H   UNL     1      -0.363  12.147  21.538  0.00  0.00    +0.000 HD
ATOM     14  H   UNL     1      -0.119   9.009  22.635  0.00  0.00    +0.000 HD
ATOM     15  H   UNL     1      -1.391  12.486  23.536  0.00  0.00    +0.000 HD
ATOM     16  H   UNL     1      -2.000  11.149  24.347  0.00  0.00    +0.000 HD
ENDBRANCH   8   9
BRANCH   7  17
ATOM     17  C   UNL     1      -1.115  10.320  19.129  0.00  0.00    +0.000 C 
BRANCH  17  18
ATOM     18  C   UNL     1      -1.114  11.560  18.240  0.00  0.00    +0.000 C 
BRANCH  18  20
ATOM     19  C   UNL     1       0.475  13.415  18.438  0.00  0.00    +0.000 C 
ATOM     20  C   UNL     1      -0.971  12.984  18.750  0.00  0.00    +0.000 C 
ENDBRANCH  18  20
ENDBRANCH  17  18
ENDBRANCH   7  17
ENDBRANCH   1   7
BRANCH   5  21
ATOM     21  C   UNL     1       3.045   5.765  19.693  0.00  0.00    +0.000 C 
ATOM     22  N   UNL     1       4.162   5.205  19.320  0.00  0.00    +0.000 NA
BRANCH  22  23
ATOM     23  N   UNL     1       4.573   4.016  19.885  0.00  0.00    +0.000 N 
ATOM     24  C   UNL     1       4.547   2.819  19.250  0.00  0.00    +0.000 C 
ATOM     25  N   UNL     1       4.145   2.643  18.050  0.00  0.00    +0.000 NA
ATOM     26  N   UNL     1       4.997   1.763  19.973  0.00  0.00    +0.000 N 
ATOM     27  H   UNL     1       4.762   3.968  20.884  0.00  0.00    +0.000 HD
ATOM     28  H   UNL     1       3.870   3.585  17.739  0.00  0.00    +0.000 HD
ATOM     29  H   UNL     1       5.837   1.934  20.512  0.00  0.00    +0.000 HD
ATOM     30  H   UNL     1       5.124   0.969  19.355  0.00  0.00    +0.000 HD
ENDBRANCH  22  23
BRANCH  21  31
ATOM     31  C   UNL     1       2.141   5.087  20.757  0.00  0.00    +0.000 C 
BRANCH  31  32
ATOM     32  C   UNL     1       0.982   4.260  20.251  0.00  0.00    +0.000 C 
BRANCH  32  33
ATOM     33  C   UNL     1       1.050   2.753  20.441  0.00  0.00    +0.000 C 
ATOM     34  C   UNL     1       1.768   2.499  21.767  0.00  0.00    +0.000 C 
ENDBRANCH  32  33
ENDBRANCH  31  32
ENDBRANCH  21  31
ENDBRANCH   5  21
TORSDOF 10
ENDMDL
MODEL 8
REMARK VINA RESULT:      -7.2      4.777      7.907
REMARK  Name = 
REMARK  12 active torsions:
REMARK  status: ('A' for Active; 'I' for Inactive)
REMARK    1  A    between atoms: C_1  and  C_2
REMARK    2  A    between atoms: C_2  and  C_3
REMARK    3  A    between atoms: C_3  and  C_4
REMARK    4  A    between atoms: C_4  and  C_5
REMARK    5  A    between atoms: C_5  and  C_11
REMARK    6  A    between atoms: N_6  and  N_7
REMARK    7  A    between atoms: C_15  and  C_16
REMARK    8  A    between atoms: C_16  and  C_17
REMARK    9  A    between atoms: C_17  and  C_18
REMARK   10  A    between atoms: C_18  and  C_19
REMARK   11  A    between atoms: C_19  and  C_20
REMARK   12  A    between atoms: N_21  and  N_22
REMARK                            x       y       z     vdW  Elec       q    Type
REMARK                         _______ _______ _______ _____ _____    ______ ____
ROOT
ATOM      1  C   UNL     1       2.150   7.048  19.069  0.00  0.00    +0.000 A 
ATOM      2  C   UNL     1       1.819   6.777  20.396  0.00  0.00    +0.000 A 
ATOM      3  C   UNL     1       1.248   7.774  21.178  0.00  0.00    +0.000 A 
ATOM      4  C   UNL     1       1.049   9.060  20.656  0.00  0.00    +0.000 A 
ATOM      5  C   UNL     1       1.408   9.389  19.348  0.00  0.00    +0.000 A 
ATOM      6  C   UNL     1       1.862   8.325  18.556  0.00  0.00    +0.000 A 
ENDROOT
BRANCH   1   7
ATOM      7  C   UNL     1       2.766   5.920  18.262  0.00  0.00    +0.000 C 
ATOM      8  N   UNL     1       4.008   6.127  17.913  0.00  0.00    +0.000 NA
BRANCH   8   9
ATOM      9  N   UNL     1       4.683   5.239  17.141  0.00  0.00    +0.000 N 
ATOM     10  C   UNL     1       5.241   5.580  15.941  0.00  0.00    +0.000 C 
ATOM     11  N   UNL     1       5.231   6.762  15.418  0.00  0.00    +0.000 NA
ATOM     12  N   UNL     1       5.827   4.568  15.263  0.00  0.00    +0.000 N 
ATOM     13  H   UNL     1       4.797   4.282  17.433  0.00  0.00    +0.000 HD
ATOM     14  H   UNL     1       4.721   7.338  16.103  0.00  0.00    +0.000 HD
ATOM     15  H   UNL     1       6.344   3.902  15.813  0.00  0.00    +0.000 HD
ATOM     16  H   UNL     1       6.387   4.948  14.501  0.00  0.00    +0.000 HD
ENDBRANCH   8   9
BRANCH   7  17
ATOM     17  C   UNL     1       1.926   4.673  17.835  0.00  0.00    +0.000 C 
BRANCH  17  18
ATOM     18  C   UNL     1       1.970   3.520  18.834  0.00  0.00    +0.000 C 
BRANCH  18  20
ATOM     19  C   UNL     1       1.466   3.077  21.191  0.00  0.00    +0.000 C 
ATOM     20  C   UNL     1       0.840   3.163  19.785  0.00  0.00    +0.000 C 
ENDBRANCH  18  20
ENDBRANCH  17  18
ENDBRANCH   7  17
ENDBRANCH   1   7
BRANCH   5  21
ATOM     21  C   UNL     1       1.312  10.766  18.669  0.00  0.00    +0.000 C 
ATOM     22  N   UNL     1       2.426  11.260  18.206  0.00  0.00    +0.000 NA
BRANCH  22  23
ATOM     23  N   UNL     1       2.445  12.498  17.598  0.00  0.00    +0.000 N 
ATOM     24  C   UNL     1       2.839  13.642  18.208  0.00  0.00    +0.000 C 
ATOM     25  N   UNL     1       3.246  13.717  19.416  0.00  0.00    +0.000 NA
ATOM     26  N   UNL     1       2.790  14.760  17.441  0.00  0.00    +0.000 N 
ATOM     27  H   UNL     1       1.995  12.625  16.694  0.00  0.00    +0.000 HD
ATOM     28  H   UNL     1       3.189  12.748  19.759  0.00  0.00    +0.000 HD
ATOM     29  H   UNL     1       3.131  14.650  16.493  0.00  0.00    +0.000 HD
ATOM     30  H   UNL     1       3.285  15.508  17.915  0.00  0.00    +0.000 HD
ENDBRANCH  22  23
BRANCH  21  31
ATOM     31  C   UNL     1      -0.009  11.576  18.574  0.00  0.00    +0.000 C 
BRANCH  31  32
ATOM     32  C   UNL     1      -1.300  10.792  18.568  0.00  0.00    +0.000 C 
BRANCH  32  33
ATOM     33  C   UNL     1      -1.649  10.011  17.311  0.00  0.00    +0.000 C 
ATOM     34  C   UNL     1      -3.134   9.657  17.399  0.00  0.00    +0.000 C 
ENDBRANCH  32  33
ENDBRANCH  31  32
ENDBRANCH  21  31
ENDBRANCH   5  21
TORSDOF 10
ENDMDL
MODEL 9
REMARK VINA RESULT:      -7.2      4.439      6.745
REMARK  Name = 
REMARK  12 active torsions:
REMARK  status: ('A' for Active; 'I' for Inactive)
REMARK    1  A    between atoms: C_1  and  C_2
REMARK    2  A    between atoms: C_2  and  C_3
REMARK    3  A    between atoms: C_3  and  C_4
REMARK    4  A    between atoms: C_4  and  C_5
REMARK    5  A    between atoms: C_5  and  C_11
REMARK    6  A    between atoms: N_6  and  N_7
REMARK    7  A    between atoms: C_15  and  C_16
REMARK    8  A    between atoms: C_16  and  C_17
REMARK    9  A    between atoms: C_17  and  C_18
REMARK   10  A    between atoms: C_18  and  C_19
REMARK   11  A    between atoms: C_19  and  C_20
REMARK   12  A    between atoms: N_21  and  N_22
REMARK                            x       y       z     vdW  Elec       q    Type
REMARK                         _______ _______ _______ _____ _____    ______ ____
ROOT
ATOM      1  C   UNL     1       1.613   8.004  19.754  0.00  0.00    +0.000 A 
ATOM      2  C   UNL     1       1.207   7.299  20.887  0.00  0.00    +0.000 A 
ATOM      3  C   UNL     1       1.731   6.037  21.134  0.00  0.00    +0.000 A 
ATOM      4  C   UNL     1       2.626   5.448  20.229  0.00  0.00    +0.000 A 
ATOM      5  C   UNL     1       3.025   6.098  19.060  0.00  0.00    +0.000 A 
ATOM      6  C   UNL     1       2.573   7.417  18.911  0.00  0.00    +0.000 A 
ENDROOT
BRANCH   1   7
ATOM      7  C   UNL     1       1.011   9.379  19.538  0.00  0.00    +0.000 C 
ATOM      8  N   UNL     1       0.616   9.606  18.313  0.00  0.00    +0.000 NA
BRANCH   8   9
ATOM      9  N   UNL     1       0.107  10.808  17.945  0.00  0.00    +0.000 N 
ATOM     10  C   UNL     1      -1.231  11.016  17.763  0.00  0.00    +0.000 C 
ATOM     11  N   UNL     1      -2.160  10.137  17.950  0.00  0.00    +0.000 NA
ATOM     12  N   UNL     1      -1.574  12.252  17.336  0.00  0.00    +0.000 N 
ATOM     13  H   UNL     1       0.710  11.599  17.788  0.00  0.00    +0.000 HD
ATOM     14  H   UNL     1      -1.652   9.292  18.248  0.00  0.00    +0.000 HD
ATOM     15  H   UNL     1      -1.061  13.022  17.733  0.00  0.00    +0.000 HD
ATOM     16  H   UNL     1      -2.582  12.378  17.433  0.00  0.00    +0.000 HD
ENDBRANCH   8   9
BRANCH   7  17
ATOM     17  C   UNL     1       0.963  10.436  20.690  0.00  0.00    +0.000 C 
BRANCH  17  18
ATOM     18  C   UNL     1      -0.401  10.565  21.361  0.00  0.00    +0.000 C 
BRANCH  18  20
ATOM     19  C   UNL     1      -1.741  11.479  23.198  0.00  0.00    +0.000 C 
ATOM     20  C   UNL     1      -0.637  10.459  22.857  0.00  0.00    +0.000 C 
ENDBRANCH  18  20
ENDBRANCH  17  18
ENDBRANCH   7  17
ENDBRANCH   1   7
BRANCH   5  21
ATOM     21  C   UNL     1       3.940   5.550  17.951  0.00  0.00    +0.000 C 
ATOM     22  N   UNL     1       5.043   6.211  17.736  0.00  0.00    +0.000 NA
BRANCH  22  23
ATOM     23  N   UNL     1       5.920   5.809  16.749  0.00  0.00    +0.000 N 
ATOM     24  C   UNL     1       6.949   4.951  16.946  0.00  0.00    +0.000 C 
ATOM     25  N   UNL     1       7.233   4.403  18.065  0.00  0.00    +0.000 NA
ATOM     26  N   UNL     1       7.699   4.675  15.850  0.00  0.00    +0.000 N 
ATOM     27  H   UNL     1       5.923   6.285  15.850  0.00  0.00    +0.000 HD
ATOM     28  H   UNL     1       6.522   4.772  18.711  0.00  0.00    +0.000 HD
ATOM     29  H   UNL     1       7.176   4.515  14.997  0.00  0.00    +0.000 HD
ATOM     30  H   UNL     1       8.303   3.886  16.052  0.00  0.00    +0.000 HD
ENDBRANCH  22  23
BRANCH  21  31
ATOM     31  C   UNL     1       3.577   4.318  17.080  0.00  0.00    +0.000 C 
BRANCH  31  32
ATOM     32  C   UNL     1       3.761   2.954  17.704  0.00  0.00    +0.000 C 
BRANCH  32  33
ATOM     33  C   UNL     1       2.565   2.015  17.722  0.00  0.00    +0.000 C 
ATOM     34  C   UNL     1       1.419   2.760  18.407  0.00  0.00    +0.000 C 
ENDBRANCH  32  33
ENDBRANCH  31  32
ENDBRANCH  21  31
ENDBRANCH   5  21
TORSDOF 10
ENDMDL
