MODEL 1
REMARK VINA RESULT:      -6.3      0.000      0.000
REMARK  Name = 
REMARK  6 active torsions:
REMARK  status: ('A' for Active; 'I' for Inactive)
REMARK    1  A    between atoms: C_1  and  N_2
REMARK    2  A    between atoms: N_2  and  C_3
REMARK    3  A    between atoms: N_2  and  C_4
REMARK    4  A    between atoms: C_4  and  C_5
REMARK    5  A    between atoms: N_14  and  C_15
REMARK    6  A    between atoms: C_15  and  C_16
REMARK                            x       y       z     vdW  Elec       q    Type
REMARK                         _______ _______ _______ _____ _____    ______ ____
ROOT
ATOM      1  C   UNL     1       2.461   6.697  19.230  0.00  0.00    +0.000 C 
ATOM      2  O   UNL     1       3.117   6.429  18.224  0.00  0.00    +0.000 OA
ATOM      3  N   UNL     1       1.911   7.957  19.444  0.00  0.00    +0.000 N 
ATOM      4  C   UNL     1       1.951   8.933  18.362  0.00  0.00    +0.000 C 
ATOM      5  C   UNL     1       0.633   9.693  18.262  0.00  0.00    +0.000 C 
ATOM      6  C   UNL     1       0.242  10.341  19.605  0.00  0.00    +0.000 C 
ATOM      7  C   UNL     1       0.209   9.245  20.686  0.00  0.00    +0.000 C 
ATOM      8  C   UNL     1       1.508   8.461  20.758  0.00  0.00    +0.000 C 
ATOM      9  C   UNL     1       1.196  11.486  20.012  0.00  0.00    +0.000 C 
ATOM     10  N   UNL     1       1.125  12.589  19.063  0.00  0.00    +0.000 N 
ATOM     11  C   UNL     1      -0.119  13.069  18.677  0.00  0.00    +0.000 C 
ATOM     12  O   UNL     1      -0.289  14.173  18.163  0.00  0.00    +0.000 OA
ATOM     13  C   UNL     1      -1.242  12.017  18.732  0.00  0.00    +0.000 C 
ATOM     14  O   UNL     1      -1.097  10.878  19.566  0.00  0.00    +0.000 OA
ENDROOT
BRANCH   1  15
ATOM     15  C   UNL     1       2.163   5.603  20.269  0.00  0.00    +0.000 C 
BRANCH  15  17
ATOM     16  C   UNL     1       3.350   3.501  19.967  0.00  0.00    +0.000 C 
ATOM     17  N   UNL     1       2.142   4.266  19.630  0.00  0.00    +0.000 NA
ATOM     18  C   UNL     1       0.949   3.526  20.035  0.00  0.00    +0.000 C 
ENDBRANCH  15  17
ENDBRANCH   1  15
BRANCH  10  19
ATOM     19  C   UNL     1       2.302  12.986  18.307  0.00  0.00    +0.000 C 
BRANCH  19  20
ATOM     20  C   UNL     1       2.942  14.264  18.749  0.00  0.00    +0.000 A 
ATOM     21  C   UNL     1       3.194  15.302  17.850  0.00  0.00    +0.000 A 
ATOM     22  C   UNL     1       3.910  16.419  18.267  0.00  0.00    +0.000 A 
ATOM     23  C   UNL     1       4.346  16.462  19.581  0.00  0.00    +0.000 A 
ATOM     24  N   UNL     1       4.106  15.490  20.486  0.00  0.00    +0.000 NA
ATOM     25  C   UNL     1       3.415  14.414  20.049  0.00  0.00    +0.000 A 
ENDBRANCH  19  20
ENDBRANCH  10  19
TORSDOF 4
ENDMDL
MODEL 2
REMARK VINA RESULT:      -6.1      0.696      1.045
REMARK  Name = 
REMARK  6 active torsions:
REMARK  status: ('A' for Active; 'I' for Inactive)
REMARK    1  A    between atoms: C_1  and  N_2
REMARK    2  A    between atoms: N_2  and  C_3
REMARK    3  A    between atoms: N_2  and  C_4
REMARK    4  A    between atoms: C_4  and  C_5
REMARK    5  A    between atoms: N_14  and  C_15
REMARK    6  A    between atoms: C_15  and  C_16
REMARK                            x       y       z     vdW  Elec       q    Type
REMARK                         _______ _______ _______ _____ _____    ______ ____
ROOT
ATOM      1  C   UNL     1       2.561   6.888  18.775  0.00  0.00    +0.000 C 
ATOM      2  O   UNL     1       3.169   6.691  17.722  0.00  0.00    +0.000 OA
ATOM      3  N   UNL     1       2.006   8.123  19.091  0.00  0.00    +0.000 N 
ATOM      4  C   UNL     1       1.977   9.163  18.071  0.00  0.00    +0.000 C 
ATOM      5  C   UNL     1       0.645   9.905  18.082  0.00  0.00    +0.000 C 
ATOM      6  C   UNL     1       0.313  10.464  19.481  0.00  0.00    +0.000 C 
ATOM      7  C   UNL     1       0.351   9.305  20.493  0.00  0.00    +0.000 C 
ATOM      8  C   UNL     1       1.663   8.540  20.452  0.00  0.00    +0.000 C 
ATOM      9  C   UNL     1       1.270  11.599  19.909  0.00  0.00    +0.000 C 
ATOM     10  N   UNL     1       1.137  12.755  19.033  0.00  0.00    +0.000 N 
ATOM     11  C   UNL     1      -0.132  13.237  18.740  0.00  0.00    +0.000 C 
ATOM     12  O   UNL     1      -0.343  14.366  18.303  0.00  0.00    +0.000 OA
ATOM     13  C   UNL     1      -1.236  12.164  18.786  0.00  0.00    +0.000 C 
ATOM     14  O   UNL     1      -1.033  10.979  19.541  0.00  0.00    +0.000 OA
ENDROOT
BRANCH   1  15
ATOM     15  C   UNL     1       2.332   5.729  19.758  0.00  0.00    +0.000 C 
BRANCH  15  17
ATOM     16  C   UNL     1       3.662   3.701  19.554  0.00  0.00    +0.000 C 
ATOM     17  N   UNL     1       2.476   4.422  19.072  0.00  0.00    +0.000 NA
ATOM     18  C   UNL     1       1.279   3.609  19.266  0.00  0.00    +0.000 C 
ENDBRANCH  15  17
ENDBRANCH   1  15
BRANCH  10  19
ATOM     19  C   UNL     1       2.268  13.217  18.246  0.00  0.00    +0.000 C 
BRANCH  19  20
ATOM     20  C   UNL     1       2.918  14.470  18.739  0.00  0.00    +0.000 A 
ATOM     21  C   UNL     1       3.244  14.642  20.086  0.00  0.00    +0.000 A 
ATOM     22  C   UNL     1       3.724  15.868  20.531  0.00  0.00    +0.000 A 
ATOM     23  C   UNL     1       3.869  16.888  19.605  0.00  0.00    +0.000 A 
ATOM     24  N   UNL     1       3.586  16.758  18.292  0.00  0.00    +0.000 NA
ATOM     25  C   UNL     1       3.114  15.556  17.891  0.00  0.00    +0.000 A 
ENDBRANCH  19  20
ENDBRANCH  10  19
TORSDOF 4
ENDMDL
MODEL 3
REMARK VINA RESULT:      -6.1      7.094      8.974
REMARK  Name = 
REMARK  6 active torsions:
REMARK  status: ('A' for Active; 'I' for Inactive)
REMARK    1  A    between atoms: C_1  and  N_2
REMARK    2  A    between atoms: N_2  and  C_3
REMARK    3  A    between atoms: N_2  and  C_4
REMARK    4  A    between atoms: C_4  and  C_5
REMARK    5  A    between atoms: N_14  and  C_15
REMARK    6  A    between atoms: C_15  and  C_16
REMARK                            x       y       z     vdW  Elec       q    Type
REMARK                         _______ _______ _______ _____ _____    ______ ____
ROOT
ATOM      1  C   UNL     1       1.506   3.259  18.459  0.00  0.00    +0.000 C 
ATOM      2  O   UNL     1       0.577   3.841  17.899  0.00  0.00    +0.000 OA
ATOM      3  N   UNL     1       2.834   3.633  18.276  0.00  0.00    +0.000 N 
ATOM      4  C   UNL     1       3.123   4.864  17.554  0.00  0.00    +0.000 C 
ATOM      5  C   UNL     1       4.247   5.643  18.228  0.00  0.00    +0.000 C 
ATOM      6  C   UNL     1       5.510   4.779  18.418  0.00  0.00    +0.000 C 
ATOM      7  C   UNL     1       5.121   3.510  19.199  0.00  0.00    +0.000 C 
ATOM      8  C   UNL     1       3.974   2.756  18.549  0.00  0.00    +0.000 C 
ATOM      9  C   UNL     1       6.187   4.414  17.078  0.00  0.00    +0.000 C 
ATOM     10  N   UNL     1       6.681   5.604  16.399  0.00  0.00    +0.000 N 
ATOM     11  C   UNL     1       7.428   6.528  17.116  0.00  0.00    +0.000 C 
ATOM     12  O   UNL     1       8.155   7.368  16.588  0.00  0.00    +0.000 OA
ATOM     13  C   UNL     1       7.098   6.571  18.620  0.00  0.00    +0.000 C 
ATOM     14  O   UNL     1       6.492   5.446  19.238  0.00  0.00    +0.000 OA
ENDROOT
BRANCH   1  15
ATOM     15  C   UNL     1       1.215   2.122  19.453  0.00  0.00    +0.000 C 
BRANCH  15  17
ATOM     16  C   UNL     1       2.227   2.166  21.665  0.00  0.00    +0.000 C 
ATOM     17  N   UNL     1       1.114   2.648  20.835  0.00  0.00    +0.000 NA
ATOM     18  C   UNL     1       1.090   4.109  20.825  0.00  0.00    +0.000 C 
ENDBRANCH  15  17
ENDBRANCH   1  15
BRANCH  10  19
ATOM     19  C   UNL     1       6.167   5.973  15.091  0.00  0.00    +0.000 C 
BRANCH  19  20
ATOM     20  C   UNL     1       6.403   4.971  14.007  0.00  0.00    +0.000 A 
ATOM     21  C   UNL     1       7.502   5.069  13.150  0.00  0.00    +0.000 A 
ATOM     22  C   UNL     1       7.617   4.199  12.072  0.00  0.00    +0.000 A 
ATOM     23  C   UNL     1       6.625   3.249  11.889  0.00  0.00    +0.000 A 
ATOM     24  N   UNL     1       5.560   3.108  12.704  0.00  0.00    +0.000 NA
ATOM     25  C   UNL     1       5.471   3.973  13.739  0.00  0.00    +0.000 A 
ENDBRANCH  19  20
ENDBRANCH  10  19
TORSDOF 4
ENDMDL
MODEL 4
REMARK VINA RESULT:      -5.8      7.569     10.044
REMARK  Name = 
REMARK  6 active torsions:
REMARK  status: ('A' for Active; 'I' for Inactive)
REMARK    1  A    between atoms: C_1  and  N_2
REMARK    2  A    between atoms: N_2  and  C_3
REMARK    3  A    between atoms: N_2  and  C_4
REMARK    4  A    between atoms: C_4  and  C_5
REMARK    5  A    between atoms: N_14  and  C_15
REMARK    6  A    between atoms: C_15  and  C_16
REMARK                            x       y       z     vdW  Elec       q    Type
REMARK                         _______ _______ _______ _____ _____    ______ ____
ROOT
ATOM      1  C   UNL     1       1.318   3.079  18.431  0.00  0.00    +0.000 C 
ATOM      2  O   UNL     1       0.356   3.651  17.917  0.00  0.00    +0.000 OA
ATOM      3  N   UNL     1       2.614   3.228  17.948  0.00  0.00    +0.000 N 
ATOM      4  C   UNL     1       2.871   4.234  16.925  0.00  0.00    +0.000 C 
ATOM      5  C   UNL     1       4.171   4.980  17.206  0.00  0.00    +0.000 C 
ATOM      6  C   UNL     1       5.361   4.013  17.373  0.00  0.00    +0.000 C 
ATOM      7  C   UNL     1       5.015   2.996  18.476  0.00  0.00    +0.000 C 
ATOM      8  C   UNL     1       3.699   2.283  18.217  0.00  0.00    +0.000 C 
ATOM      9  C   UNL     1       5.730   3.292  16.057  0.00  0.00    +0.000 C 
ATOM     10  N   UNL     1       6.192   4.240  15.052  0.00  0.00    +0.000 N 
ATOM     11  C   UNL     1       7.146   5.186  15.404  0.00  0.00    +0.000 C 
ATOM     12  O   UNL     1       7.831   5.794  14.585  0.00  0.00    +0.000 OA
ATOM     13  C   UNL     1       7.117   5.582  16.892  0.00  0.00    +0.000 C 
ATOM     14  O   UNL     1       6.540   4.699  17.843  0.00  0.00    +0.000 OA
ENDROOT
BRANCH   1  15
ATOM     15  C   UNL     1       1.120   2.222  19.691  0.00  0.00    +0.000 C 
BRANCH  15  17
ATOM     16  C   UNL     1       2.535   2.745  21.600  0.00  0.00    +0.000 C 
ATOM     17  N   UNL     1       1.271   3.046  20.915  0.00  0.00    +0.000 NA
ATOM     18  C   UNL     1       1.203   4.467  20.584  0.00  0.00    +0.000 C 
ENDBRANCH  15  17
ENDBRANCH   1  15
BRANCH  10  19
ATOM     19  C   UNL     1       5.471   4.396  13.800  0.00  0.00    +0.000 C 
BRANCH  19  20
ATOM     20  C   UNL     1       5.913   3.493  12.693  0.00  0.00    +0.000 A 
ATOM     21  C   UNL     1       5.029   2.602  12.081  0.00  0.00    +0.000 A 
ATOM     22  C   UNL     1       5.504   1.686  11.150  0.00  0.00    +0.000 A 
ATOM     23  C   UNL     1       6.857   1.697  10.855  0.00  0.00    +0.000 A 
ATOM     24  N   UNL     1       7.741   2.554  11.407  0.00  0.00    +0.000 NA
ATOM     25  C   UNL     1       7.250   3.428  12.314  0.00  0.00    +0.000 A 
ENDBRANCH  19  20
ENDBRANCH  10  19
TORSDOF 4
ENDMDL
MODEL 5
REMARK VINA RESULT:      -5.7      2.623      5.215
REMARK  Name = 
REMARK  6 active torsions:
REMARK  status: ('A' for Active; 'I' for Inactive)
REMARK    1  A    between atoms: C_1  and  N_2
REMARK    2  A    between atoms: N_2  and  C_3
REMARK    3  A    between atoms: N_2  and  C_4
REMARK    4  A    between atoms: C_4  and  C_5
REMARK    5  A    between atoms: N_14  and  C_15
REMARK    6  A    between atoms: C_15  and  C_16
REMARK                            x       y       z     vdW  Elec       q    Type
REMARK                         _______ _______ _______ _____ _____    ______ ____
ROOT
ATOM      1  C   UNL     1       2.057   7.443  19.627  0.00  0.00    +0.000 C 
ATOM      2  O   UNL     1       1.677   6.805  20.609  0.00  0.00    +0.000 OA
ATOM      3  N   UNL     1       1.567   8.711  19.331  0.00  0.00    +0.000 N 
ATOM      4  C   UNL     1       0.723   9.384  20.310  0.00  0.00    +0.000 C 
ATOM      5  C   UNL     1       1.087  10.860  20.424  0.00  0.00    +0.000 C 
ATOM      6  C   UNL     1       1.052  11.567  19.053  0.00  0.00    +0.000 C 
ATOM      7  C   UNL     1       1.977  10.804  18.086  0.00  0.00    +0.000 C 
ATOM      8  C   UNL     1       1.640   9.325  18.005  0.00  0.00    +0.000 C 
ATOM      9  C   UNL     1      -0.378  11.674  18.477  0.00  0.00    +0.000 C 
ATOM     10  N   UNL     1      -1.220  12.511  19.319  0.00  0.00    +0.000 N 
ATOM     11  C   UNL     1      -0.742  13.745  19.738  0.00  0.00    +0.000 C 
ATOM     12  O   UNL     1      -1.467  14.647  20.155  0.00  0.00    +0.000 OA
ATOM     13  C   UNL     1       0.792  13.816  19.858  0.00  0.00    +0.000 C 
ATOM     14  O   UNL     1       1.596  12.901  19.129  0.00  0.00    +0.000 OA
ENDROOT
BRANCH   1  15
ATOM     15  C   UNL     1       3.159   6.874  18.719  0.00  0.00    +0.000 C 
BRANCH  15  17
ATOM     16  C   UNL     1       2.876   4.585  17.943  0.00  0.00    +0.000 C 
ATOM     17  N   UNL     1       3.396   5.441  19.018  0.00  0.00    +0.000 NA
ATOM     18  C   UNL     1       4.821   5.189  19.216  0.00  0.00    +0.000 C 
ENDBRANCH  15  17
ENDBRANCH   1  15
BRANCH  10  19
ATOM     19  C   UNL     1      -2.406  11.960  19.955  0.00  0.00    +0.000 C 
BRANCH  19  20
ATOM     20  C   UNL     1      -3.672  12.099  19.171  0.00  0.00    +0.000 A 
ATOM     21  C   UNL     1      -4.809  12.696  19.720  0.00  0.00    +0.000 A 
ATOM     22  C   UNL     1      -6.005  12.688  19.012  0.00  0.00    +0.000 A 
ATOM     23  C   UNL     1      -6.023  12.084  17.766  0.00  0.00    +0.000 A 
ATOM     24  N   UNL     1      -4.943  11.514  17.191  0.00  0.00    +0.000 NA
ATOM     25  C   UNL     1      -3.797  11.531  17.906  0.00  0.00    +0.000 A 
ENDBRANCH  19  20
ENDBRANCH  10  19
TORSDOF 4
ENDMDL
MODEL 6
REMARK VINA RESULT:      -5.7      4.994      8.359
REMARK  Name = 
REMARK  6 active torsions:
REMARK  status: ('A' for Active; 'I' for Inactive)
REMARK    1  A    between atoms: C_1  and  N_2
REMARK    2  A    between atoms: N_2  and  C_3
REMARK    3  A    between atoms: N_2  and  C_4
REMARK    4  A    between atoms: C_4  and  C_5
REMARK    5  A    between atoms: N_14  and  C_15
REMARK    6  A    between atoms: C_15  and  C_16
REMARK                            x       y       z     vdW  Elec       q    Type
REMARK                         _______ _______ _______ _____ _____    ______ ____
ROOT
ATOM      1  C   UNL     1       5.663   4.594  14.955  0.00  0.00    +0.000 C 
ATOM      2  O   UNL     1       4.798   4.482  14.086  0.00  0.00    +0.000 OA
ATOM      3  N   UNL     1       5.375   4.473  16.310  0.00  0.00    +0.000 N 
ATOM      4  C   UNL     1       4.050   4.013  16.708  0.00  0.00    +0.000 C 
ATOM      5  C   UNL     1       4.139   3.021  17.862  0.00  0.00    +0.000 C 
ATOM      6  C   UNL     1       4.927   3.600  19.055  0.00  0.00    +0.000 C 
ATOM      7  C   UNL     1       6.313   4.047  18.555  0.00  0.00    +0.000 C 
ATOM      8  C   UNL     1       6.225   5.003  17.377  0.00  0.00    +0.000 C 
ATOM      9  C   UNL     1       4.188   4.768  19.745  0.00  0.00    +0.000 C 
ATOM     10  N   UNL     1       2.938   4.317  20.342  0.00  0.00    +0.000 N 
ATOM     11  C   UNL     1       2.940   3.174  21.130  0.00  0.00    +0.000 C 
ATOM     12  O   UNL     1       2.047   2.902  21.929  0.00  0.00    +0.000 OA
ATOM     13  C   UNL     1       4.035   2.157  20.758  0.00  0.00    +0.000 C 
ATOM     14  O   UNL     1       5.189   2.594  20.056  0.00  0.00    +0.000 OA
ENDROOT
BRANCH   1  15
ATOM     15  C   UNL     1       7.133   4.807  14.555  0.00  0.00    +0.000 C 
BRANCH  15  17
ATOM     16  C   UNL     1       8.511   5.849  12.841  0.00  0.00    +0.000 C 
ATOM     17  N   UNL     1       7.237   5.172  13.121  0.00  0.00    +0.000 NA
ATOM     18  C   UNL     1       7.103   3.985  12.281  0.00  0.00    +0.000 C 
ENDBRANCH  15  17
ENDBRANCH   1  15
BRANCH  10  19
ATOM     19  C   UNL     1       1.668   4.865  19.894  0.00  0.00    +0.000 C 
BRANCH  19  20
ATOM     20  C   UNL     1       1.699   6.308  19.501  0.00  0.00    +0.000 A 
ATOM     21  C   UNL     1       2.088   6.707  18.221  0.00  0.00    +0.000 A 
ATOM     22  C   UNL     1       2.233   8.059  17.933  0.00  0.00    +0.000 A 
ATOM     23  C   UNL     1       1.976   8.974  18.940  0.00  0.00    +0.000 A 
ATOM     24  N   UNL     1       1.578   8.631  20.183  0.00  0.00    +0.000 NA
ATOM     25  C   UNL     1       1.454   7.309  20.436  0.00  0.00    +0.000 A 
ENDBRANCH  19  20
ENDBRANCH  10  19
TORSDOF 4
ENDMDL
MODEL 7
REMARK VINA RESULT:      -5.6      2.586      5.103
REMARK  Name = 
REMARK  6 active torsions:
REMARK  status: ('A' for Active; 'I' for Inactive)
REMARK    1  A    between atoms: C_1  and  N_2
REMARK    2  A    between atoms: N_2  and  C_3
REMARK    3  A    between atoms: N_2  and  C_4
REMARK    4  A    between atoms: C_4  and  C_5
REMARK    5  A    between atoms: N_14  and  C_15
REMARK    6  A    between atoms: C_15  and  C_16
REMARK                            x       y       z     vdW  Elec       q    Type
REMARK                         _______ _______ _______ _____ _____    ______ ____
ROOT
ATOM      1  C   UNL     1       1.804   7.455  20.046  0.00  0.00    +0.000 C 
ATOM      2  O   UNL     1       1.403   6.928  21.084  0.00  0.00    +0.000 OA
ATOM      3  N   UNL     1       1.374   8.713  19.638  0.00  0.00    +0.000 N 
ATOM      4  C   UNL     1       0.572   9.513  20.555  0.00  0.00    +0.000 C 
ATOM      5  C   UNL     1       1.008  10.973  20.533  0.00  0.00    +0.000 C 
ATOM      6  C   UNL     1       0.995  11.553  19.103  0.00  0.00    +0.000 C 
ATOM      7  C   UNL     1       1.872  10.662  18.206  0.00  0.00    +0.000 C 
ATOM      8  C   UNL     1       1.464   9.200  18.261  0.00  0.00    +0.000 C 
ATOM      9  C   UNL     1      -0.434  11.678  18.527  0.00  0.00    +0.000 C 
ATOM     10  N   UNL     1      -1.227  12.628  19.293  0.00  0.00    +0.000 N 
ATOM     11  C   UNL     1      -0.686  13.871  19.596  0.00  0.00    +0.000 C 
ATOM     12  O   UNL     1      -1.362  14.841  19.932  0.00  0.00    +0.000 OA
ATOM     13  C   UNL     1       0.851  13.876  19.702  0.00  0.00    +0.000 C 
ATOM     14  O   UNL     1       1.603  12.860  19.055  0.00  0.00    +0.000 OA
ENDROOT
BRANCH   1  15
ATOM     15  C   UNL     1       2.869   6.752  19.189  0.00  0.00    +0.000 C 
BRANCH  15  17
ATOM     16  C   UNL     1       2.349   4.856  17.754  0.00  0.00    +0.000 C 
ATOM     17  N   UNL     1       2.617   5.292  19.131  0.00  0.00    +0.000 NA
ATOM     18  C   UNL     1       3.752   4.555  19.681  0.00  0.00    +0.000 C 
ENDBRANCH  15  17
ENDBRANCH   1  15
BRANCH  10  19
ATOM     19  C   UNL     1      -2.432  12.196  19.982  0.00  0.00    +0.000 C 
BRANCH  19  20
ATOM     20  C   UNL     1      -3.657  12.106  19.128  0.00  0.00    +0.000 A 
ATOM     21  C   UNL     1      -3.612  11.560  17.843  0.00  0.00    +0.000 A 
ATOM     22  C   UNL     1      -4.738  11.615  17.029  0.00  0.00    +0.000 A 
ATOM     23  C   UNL     1      -5.881  12.212  17.534  0.00  0.00    +0.000 A 
ATOM     24  N   UNL     1      -5.972  12.732  18.776  0.00  0.00    +0.000 NA
ATOM     25  C   UNL     1      -4.860  12.671  19.541  0.00  0.00    +0.000 A 
ENDBRANCH  19  20
ENDBRANCH  10  19
TORSDOF 4
ENDMDL
MODEL 8
REMARK VINA RESULT:      -5.6      2.774      5.028
REMARK  Name = 
REMARK  6 active torsions:
REMARK  status: ('A' for Active; 'I' for Inactive)
REMARK    1  A    between atoms: C_1  and  N_2
REMARK    2  A    between atoms: N_2  and  C_3
REMARK    3  A    between atoms: N_2  and  C_4
REMARK    4  A    between atoms: C_4  and  C_5
REMARK    5  A    between atoms: N_14  and  C_15
REMARK    6  A    between atoms: C_15  and  C_16
REMARK                            x       y       z     vdW  Elec       q    Type
REMARK                         _______ _______ _______ _____ _____    ______ ____
ROOT
ATOM      1  C   UNL     1       2.442   5.510  20.253  0.00  0.00    +0.000 C 
ATOM      2  O   UNL     1       1.935   5.203  21.332  0.00  0.00    +0.000 OA
ATOM      3  N   UNL     1       2.104   6.679  19.580  0.00  0.00    +0.000 N 
ATOM      4  C   UNL     1       1.270   7.663  20.257  0.00  0.00    +0.000 C 
ATOM      5  C   UNL     1       1.773   9.079  19.999  0.00  0.00    +0.000 C 
ATOM      6  C   UNL     1       1.900   9.375  18.491  0.00  0.00    +0.000 C 
ATOM      7  C   UNL     1       2.805   8.303  17.856  0.00  0.00    +0.000 C 
ATOM      8  C   UNL     1       2.326   6.892  18.149  0.00  0.00    +0.000 C 
ATOM      9  C   UNL     1       0.530   9.430  17.779  0.00  0.00    +0.000 C 
ATOM     10  N   UNL     1      -0.277  10.533  18.281  0.00  0.00    +0.000 N 
ATOM     11  C   UNL     1       0.295  11.794  18.391  0.00  0.00    +0.000 C 
ATOM     12  O   UNL     1      -0.361  12.830  18.479  0.00  0.00    +0.000 OA
ATOM     13  C   UNL     1       1.816  11.773  18.628  0.00  0.00    +0.000 C 
ATOM     14  O   UNL     1       2.570  10.631  18.251  0.00  0.00    +0.000 OA
ENDROOT
BRANCH   1  15
ATOM     15  C   UNL     1       3.539   4.624  19.639  0.00  0.00    +0.000 C 
BRANCH  15  17
ATOM     16  C   UNL     1       2.145   3.142  18.305  0.00  0.00    +0.000 C 
ATOM     17  N   UNL     1       3.051   3.236  19.457  0.00  0.00    +0.000 NA
ATOM     18  C   UNL     1       4.175   2.318  19.288  0.00  0.00    +0.000 C 
ENDBRANCH  15  17
ENDBRANCH   1  15
BRANCH  10  19
ATOM     19  C   UNL     1      -1.552  10.277  18.931  0.00  0.00    +0.000 C 
BRANCH  19  20
ATOM     20  C   UNL     1      -2.761  10.654  18.134  0.00  0.00    +0.000 A 
ATOM     21  C   UNL     1      -2.899  10.278  16.796  0.00  0.00    +0.000 A 
ATOM     22  C   UNL     1      -3.970  10.759  16.051  0.00  0.00    +0.000 A 
ATOM     23  C   UNL     1      -4.876  11.599  16.675  0.00  0.00    +0.000 A 
ATOM     24  N   UNL     1      -4.791  11.969  17.970  0.00  0.00    +0.000 NA
ATOM     25  C   UNL     1      -3.735  11.493  18.667  0.00  0.00    +0.000 A 
ENDBRANCH  19  20
ENDBRANCH  10  19
TORSDOF 4
ENDMDL
MODEL 9
REMARK VINA RESULT:      -5.6      3.236      8.167
REMARK  Name = 
REMARK  6 active torsions:
REMARK  status: ('A' for Active; 'I' for Inactive)
REMARK    1  A    between atoms: C_1  and  N_2
REMARK    2  A    between atoms: N_2  and  C_3
REMARK    3  A    between atoms: N_2  and  C_4
REMARK    4  A    between atoms: C_4  and  C_5
REMARK    5  A    between atoms: N_14  and  C_15
REMARK    6  A    between atoms: C_15  and  C_16
REMARK                            x       y       z     vdW  Elec       q    Type
REMARK                         _______ _______ _______ _____ _____    ______ ____
ROOT
ATOM      1  C   UNL     1       1.477   8.595  20.526  0.00  0.00    +0.000 C 
ATOM      2  O   UNL     1       1.878   8.678  21.688  0.00  0.00    +0.000 OA
ATOM      3  N   UNL     1       1.825   7.535  19.695  0.00  0.00    +0.000 N 
ATOM      4  C   UNL     1       2.526   6.394  20.269  0.00  0.00    +0.000 C 
ATOM      5  C   UNL     1       1.980   5.082  19.717  0.00  0.00    +0.000 C 
ATOM      6  C   UNL     1       2.004   5.054  18.175  0.00  0.00    +0.000 C 
ATOM      7  C   UNL     1       1.233   6.280  17.652  0.00  0.00    +0.000 C 
ATOM      8  C   UNL     1       1.751   7.584  18.234  0.00  0.00    +0.000 C 
ATOM      9  C   UNL     1       3.439   5.023  17.604  0.00  0.00    +0.000 C 
ATOM     10  N   UNL     1       4.127   3.796  17.983  0.00  0.00    +0.000 N 
ATOM     11  C   UNL     1       3.480   2.579  17.812  0.00  0.00    +0.000 C 
ATOM     12  O   UNL     1       4.066   1.499  17.781  0.00  0.00    +0.000 OA
ATOM     13  C   UNL     1       1.945   2.668  17.897  0.00  0.00    +0.000 C 
ATOM     14  O   UNL     1       1.299   3.909  17.654  0.00  0.00    +0.000 OA
ENDROOT
BRANCH   1  15
ATOM     15  C   UNL     1       0.503   9.648  19.971  0.00  0.00    +0.000 C 
BRANCH  15  17
ATOM     16  C   UNL     1       0.972  11.988  19.500  0.00  0.00    +0.000 C 
ATOM     17  N   UNL     1       0.786  10.982  20.553  0.00  0.00    +0.000 NA
ATOM     18  C   UNL     1      -0.293  11.386  21.451  0.00  0.00    +0.000 C 
ENDBRANCH  15  17
ENDBRANCH   1  15
BRANCH  10  19
ATOM     19  C   UNL     1       5.334   3.847  18.791  0.00  0.00    +0.000 C 
BRANCH  19  20
ATOM     20  C   UNL     1       6.336   4.878  18.376  0.00  0.00    +0.000 A 
ATOM     21  C   UNL     1       7.065   5.607  19.318  0.00  0.00    +0.000 A 
ATOM     22  C   UNL     1       7.887   6.648  18.901  0.00  0.00    +0.000 A 
ATOM     23  C   UNL     1       7.957   6.922  17.545  0.00  0.00    +0.000 A 
ATOM     24  N   UNL     1       7.286   6.229  16.602  0.00  0.00    +0.000 NA
ATOM     25  C   UNL     1       6.489   5.229  17.038  0.00  0.00    +0.000 A 
ENDBRANCH  19  20
ENDBRANCH  10  19
TORSDOF 4
ENDMDL
