MODEL 1
REMARK VINA RESULT:      -8.1      0.000      0.000
REMARK  Name = 
REMARK  10 active torsions:
REMARK  status: ('A' for Active; 'I' for Inactive)
REMARK    1  A    between atoms: C_1  and  C_2
REMARK    2  A    between atoms: C_2  and  N_25
REMARK    3  A    between atoms: C_3  and  O_4
REMARK    4  A    between atoms: C_3  and  C_17
REMARK    5  A    between atoms: O_4  and  C_5
REMARK    6  A    between atoms: C_5  and  C_6
REMARK    7  A    between atoms: C_6  and  C_7
REMARK    8  A    between atoms: C_7  and  C_8
REMARK    9  A    between atoms: C_8  and  O_9
REMARK   10  A    between atoms: O_9  and  C_10
REMARK                            x       y       z     vdW  Elec       q    Type
REMARK                         _______ _______ _______ _____ _____    ______ ____
ROOT
ATOM      1  C   UNL     1       3.545   2.253  17.854  0.00  0.00    +0.000 C 
ATOM      2  C   UNL     1       3.423   3.443  18.794  0.00  0.00    +0.000 C 
ATOM      3  C   UNL     1       4.062   4.637  18.548  0.00  0.00    +0.000 C 
ENDROOT
BRANCH   3   4
ATOM      4  C   UNL     1       5.025   4.787  17.423  0.00  0.00    +0.000 A 
ATOM      5  C   UNL     1       4.537   4.874  16.105  0.00  0.00    +0.000 A 
ATOM      6  C   UNL     1       5.414   4.922  15.017  0.00  0.00    +0.000 A 
ATOM      7  C   UNL     1       6.783   4.853  15.240  0.00  0.00    +0.000 A 
ATOM      8  F   UNL     1       7.621   4.856  14.196  0.00  0.00    +0.000 F 
ATOM      9  C   UNL     1       7.292   4.757  16.531  0.00  0.00    +0.000 A 
ATOM     10  C   UNL     1       6.412   4.730  17.613  0.00  0.00    +0.000 A 
ATOM     11  F   UNL     1       6.918   4.630  18.853  0.00  0.00    +0.000 F 
ENDBRANCH   3   4
BRANCH   2  12
ATOM     12  N   UNL     1       2.642   3.106  19.943  0.00  0.00    +0.000 N 
ATOM     13  C   UNL     1       3.126   2.714  21.192  0.00  0.00    +0.000 A 
ATOM     14  N   UNL     1       2.158   2.492  22.050  0.00  0.00    +0.000 NA
ATOM     15  C   UNL     1       1.057   2.802  21.332  0.00  0.00    +0.000 A 
ATOM     16  N   UNL     1       1.293   3.250  20.098  0.00  0.00    +0.000 NA
ENDBRANCH   2  12
BRANCH   3  17
ATOM     17  O   UNL     1       3.939   5.883  19.153  0.00  0.00    +0.000 OA
BRANCH  17  18
ATOM     18  C   UNL     1       2.784   6.647  18.886  0.00  0.00    +0.000 C 
BRANCH  18  19
ATOM     19  C   UNL     1       2.959   7.847  17.957  0.00  0.00    +0.000 C 
BRANCH  19  20
ATOM     20  C   UNL     1       1.602   8.581  17.798  0.00  0.00    +0.000 C 
BRANCH  20  21
ATOM     21  C   UNL     1       1.480   9.757  18.777  0.00  0.00    +0.000 C 
BRANCH  21  22
ATOM     22  O   UNL     1       0.135  10.187  19.005  0.00  0.00    +0.000 OA
BRANCH  22  23
ATOM     23  C   UNL     1      -0.201  10.223  20.350  0.00  0.00    +0.000 A 
ATOM     24  C   UNL     1       0.075   9.165  21.232  0.00  0.00    +0.000 A 
ATOM     25  C   UNL     1      -0.264   9.241  22.586  0.00  0.00    +0.000 A 
ATOM     26  C   UNL     1      -0.877  10.383  23.085  0.00  0.00    +0.000 A 
ATOM     27  C   UNL     1      -1.155  11.447  22.231  0.00  0.00    +0.000 A 
ATOM     28  C   UNL     1      -0.822  11.369  20.866  0.00  0.00    +0.000 A 
ATOM     29 CL   UNL     1      -1.248  12.703  19.856  0.00  0.00    +0.000 Cl
ENDBRANCH  22  23
ENDBRANCH  21  22
ENDBRANCH  20  21
ENDBRANCH  19  20
ENDBRANCH  18  19
ENDBRANCH  17  18
ENDBRANCH   3  17
TORSDOF 9
ENDMDL
MODEL 2
REMARK VINA RESULT:      -7.8      1.015      1.377
REMARK  Name = 
REMARK  10 active torsions:
REMARK  status: ('A' for Active; 'I' for Inactive)
REMARK    1  A    between atoms: C_1  and  C_2
REMARK    2  A    between atoms: C_2  and  N_25
REMARK    3  A    between atoms: C_3  and  O_4
REMARK    4  A    between atoms: C_3  and  C_17
REMARK    5  A    between atoms: O_4  and  C_5
REMARK    6  A    between atoms: C_5  and  C_6
REMARK    7  A    between atoms: C_6  and  C_7
REMARK    8  A    between atoms: C_7  and  C_8
REMARK    9  A    between atoms: C_8  and  O_9
REMARK   10  A    between atoms: O_9  and  C_10
REMARK                            x       y       z     vdW  Elec       q    Type
REMARK                         _______ _______ _______ _____ _____    ______ ____
ROOT
ATOM      1  C   UNL     1       3.697   2.236  17.853  0.00  0.00    +0.000 C 
ATOM      2  C   UNL     1       3.496   3.466  18.725  0.00  0.00    +0.000 C 
ATOM      3  C   UNL     1       4.087   4.674  18.433  0.00  0.00    +0.000 C 
ENDROOT
BRANCH   3   4
ATOM      4  C   UNL     1       5.074   4.810  17.327  0.00  0.00    +0.000 A 
ATOM      5  C   UNL     1       4.616   4.855  15.996  0.00  0.00    +0.000 A 
ATOM      6  C   UNL     1       5.516   4.889  14.928  0.00  0.00    +0.000 A 
ATOM      7  C   UNL     1       6.881   4.847  15.184  0.00  0.00    +0.000 A 
ATOM      8  F   UNL     1       7.743   4.836  14.159  0.00  0.00    +0.000 F 
ATOM      9  C   UNL     1       7.361   4.793  16.487  0.00  0.00    +0.000 A 
ATOM     10  C   UNL     1       6.457   4.780  17.550  0.00  0.00    +0.000 A 
ATOM     11  F   UNL     1       6.935   4.720  18.803  0.00  0.00    +0.000 F 
ENDBRANCH   3   4
BRANCH   2  12
ATOM     12  N   UNL     1       2.698   3.153  19.870  0.00  0.00    +0.000 N 
ATOM     13  C   UNL     1       3.162   2.706  21.108  0.00  0.00    +0.000 A 
ATOM     14  N   UNL     1       2.184   2.526  21.966  0.00  0.00    +0.000 NA
ATOM     15  C   UNL     1       1.102   2.917  21.259  0.00  0.00    +0.000 A 
ATOM     16  N   UNL     1       1.362   3.376  20.033  0.00  0.00    +0.000 NA
ENDBRANCH   2  12
BRANCH   3  17
ATOM     17  O   UNL     1       3.892   5.942  18.968  0.00  0.00    +0.000 OA
BRANCH  17  18
ATOM     18  C   UNL     1       2.719   6.643  18.620  0.00  0.00    +0.000 C 
BRANCH  18  19
ATOM     19  C   UNL     1       2.910   8.012  17.969  0.00  0.00    +0.000 C 
BRANCH  19  20
ATOM     20  C   UNL     1       1.526   8.673  17.736  0.00  0.00    +0.000 C 
BRANCH  20  21
ATOM     21  C   UNL     1       1.252   9.783  18.760  0.00  0.00    +0.000 C 
BRANCH  21  22
ATOM     22  O   UNL     1      -0.129   9.933  19.101  0.00  0.00    +0.000 OA
BRANCH  22  23
ATOM     23  C   UNL     1      -0.326  10.707  20.234  0.00  0.00    +0.000 A 
ATOM     24  C   UNL     1      -0.409  12.109  20.194  0.00  0.00    +0.000 A 
ATOM     25  C   UNL     1      -0.624  12.857  21.356  0.00  0.00    +0.000 A 
ATOM     26  C   UNL     1      -0.771  12.214  22.578  0.00  0.00    +0.000 A 
ATOM     27  C   UNL     1      -0.699  10.825  22.641  0.00  0.00    +0.000 A 
ATOM     28  C   UNL     1      -0.474  10.070  21.476  0.00  0.00    +0.000 A 
ATOM     29 CL   UNL     1      -0.340   8.357  21.638  0.00  0.00    +0.000 Cl
ENDBRANCH  22  23
ENDBRANCH  21  22
ENDBRANCH  20  21
ENDBRANCH  19  20
ENDBRANCH  18  19
ENDBRANCH  17  18
ENDBRANCH   3  17
TORSDOF 9
ENDMDL
MODEL 3
REMARK VINA RESULT:      -7.8      1.382      1.902
REMARK  Name = 
REMARK  10 active torsions:
REMARK  status: ('A' for Active; 'I' for Inactive)
REMARK    1  A    between atoms: C_1  and  C_2
REMARK    2  A    between atoms: C_2  and  N_25
REMARK    3  A    between atoms: C_3  and  O_4
REMARK    4  A    between atoms: C_3  and  C_17
REMARK    5  A    between atoms: O_4  and  C_5
REMARK    6  A    between atoms: C_5  and  C_6
REMARK    7  A    between atoms: C_6  and  C_7
REMARK    8  A    between atoms: C_7  and  C_8
REMARK    9  A    between atoms: C_8  and  O_9
REMARK   10  A    between atoms: O_9  and  C_10
REMARK                            x       y       z     vdW  Elec       q    Type
REMARK                         _______ _______ _______ _____ _____    ______ ____
ROOT
ATOM      1  C   UNL     1       3.611   2.370  17.797  0.00  0.00    +0.000 C 
ATOM      2  C   UNL     1       3.478   3.555  18.740  0.00  0.00    +0.000 C 
ATOM      3  C   UNL     1       4.129   4.747  18.514  0.00  0.00    +0.000 C 
ENDROOT
BRANCH   3   4
ATOM      4  C   UNL     1       5.118   4.896  17.411  0.00  0.00    +0.000 A 
ATOM      5  C   UNL     1       4.657   5.108  16.098  0.00  0.00    +0.000 A 
ATOM      6  C   UNL     1       5.550   5.161  15.023  0.00  0.00    +0.000 A 
ATOM      7  C   UNL     1       6.907   4.970  15.254  0.00  0.00    +0.000 A 
ATOM      8  F   UNL     1       7.758   4.978  14.220  0.00  0.00    +0.000 F 
ATOM      9  C   UNL     1       7.388   4.749  16.539  0.00  0.00    +0.000 A 
ATOM     10  C   UNL     1       6.493   4.719  17.609  0.00  0.00    +0.000 A 
ATOM     11  F   UNL     1       6.972   4.497  18.844  0.00  0.00    +0.000 F 
ENDBRANCH   3   4
BRANCH   2  12
ATOM     12  N   UNL     1       2.669   3.218  19.870  0.00  0.00    +0.000 N 
ATOM     13  C   UNL     1       3.124   2.808  21.124  0.00  0.00    +0.000 A 
ATOM     14  N   UNL     1       2.136   2.591  21.961  0.00  0.00    +0.000 NA
ATOM     15  C   UNL     1       1.054   2.922  21.225  0.00  0.00    +0.000 A 
ATOM     16  N   UNL     1       1.320   3.379  20.000  0.00  0.00    +0.000 NA
ENDBRANCH   2  12
BRANCH   3  17
ATOM     17  O   UNL     1       4.002   5.990  19.123  0.00  0.00    +0.000 OA
BRANCH  17  18
ATOM     18  C   UNL     1       2.748   6.633  19.078  0.00  0.00    +0.000 C 
BRANCH  18  19
ATOM     19  C   UNL     1       2.384   7.328  17.767  0.00  0.00    +0.000 C 
BRANCH  19  20
ATOM     20  C   UNL     1       2.262   8.856  18.006  0.00  0.00    +0.000 C 
BRANCH  20  21
ATOM     21  C   UNL     1       1.190   9.177  19.057  0.00  0.00    +0.000 C 
BRANCH  21  22
ATOM     22  O   UNL     1       0.745  10.536  19.037  0.00  0.00    +0.000 OA
BRANCH  22  23
ATOM     23  C   UNL     1      -0.576  10.668  18.637  0.00  0.00    +0.000 A 
ATOM     24  C   UNL     1      -1.154   9.859  17.644  0.00  0.00    +0.000 A 
ATOM     25  C   UNL     1      -2.495  10.009  17.275  0.00  0.00    +0.000 A 
ATOM     26  C   UNL     1      -3.284  10.964  17.902  0.00  0.00    +0.000 A 
ATOM     27  C   UNL     1      -2.734  11.773  18.892  0.00  0.00    +0.000 A 
ATOM     28  C   UNL     1      -1.384  11.630  19.259  0.00  0.00    +0.000 A 
ATOM     29 CL   UNL     1      -0.755  12.706  20.455  0.00  0.00    +0.000 Cl
ENDBRANCH  22  23
ENDBRANCH  21  22
ENDBRANCH  20  21
ENDBRANCH  19  20
ENDBRANCH  18  19
ENDBRANCH  17  18
ENDBRANCH   3  17
TORSDOF 9
ENDMDL
MODEL 4
REMARK VINA RESULT:      -7.7      2.932      4.986
REMARK  Name = 
REMARK  10 active torsions:
REMARK  status: ('A' for Active; 'I' for Inactive)
REMARK    1  A    between atoms: C_1  and  C_2
REMARK    2  A    between atoms: C_2  and  N_25
REMARK    3  A    between atoms: C_3  and  O_4
REMARK    4  A    between atoms: C_3  and  C_17
REMARK    5  A    between atoms: O_4  and  C_5
REMARK    6  A    between atoms: C_5  and  C_6
REMARK    7  A    between atoms: C_6  and  C_7
REMARK    8  A    between atoms: C_7  and  C_8
REMARK    9  A    between atoms: C_8  and  O_9
REMARK   10  A    between atoms: O_9  and  C_10
REMARK                            x       y       z     vdW  Elec       q    Type
REMARK                         _______ _______ _______ _____ _____    ______ ____
ROOT
ATOM      1  C   UNL     1       5.597   3.676  18.718  0.00  0.00    +0.000 C 
ATOM      2  C   UNL     1       4.863   4.632  17.791  0.00  0.00    +0.000 C 
ATOM      3  C   UNL     1       3.555   5.004  18.010  0.00  0.00    +0.000 C 
ENDROOT
BRANCH   3   4
ATOM      4  C   UNL     1       2.738   4.378  19.086  0.00  0.00    +0.000 A 
ATOM      5  C   UNL     1       2.819   4.887  20.396  0.00  0.00    +0.000 A 
ATOM      6  C   UNL     1       2.138   4.269  21.449  0.00  0.00    +0.000 A 
ATOM      7  C   UNL     1       1.399   3.119  21.203  0.00  0.00    +0.000 A 
ATOM      8  F   UNL     1       0.782   2.503  22.219  0.00  0.00    +0.000 F 
ATOM      9  C   UNL     1       1.310   2.590  19.920  0.00  0.00    +0.000 A 
ATOM     10  C   UNL     1       1.974   3.224  18.870  0.00  0.00    +0.000 A 
ATOM     11  F   UNL     1       1.886   2.696  17.639  0.00  0.00    +0.000 F 
ENDBRANCH   3   4
BRANCH   2  12
ATOM     12  N   UNL     1       5.687   4.998  16.682  0.00  0.00    +0.000 N 
ATOM     13  C   UNL     1       6.933   5.625  16.744  0.00  0.00    +0.000 A 
ATOM     14  N   UNL     1       7.453   5.810  15.553  0.00  0.00    +0.000 NA
ATOM     15  C   UNL     1       6.533   5.242  14.743  0.00  0.00    +0.000 A 
ATOM     16  N   UNL     1       5.502   4.672  15.369  0.00  0.00    +0.000 NA
ENDBRANCH   2  12
BRANCH   3  17
ATOM     17  O   UNL     1       2.771   5.987  17.418  0.00  0.00    +0.000 OA
BRANCH  17  18
ATOM     18  C   UNL     1       3.058   7.338  17.706  0.00  0.00    +0.000 C 
BRANCH  18  19
ATOM     19  C   UNL     1       2.070   8.066  18.615  0.00  0.00    +0.000 C 
BRANCH  19  20
ATOM     20  C   UNL     1       1.816   9.494  18.066  0.00  0.00    +0.000 C 
BRANCH  20  21
ATOM     21  C   UNL     1       0.686  10.198  18.829  0.00  0.00    +0.000 C 
BRANCH  21  22
ATOM     22  O   UNL     1       1.138  11.046  19.889  0.00  0.00    +0.000 OA
BRANCH  22  23
ATOM     23  C   UNL     1       0.219  11.160  20.921  0.00  0.00    +0.000 A 
ATOM     24  C   UNL     1      -0.752  12.174  20.965  0.00  0.00    +0.000 A 
ATOM     25  C   UNL     1      -1.674  12.251  22.014  0.00  0.00    +0.000 A 
ATOM     26  C   UNL     1      -1.646  11.307  23.033  0.00  0.00    +0.000 A 
ATOM     27  C   UNL     1      -0.696  10.290  23.006  0.00  0.00    +0.000 A 
ATOM     28  C   UNL     1       0.238  10.215  21.957  0.00  0.00    +0.000 A 
ATOM     29 CL   UNL     1       1.422   8.961  22.019  0.00  0.00    +0.000 Cl
ENDBRANCH  22  23
ENDBRANCH  21  22
ENDBRANCH  20  21
ENDBRANCH  19  20
ENDBRANCH  18  19
ENDBRANCH  17  18
ENDBRANCH   3  17
TORSDOF 9
ENDMDL
MODEL 5
REMARK VINA RESULT:      -7.7      2.697      4.797
REMARK  Name = 
REMARK  10 active torsions:
REMARK  status: ('A' for Active; 'I' for Inactive)
REMARK    1  A    between atoms: C_1  and  C_2
REMARK    2  A    between atoms: C_2  and  N_25
REMARK    3  A    between atoms: C_3  and  O_4
REMARK    4  A    between atoms: C_3  and  C_17
REMARK    5  A    between atoms: O_4  and  C_5
REMARK    6  A    between atoms: C_5  and  C_6
REMARK    7  A    between atoms: C_6  and  C_7
REMARK    8  A    between atoms: C_7  and  C_8
REMARK    9  A    between atoms: C_8  and  O_9
REMARK   10  A    between atoms: O_9  and  C_10
REMARK                            x       y       z     vdW  Elec       q    Type
REMARK                         _______ _______ _______ _____ _____    ______ ____
ROOT
ATOM      1  C   UNL     1       4.542   2.585  17.432  0.00  0.00    +0.000 C 
ATOM      2  C   UNL     1       4.666   4.100  17.402  0.00  0.00    +0.000 C 
ATOM      3  C   UNL     1       4.012   4.905  18.307  0.00  0.00    +0.000 C 
ENDROOT
BRANCH   3   4
ATOM      4  C   UNL     1       3.031   4.348  19.278  0.00  0.00    +0.000 A 
ATOM      5  C   UNL     1       3.471   3.972  20.562  0.00  0.00    +0.000 A 
ATOM      6  C   UNL     1       2.600   3.360  21.468  0.00  0.00    +0.000 A 
ATOM      7  C   UNL     1       1.292   3.092  21.083  0.00  0.00    +0.000 A 
ATOM      8  F   UNL     1       0.470   2.467  21.936  0.00  0.00    +0.000 F 
ATOM      9  C   UNL     1       0.835   3.444  19.819  0.00  0.00    +0.000 A 
ATOM     10  C   UNL     1       1.703   4.073  18.927  0.00  0.00    +0.000 A 
ATOM     11  F   UNL     1       1.249   4.400  17.706  0.00  0.00    +0.000 F 
ENDBRANCH   3   4
BRANCH   2  12
ATOM     12  N   UNL     1       5.467   4.523  16.296  0.00  0.00    +0.000 N 
ATOM     13  C   UNL     1       5.234   5.628  15.475  0.00  0.00    +0.000 A 
ATOM     14  N   UNL     1       6.162   5.766  14.557  0.00  0.00    +0.000 NA
ATOM     15  C   UNL     1       7.011   4.757  14.848  0.00  0.00    +0.000 A 
ATOM     16  N   UNL     1       6.687   4.036  15.923  0.00  0.00    +0.000 NA
ENDBRANCH   2  12
BRANCH   3  17
ATOM     17  O   UNL     1       4.131   6.263  18.578  0.00  0.00    +0.000 OA
BRANCH  17  18
ATOM     18  C   UNL     1       3.325   7.165  17.852  0.00  0.00    +0.000 C 
BRANCH  18  19
ATOM     19  C   UNL     1       2.287   7.948  18.653  0.00  0.00    +0.000 C 
BRANCH  19  20
ATOM     20  C   UNL     1       1.779   9.148  17.811  0.00  0.00    +0.000 C 
BRANCH  20  21
ATOM     21  C   UNL     1       1.196  10.254  18.701  0.00  0.00    +0.000 C 
BRANCH  21  22
ATOM     22  O   UNL     1      -0.177  10.055  19.052  0.00  0.00    +0.000 OA
BRANCH  22  23
ATOM     23  C   UNL     1      -0.402  10.122  20.419  0.00  0.00    +0.000 A 
ATOM     24  C   UNL     1      -0.180   9.035  21.281  0.00  0.00    +0.000 A 
ATOM     25  C   UNL     1      -0.403   9.143  22.657  0.00  0.00    +0.000 A 
ATOM     26  C   UNL     1      -0.842  10.345  23.197  0.00  0.00    +0.000 A 
ATOM     27  C   UNL     1      -1.063  11.437  22.363  0.00  0.00    +0.000 A 
ATOM     28  C   UNL     1      -0.848  11.329  20.977  0.00  0.00    +0.000 A 
ATOM     29 CL   UNL     1      -1.197  12.707  19.997  0.00  0.00    +0.000 Cl
ENDBRANCH  22  23
ENDBRANCH  21  22
ENDBRANCH  20  21
ENDBRANCH  19  20
ENDBRANCH  18  19
ENDBRANCH  17  18
ENDBRANCH   3  17
TORSDOF 9
ENDMDL
MODEL 6
REMARK VINA RESULT:      -7.7      3.172      5.246
REMARK  Name = 
REMARK  10 active torsions:
REMARK  status: ('A' for Active; 'I' for Inactive)
REMARK    1  A    between atoms: C_1  and  C_2
REMARK    2  A    between atoms: C_2  and  N_25
REMARK    3  A    between atoms: C_3  and  O_4
REMARK    4  A    between atoms: C_3  and  C_17
REMARK    5  A    between atoms: O_4  and  C_5
REMARK    6  A    between atoms: C_5  and  C_6
REMARK    7  A    between atoms: C_6  and  C_7
REMARK    8  A    between atoms: C_7  and  C_8
REMARK    9  A    between atoms: C_8  and  O_9
REMARK   10  A    between atoms: O_9  and  C_10
REMARK                            x       y       z     vdW  Elec       q    Type
REMARK                         _______ _______ _______ _____ _____    ______ ____
ROOT
ATOM      1  C   UNL     1       5.555   3.689  18.788  0.00  0.00    +0.000 C 
ATOM      2  C   UNL     1       4.831   4.662  17.870  0.00  0.00    +0.000 C 
ATOM      3  C   UNL     1       3.519   5.025  18.078  0.00  0.00    +0.000 C 
ENDROOT
BRANCH   3   4
ATOM      4  C   UNL     1       2.689   4.374  19.128  0.00  0.00    +0.000 A 
ATOM      5  C   UNL     1       2.761   4.845  20.453  0.00  0.00    +0.000 A 
ATOM      6  C   UNL     1       2.067   4.203  21.482  0.00  0.00    +0.000 A 
ATOM      7  C   UNL     1       1.322   3.065  21.196  0.00  0.00    +0.000 A 
ATOM      8  F   UNL     1       0.692   2.424  22.189  0.00  0.00    +0.000 F 
ATOM      9  C   UNL     1       1.242   2.573  19.899  0.00  0.00    +0.000 A 
ATOM     10  C   UNL     1       1.919   3.232  18.873  0.00  0.00    +0.000 A 
ATOM     11  F   UNL     1       1.838   2.740  17.626  0.00  0.00    +0.000 F 
ENDBRANCH   3   4
BRANCH   2  12
ATOM     12  N   UNL     1       5.670   5.053  16.781  0.00  0.00    +0.000 N 
ATOM     13  C   UNL     1       6.871   5.760  16.870  0.00  0.00    +0.000 A 
ATOM     14  N   UNL     1       7.421   5.949  15.693  0.00  0.00    +0.000 NA
ATOM     15  C   UNL     1       6.569   5.304  14.867  0.00  0.00    +0.000 A 
ATOM     16  N   UNL     1       5.554   4.684  15.472  0.00  0.00    +0.000 NA
ENDBRANCH   2  12
BRANCH   3  17
ATOM     17  O   UNL     1       2.741   6.017  17.494  0.00  0.00    +0.000 OA
BRANCH  17  18
ATOM     18  C   UNL     1       3.072   7.365  17.748  0.00  0.00    +0.000 C 
BRANCH  18  19
ATOM     19  C   UNL     1       1.982   8.227  18.382  0.00  0.00    +0.000 C 
BRANCH  19  20
ATOM     20  C   UNL     1       2.119   9.688  17.880  0.00  0.00    +0.000 C 
BRANCH  20  21
ATOM     21  C   UNL     1       1.075  10.607  18.528  0.00  0.00    +0.000 C 
BRANCH  21  22
ATOM     22  O   UNL     1      -0.077   9.920  19.026  0.00  0.00    +0.000 OA
BRANCH  22  23
ATOM     23  C   UNL     1      -1.259  10.356  18.449  0.00  0.00    +0.000 A 
ATOM     24  C   UNL     1      -1.718   9.887  17.206  0.00  0.00    +0.000 A 
ATOM     25  C   UNL     1      -2.924  10.338  16.660  0.00  0.00    +0.000 A 
ATOM     26  C   UNL     1      -3.699  11.258  17.354  0.00  0.00    +0.000 A 
ATOM     27  C   UNL     1      -3.267  11.733  18.590  0.00  0.00    +0.000 A 
ATOM     28  C   UNL     1      -2.050  11.287  19.137  0.00  0.00    +0.000 A 
ATOM     29 CL   UNL     1      -1.551  11.961  20.647  0.00  0.00    +0.000 Cl
ENDBRANCH  22  23
ENDBRANCH  21  22
ENDBRANCH  20  21
ENDBRANCH  19  20
ENDBRANCH  18  19
ENDBRANCH  17  18
ENDBRANCH   3  17
TORSDOF 9
ENDMDL
MODEL 7
REMARK VINA RESULT:      -7.5      1.615      1.975
REMARK  Name = 
REMARK  10 active torsions:
REMARK  status: ('A' for Active; 'I' for Inactive)
REMARK    1  A    between atoms: C_1  and  C_2
REMARK    2  A    between atoms: C_2  and  N_25
REMARK    3  A    between atoms: C_3  and  O_4
REMARK    4  A    between atoms: C_3  and  C_17
REMARK    5  A    between atoms: O_4  and  C_5
REMARK    6  A    between atoms: C_5  and  C_6
REMARK    7  A    between atoms: C_6  and  C_7
REMARK    8  A    between atoms: C_7  and  C_8
REMARK    9  A    between atoms: C_8  and  O_9
REMARK   10  A    between atoms: O_9  and  C_10
REMARK                            x       y       z     vdW  Elec       q    Type
REMARK                         _______ _______ _______ _____ _____    ______ ____
ROOT
ATOM      1  C   UNL     1       3.769   2.116  17.921  0.00  0.00    +0.000 C 
ATOM      2  C   UNL     1       3.494   3.383  18.716  0.00  0.00    +0.000 C 
ATOM      3  C   UNL     1       4.045   4.597  18.371  0.00  0.00    +0.000 C 
ENDROOT
BRANCH   3   4
ATOM      4  C   UNL     1       5.058   4.712  17.286  0.00  0.00    +0.000 A 
ATOM      5  C   UNL     1       4.638   4.661  15.943  0.00  0.00    +0.000 A 
ATOM      6  C   UNL     1       5.568   4.673  14.899  0.00  0.00    +0.000 A 
ATOM      7  C   UNL     1       6.925   4.702  15.195  0.00  0.00    +0.000 A 
ATOM      8  F   UNL     1       7.817   4.670  14.196  0.00  0.00    +0.000 F 
ATOM      9  C   UNL     1       7.367   4.743  16.512  0.00  0.00    +0.000 A 
ATOM     10  C   UNL     1       6.434   4.753  17.548  0.00  0.00    +0.000 A 
ATOM     11  F   UNL     1       6.877   4.784  18.815  0.00  0.00    +0.000 F 
ENDBRANCH   3   4
BRANCH   2  12
ATOM     12  N   UNL     1       2.676   3.102  19.853  0.00  0.00    +0.000 N 
ATOM     13  C   UNL     1       3.117   2.702  21.116  0.00  0.00    +0.000 A 
ATOM     14  N   UNL     1       2.124   2.542  21.959  0.00  0.00    +0.000 NA
ATOM     15  C   UNL     1       1.053   2.899  21.218  0.00  0.00    +0.000 A 
ATOM     16  N   UNL     1       1.334   3.319  19.983  0.00  0.00    +0.000 NA
ENDBRANCH   2  12
BRANCH   3  17
ATOM     17  O   UNL     1       3.784   5.884  18.827  0.00  0.00    +0.000 OA
BRANCH  17  18
ATOM     18  C   UNL     1       2.810   6.649  18.153  0.00  0.00    +0.000 C 
BRANCH  18  19
ATOM     19  C   UNL     1       2.186   7.802  18.937  0.00  0.00    +0.000 C 
BRANCH  19  20
ATOM     20  C   UNL     1       1.708   8.901  17.952  0.00  0.00    +0.000 C 
BRANCH  20  21
ATOM     21  C   UNL     1       0.722   9.867  18.621  0.00  0.00    +0.000 C 
BRANCH  21  22
ATOM     22  O   UNL     1      -0.441  10.148  17.838  0.00  0.00    +0.000 OA
BRANCH  22  23
ATOM     23  C   UNL     1      -1.376  10.919  18.512  0.00  0.00    +0.000 A 
ATOM     24  C   UNL     1      -1.037  11.760  19.585  0.00  0.00    +0.000 A 
ATOM     25  C   UNL     1      -2.003  12.536  20.233  0.00  0.00    +0.000 A 
ATOM     26  C   UNL     1      -3.325  12.492  19.811  0.00  0.00    +0.000 A 
ATOM     27  C   UNL     1      -3.684  11.671  18.746  0.00  0.00    +0.000 A 
ATOM     28  C   UNL     1      -2.715  10.883  18.097  0.00  0.00    +0.000 A 
ATOM     29 CL   UNL     1      -3.242   9.846  16.822  0.00  0.00    +0.000 Cl
ENDBRANCH  22  23
ENDBRANCH  21  22
ENDBRANCH  20  21
ENDBRANCH  19  20
ENDBRANCH  18  19
ENDBRANCH  17  18
ENDBRANCH   3  17
TORSDOF 9
ENDMDL
MODEL 8
REMARK VINA RESULT:      -7.5      5.233      7.703
REMARK  Name = 
REMARK  10 active torsions:
REMARK  status: ('A' for Active; 'I' for Inactive)
REMARK    1  A    between atoms: C_1  and  C_2
REMARK    2  A    between atoms: C_2  and  N_25
REMARK    3  A    between atoms: C_3  and  O_4
REMARK    4  A    between atoms: C_3  and  C_17
REMARK    5  A    between atoms: O_4  and  C_5
REMARK    6  A    between atoms: C_5  and  C_6
REMARK    7  A    between atoms: C_6  and  C_7
REMARK    8  A    between atoms: C_7  and  C_8
REMARK    9  A    between atoms: C_8  and  O_9
REMARK   10  A    between atoms: O_9  and  C_10
REMARK                            x       y       z     vdW  Elec       q    Type
REMARK                         _______ _______ _______ _____ _____    ______ ____
ROOT
ATOM      1  C   UNL     1       3.849   3.416  16.298  0.00  0.00    +0.000 C 
ATOM      2  C   UNL     1       5.184   4.008  16.723  0.00  0.00    +0.000 C 
ATOM      3  C   UNL     1       5.500   4.225  18.045  0.00  0.00    +0.000 C 
ENDROOT
BRANCH   3   4
ATOM      4  C   UNL     1       4.496   4.030  19.127  0.00  0.00    +0.000 A 
ATOM      5  C   UNL     1       4.434   2.791  19.793  0.00  0.00    +0.000 A 
ATOM      6  C   UNL     1       3.446   2.538  20.749  0.00  0.00    +0.000 A 
ATOM      7  C   UNL     1       2.495   3.514  21.021  0.00  0.00    +0.000 A 
ATOM      8  F   UNL     1       1.523   3.256  21.906  0.00  0.00    +0.000 F 
ATOM      9  C   UNL     1       2.527   4.742  20.371  0.00  0.00    +0.000 A 
ATOM     10  C   UNL     1       3.528   4.995  19.434  0.00  0.00    +0.000 A 
ATOM     11  F   UNL     1       3.541   6.183  18.809  0.00  0.00    +0.000 F 
ENDBRANCH   3   4
BRANCH   2  12
ATOM     12  N   UNL     1       5.976   4.347  15.582  0.00  0.00    +0.000 N 
ATOM     13  C   UNL     1       7.079   5.202  15.561  0.00  0.00    +0.000 A 
ATOM     14  N   UNL     1       7.610   5.295  14.364  0.00  0.00    +0.000 NA
ATOM     15  C   UNL     1       6.852   4.441  13.643  0.00  0.00    +0.000 A 
ATOM     16  N   UNL     1       5.917   3.790  14.337  0.00  0.00    +0.000 NA
ENDBRANCH   2  12
BRANCH   3  17
ATOM     17  O   UNL     1       6.701   4.566  18.656  0.00  0.00    +0.000 OA
BRANCH  17  18
ATOM     18  C   UNL     1       6.837   5.865  19.188  0.00  0.00    +0.000 C 
BRANCH  18  19
ATOM     19  C   UNL     1       8.129   6.608  18.851  0.00  0.00    +0.000 C 
BRANCH  19  20
ATOM     20  C   UNL     1       7.863   7.612  17.698  0.00  0.00    +0.000 C 
BRANCH  20  21
ATOM     21  C   UNL     1       7.937   9.065  18.189  0.00  0.00    +0.000 C 
BRANCH  21  22
ATOM     22  O   UNL     1       8.983   9.307  19.134  0.00  0.00    +0.000 OA
BRANCH  22  23
ATOM     23  C   UNL     1       9.564  10.558  18.990  0.00  0.00    +0.000 A 
ATOM     24  C   UNL     1      10.178  10.979  17.799  0.00  0.00    +0.000 A 
ATOM     25  C   UNL     1      10.741  12.254  17.683  0.00  0.00    +0.000 A 
ATOM     26  C   UNL     1      10.690  13.134  18.756  0.00  0.00    +0.000 A 
ATOM     27  C   UNL     1      10.083  12.741  19.945  0.00  0.00    +0.000 A 
ATOM     28  C   UNL     1       9.522  11.456  20.067  0.00  0.00    +0.000 A 
ATOM     29 CL   UNL     1       8.836  11.017  21.588  0.00  0.00    +0.000 Cl
ENDBRANCH  22  23
ENDBRANCH  21  22
ENDBRANCH  20  21
ENDBRANCH  19  20
ENDBRANCH  18  19
ENDBRANCH  17  18
ENDBRANCH   3  17
TORSDOF 9
ENDMDL
MODEL 9
REMARK VINA RESULT:      -7.4      1.407      1.960
REMARK  Name = 
REMARK  10 active torsions:
REMARK  status: ('A' for Active; 'I' for Inactive)
REMARK    1  A    between atoms: C_1  and  C_2
REMARK    2  A    between atoms: C_2  and  N_25
REMARK    3  A    between atoms: C_3  and  O_4
REMARK    4  A    between atoms: C_3  and  C_17
REMARK    5  A    between atoms: O_4  and  C_5
REMARK    6  A    between atoms: C_5  and  C_6
REMARK    7  A    between atoms: C_6  and  C_7
REMARK    8  A    between atoms: C_7  and  C_8
REMARK    9  A    between atoms: C_8  and  O_9
REMARK   10  A    between atoms: O_9  and  C_10
REMARK                            x       y       z     vdW  Elec       q    Type
REMARK                         _______ _______ _______ _____ _____    ______ ____
ROOT
ATOM      1  C   UNL     1       3.599   2.321  17.759  0.00  0.00    +0.000 C 
ATOM      2  C   UNL     1       3.510   3.525  18.683  0.00  0.00    +0.000 C 
ATOM      3  C   UNL     1       4.173   4.702  18.417  0.00  0.00    +0.000 C 
ENDROOT
BRANCH   3   4
ATOM      4  C   UNL     1       5.133   4.815  17.285  0.00  0.00    +0.000 A 
ATOM      5  C   UNL     1       4.639   4.945  15.973  0.00  0.00    +0.000 A 
ATOM      6  C   UNL     1       5.507   4.961  14.877  0.00  0.00    +0.000 A 
ATOM      7  C   UNL     1       6.872   4.815  15.086  0.00  0.00    +0.000 A 
ATOM      8  F   UNL     1       7.700   4.787  14.033  0.00  0.00    +0.000 F 
ATOM      9  C   UNL     1       7.386   4.675  16.370  0.00  0.00    +0.000 A 
ATOM     10  C   UNL     1       6.517   4.681  17.460  0.00  0.00    +0.000 A 
ATOM     11  F   UNL     1       7.027   4.537  18.694  0.00  0.00    +0.000 F 
ENDBRANCH   3   4
BRANCH   2  12
ATOM     12  N   UNL     1       2.727   3.222  19.840  0.00  0.00    +0.000 N 
ATOM     13  C   UNL     1       1.335   3.254  19.933  0.00  0.00    +0.000 A 
ATOM     14  N   UNL     1       0.911   2.902  21.125  0.00  0.00    +0.000 NA
ATOM     15  C   UNL     1       2.061   2.598  21.764  0.00  0.00    +0.000 A 
ATOM     16  N   UNL     1       3.165   2.693  21.020  0.00  0.00    +0.000 NA
ENDBRANCH   2  12
BRANCH   3  17
ATOM     17  O   UNL     1       4.082   5.958  19.005  0.00  0.00    +0.000 OA
BRANCH  17  18
ATOM     18  C   UNL     1       2.895   6.699  18.823  0.00  0.00    +0.000 C 
BRANCH  18  19
ATOM     19  C   UNL     1       2.021   6.902  20.059  0.00  0.00    +0.000 C 
BRANCH  19  20
ATOM     20  C   UNL     1       1.535   8.374  20.114  0.00  0.00    +0.000 C 
BRANCH  20  21
ATOM     21  C   UNL     1       1.538   9.020  18.722  0.00  0.00    +0.000 C 
BRANCH  21  22
ATOM     22  O   UNL     1       1.316  10.433  18.735  0.00  0.00    +0.000 OA
BRANCH  22  23
ATOM     23  C   UNL     1      -0.028  10.771  18.680  0.00  0.00    +0.000 A 
ATOM     24  C   UNL     1      -0.940  10.125  17.829  0.00  0.00    +0.000 A 
ATOM     25  C   UNL     1      -2.293  10.481  17.810  0.00  0.00    +0.000 A 
ATOM     26  C   UNL     1      -2.758  11.483  18.651  0.00  0.00    +0.000 A 
ATOM     27  C   UNL     1      -1.874  12.133  19.507  0.00  0.00    +0.000 A 
ATOM     28  C   UNL     1      -0.511  11.782  19.523  0.00  0.00    +0.000 A 
ATOM     29 CL   UNL     1       0.538  12.669  20.569  0.00  0.00    +0.000 Cl
ENDBRANCH  22  23
ENDBRANCH  21  22
ENDBRANCH  20  21
ENDBRANCH  19  20
ENDBRANCH  18  19
ENDBRANCH  17  18
ENDBRANCH   3  17
TORSDOF 9
ENDMDL
