MODEL 1
REMARK VINA RESULT:      -9.0      0.000      0.000
REMARK  Name = 
REMARK  10 active torsions:
REMARK  status: ('A' for Active; 'I' for Inactive)
REMARK    1  A    between atoms: N_3  and  N_4
REMARK    2  A    between atoms: N_4  and  C_5
REMARK    3  A    between atoms: C_5  and  C_6
REMARK    4  A    between atoms: N_12  and  C_13
REMARK    5  A    between atoms: C_13  and  C_14
REMARK    6  A    between atoms: C_13  and  C_24
REMARK    7  A    between atoms: C_14  and  C_15
REMARK    8  A    between atoms: N_26  and  C_27
REMARK    9  A    between atoms: C_27  and  C_28
REMARK   10  A    between atoms: C_28  and  C_29
REMARK                            x       y       z     vdW  Elec       q    Type
REMARK                         _______ _______ _______ _____ _____    ______ ____
ROOT
ATOM      1  C   UNL     1       6.686   5.723  18.311  0.00  0.00    +0.000 C 
ENDROOT
BRANCH   1   5
ATOM      2  O   UNL     1       7.560   8.093  16.883  0.00  0.00    +0.000 OA
ATOM      3  C   UNL     1       7.938   7.872  18.011  0.00  0.00    +0.000 C 
ATOM      4  N   UNL     1       8.697   8.710  18.833  0.00  0.00    +0.000 N 
ATOM      5  N   UNL     1       7.658   6.718  18.747  0.00  0.00    +0.000 N 
ATOM      6  H   UNL     1       9.158   8.223  19.598  0.00  0.00    +0.000 HD
ATOM      7  H   UNL     1       7.569   6.907  19.733  0.00  0.00    +0.000 HD
BRANCH   4   8
ATOM      8  N   UNL     1       9.296   9.911  18.385  0.00  0.00    +0.000 NA
ATOM      9  H   UNL     1       8.603  10.443  17.848  0.00  0.00    +0.000 HD
BRANCH   8  10
ATOM     10  C   UNL     1       9.726  10.697  19.554  0.00  0.00    +0.000 C 
BRANCH  10  11
ATOM     11  C   UNL     1      10.457  11.965  19.195  0.00  0.00    +0.000 A 
ATOM     12  C   UNL     1      11.547  12.399  19.964  0.00  0.00    +0.000 A 
ATOM     13  C   UNL     1      12.228  13.570  19.628  0.00  0.00    +0.000 A 
ATOM     14  C   UNL     1      11.833  14.315  18.518  0.00  0.00    +0.000 A 
ATOM     15  C   UNL     1      10.760  13.886  17.740  0.00  0.00    +0.000 A 
ATOM     16  C   UNL     1      10.073  12.719  18.078  0.00  0.00    +0.000 A 
ENDBRANCH  10  11
ENDBRANCH   8  10
ENDBRANCH   4   8
ENDBRANCH   1   5
BRANCH   1  17
ATOM     17  C   UNL     1       7.301   4.916  17.158  0.00  0.00    +0.000 C 
ATOM     18  O   UNL     1       8.239   4.134  17.349  0.00  0.00    +0.000 OA
ATOM     19  N   UNL     1       6.759   5.113  15.907  0.00  0.00    +0.000 N 
ATOM     20  H   UNL     1       5.932   5.690  15.784  0.00  0.00    +0.000 HD
BRANCH  19  21
ATOM     21  C   UNL     1       7.282   4.376  14.771  0.00  0.00    +0.000 C 
BRANCH  21  22
ATOM     22  C   UNL     1       6.765   4.853  13.413  0.00  0.00    +0.000 C 
BRANCH  22  23
ATOM     23  C   UNL     1       6.322   3.736  12.500  0.00  0.00    +0.000 A 
ATOM     24  C   UNL     1       7.248   2.838  11.953  0.00  0.00    +0.000 A 
ATOM     25  C   UNL     1       6.827   1.799  11.121  0.00  0.00    +0.000 A 
ATOM     26  C   UNL     1       5.471   1.641  10.838  0.00  0.00    +0.000 A 
ATOM     27  C   UNL     1       4.541   2.519  11.385  0.00  0.00    +0.000 A 
ATOM     28  C   UNL     1       4.960   3.560  12.212  0.00  0.00    +0.000 A 
ENDBRANCH  22  23
ENDBRANCH  21  22
ENDBRANCH  19  21
ENDBRANCH   1  17
BRANCH   1  29
ATOM     29  C   UNL     1       5.339   6.329  17.939  0.00  0.00    +0.000 C 
BRANCH  29  30
ATOM     30  C   UNL     1       3.991   5.671  18.148  0.00  0.00    +0.000 A 
ATOM     31  C   UNL     1       2.882   6.463  18.418  0.00  0.00    +0.000 A 
ATOM     32  N   UNL     1       2.164   5.768  19.333  0.00  0.00    +0.000 N 
ATOM     33  C   UNL     1       2.204   4.471  18.910  0.00  0.00    +0.000 A 
ATOM     34  C   UNL     1       1.318   3.427  19.207  0.00  0.00    +0.000 A 
ATOM     35  C   UNL     1       1.575   2.196  18.619  0.00  0.00    +0.000 A 
ATOM     36  C   UNL     1       2.738   2.006  17.883  0.00  0.00    +0.000 A 
ATOM     37  C   UNL     1       3.694   3.042  17.704  0.00  0.00    +0.000 A 
ATOM     38  C   UNL     1       3.407   4.346  18.183  0.00  0.00    +0.000 A 
ATOM     39  H   UNL     1       2.061   6.025  20.311  0.00  0.00    +0.000 HD
ENDBRANCH  29  30
ENDBRANCH   1  29
TORSDOF 10
ENDMDL
MODEL 2
REMARK VINA RESULT:      -9.0      3.353      8.097
REMARK  Name = 
REMARK  10 active torsions:
REMARK  status: ('A' for Active; 'I' for Inactive)
REMARK    1  A    between atoms: N_3  and  N_4
REMARK    2  A    between atoms: N_4  and  C_5
REMARK    3  A    between atoms: C_5  and  C_6
REMARK    4  A    between atoms: N_12  and  C_13
REMARK    5  A    between atoms: C_13  and  C_14
REMARK    6  A    between atoms: C_13  and  C_24
REMARK    7  A    between atoms: C_14  and  C_15
REMARK    8  A    between atoms: N_26  and  C_27
REMARK    9  A    between atoms: C_27  and  C_28
REMARK   10  A    between atoms: C_28  and  C_29
REMARK                            x       y       z     vdW  Elec       q    Type
REMARK                         _______ _______ _______ _____ _____    ______ ____
ROOT
ATOM      1  C   UNL     1       4.493   6.506  17.616  0.00  0.00    +0.000 C 
ENDROOT
BRANCH   1   5
ATOM      2  O   UNL     1       2.200   7.381  19.165  0.00  0.00    +0.000 OA
ATOM      3  C   UNL     1       2.498   7.932  18.130  0.00  0.00    +0.000 C 
ATOM      4  N   UNL     1       1.929   9.089  17.589  0.00  0.00    +0.000 N 
ATOM      5  N   UNL     1       3.516   7.530  17.263  0.00  0.00    +0.000 N 
ATOM      6  H   UNL     1       2.103   9.202  16.594  0.00  0.00    +0.000 HD
ATOM      7  H   UNL     1       3.958   8.313  16.805  0.00  0.00    +0.000 HD
BRANCH   4   8
ATOM      8  N   UNL     1       0.768   9.707  18.112  0.00  0.00    +0.000 NA
ATOM      9  H   UNL     1       0.197   8.993  18.575  0.00  0.00    +0.000 HD
BRANCH   8  10
ATOM     10  C   UNL     1       1.169  10.733  19.088  0.00  0.00    +0.000 C 
BRANCH  10  11
ATOM     11  C   UNL     1       0.510  10.579  20.434  0.00  0.00    +0.000 A 
ATOM     12  C   UNL     1       0.869   9.524  21.285  0.00  0.00    +0.000 A 
ATOM     13  C   UNL     1       0.264   9.386  22.536  0.00  0.00    +0.000 A 
ATOM     14  C   UNL     1      -0.701  10.303  22.951  0.00  0.00    +0.000 A 
ATOM     15  C   UNL     1      -1.055  11.362  22.119  0.00  0.00    +0.000 A 
ATOM     16  C   UNL     1      -0.456  11.499  20.865  0.00  0.00    +0.000 A 
ENDBRANCH  10  11
ENDBRANCH   8  10
ENDBRANCH   4   8
ENDBRANCH   1   5
BRANCH   1  17
ATOM     17  C   UNL     1       5.873   6.964  17.122  0.00  0.00    +0.000 C 
ATOM     18  O   UNL     1       6.356   6.531  16.070  0.00  0.00    +0.000 OA
ATOM     19  N   UNL     1       6.541   7.873  17.911  0.00  0.00    +0.000 N 
ATOM     20  H   UNL     1       6.093   8.286  18.724  0.00  0.00    +0.000 HD
BRANCH  19  21
ATOM     21  C   UNL     1       7.847   8.361  17.502  0.00  0.00    +0.000 C 
BRANCH  21  22
ATOM     22  C   UNL     1       8.794   8.687  18.657  0.00  0.00    +0.000 C 
BRANCH  22  23
ATOM     23  C   UNL     1       9.036  10.164  18.853  0.00  0.00    +0.000 A 
ATOM     24  C   UNL     1       9.617  10.652  20.030  0.00  0.00    +0.000 A 
ATOM     25  C   UNL     1       9.850  12.018  20.196  0.00  0.00    +0.000 A 
ATOM     26  C   UNL     1       9.516  12.909  19.177  0.00  0.00    +0.000 A 
ATOM     27  C   UNL     1       8.951  12.435  17.998  0.00  0.00    +0.000 A 
ATOM     28  C   UNL     1       8.711  11.071  17.833  0.00  0.00    +0.000 A 
ENDBRANCH  22  23
ENDBRANCH  21  22
ENDBRANCH  19  21
ENDBRANCH   1  17
BRANCH   1  29
ATOM     29  C   UNL     1       4.121   5.124  17.096  0.00  0.00    +0.000 C 
BRANCH  29  30
ATOM     30  C   UNL     1       3.497   4.015  17.916  0.00  0.00    +0.000 A 
ATOM     31  C   UNL     1       3.426   2.733  17.385  0.00  0.00    +0.000 A 
ATOM     32  N   UNL     1       2.227   2.248  17.786  0.00  0.00    +0.000 N 
ATOM     33  C   UNL     1       2.097   2.641  19.087  0.00  0.00    +0.000 A 
ATOM     34  C   UNL     1       1.298   2.083  20.094  0.00  0.00    +0.000 A 
ATOM     35  C   UNL     1       1.373   2.665  21.352  0.00  0.00    +0.000 A 
ATOM     36  C   UNL     1       2.114   3.826  21.539  0.00  0.00    +0.000 A 
ATOM     37  C   UNL     1       2.812   4.454  20.472  0.00  0.00    +0.000 A 
ATOM     38  C   UNL     1       2.862   3.822  19.203  0.00  0.00    +0.000 A 
ATOM     39  H   UNL     1       1.428   2.090  17.177  0.00  0.00    +0.000 HD
ENDBRANCH  29  30
ENDBRANCH   1  29
TORSDOF 10
ENDMDL
MODEL 3
REMARK VINA RESULT:      -8.8      1.120      1.715
REMARK  Name = 
REMARK  10 active torsions:
REMARK  status: ('A' for Active; 'I' for Inactive)
REMARK    1  A    between atoms: N_3  and  N_4
REMARK    2  A    between atoms: N_4  and  C_5
REMARK    3  A    between atoms: C_5  and  C_6
REMARK    4  A    between atoms: N_12  and  C_13
REMARK    5  A    between atoms: C_13  and  C_14
REMARK    6  A    between atoms: C_13  and  C_24
REMARK    7  A    between atoms: C_14  and  C_15
REMARK    8  A    between atoms: N_26  and  C_27
REMARK    9  A    between atoms: C_27  and  C_28
REMARK   10  A    between atoms: C_28  and  C_29
REMARK                            x       y       z     vdW  Elec       q    Type
REMARK                         _______ _______ _______ _____ _____    ______ ____
ROOT
ATOM      1  C   UNL     1       6.158   5.050  17.107  0.00  0.00    +0.000 C 
ENDROOT
BRANCH   1   5
ATOM      2  O   UNL     1       6.292   7.877  16.466  0.00  0.00    +0.000 OA
ATOM      3  C   UNL     1       7.029   7.392  17.294  0.00  0.00    +0.000 C 
ATOM      4  N   UNL     1       7.920   8.063  18.136  0.00  0.00    +0.000 N 
ATOM      5  N   UNL     1       7.113   6.033  17.605  0.00  0.00    +0.000 N 
ATOM      6  H   UNL     1       8.646   7.464  18.522  0.00  0.00    +0.000 HD
ATOM      7  H   UNL     1       7.322   5.877  18.579  0.00  0.00    +0.000 HD
BRANCH   4   8
ATOM      8  N   UNL     1       8.222   9.440  18.017  0.00  0.00    +0.000 NA
ATOM      9  H   UNL     1       7.350   9.974  18.089  0.00  0.00    +0.000 HD
BRANCH   8  10
ATOM     10  C   UNL     1       9.132   9.828  19.108  0.00  0.00    +0.000 C 
BRANCH  10  11
ATOM     11  C   UNL     1       9.877  11.111  18.849  0.00  0.00    +0.000 A 
ATOM     12  C   UNL     1       9.394  12.036  17.912  0.00  0.00    +0.000 A 
ATOM     13  C   UNL     1      10.081  13.229  17.677  0.00  0.00    +0.000 A 
ATOM     14  C   UNL     1      11.250  13.513  18.380  0.00  0.00    +0.000 A 
ATOM     15  C   UNL     1      11.731  12.608  19.323  0.00  0.00    +0.000 A 
ATOM     16  C   UNL     1      11.050  11.411  19.554  0.00  0.00    +0.000 A 
ENDBRANCH  10  11
ENDBRANCH   8  10
ENDBRANCH   4   8
ENDBRANCH   1   5
BRANCH   1  17
ATOM     17  C   UNL     1       6.671   4.515  15.762  0.00  0.00    +0.000 C 
ATOM     18  O   UNL     1       6.375   3.382  15.365  0.00  0.00    +0.000 OA
ATOM     19  N   UNL     1       7.475   5.359  15.027  0.00  0.00    +0.000 N 
ATOM     20  H   UNL     1       7.633   6.317  15.324  0.00  0.00    +0.000 HD
BRANCH  19  21
ATOM     21  C   UNL     1       7.986   4.926  13.739  0.00  0.00    +0.000 C 
BRANCH  21  22
ATOM     22  C   UNL     1       6.981   5.025  12.590  0.00  0.00    +0.000 C 
BRANCH  22  23
ATOM     23  C   UNL     1       6.556   3.690  12.031  0.00  0.00    +0.000 A 
ATOM     24  C   UNL     1       5.201   3.365  11.887  0.00  0.00    +0.000 A 
ATOM     25  C   UNL     1       4.817   2.133  11.355  0.00  0.00    +0.000 A 
ATOM     26  C   UNL     1       5.788   1.217  10.949  0.00  0.00    +0.000 A 
ATOM     27  C   UNL     1       7.136   1.534  11.076  0.00  0.00    +0.000 A 
ATOM     28  C   UNL     1       7.521   2.762  11.612  0.00  0.00    +0.000 A 
ENDBRANCH  22  23
ENDBRANCH  21  22
ENDBRANCH  19  21
ENDBRANCH   1  17
BRANCH   1  29
ATOM     29  C   UNL     1       4.739   5.594  17.011  0.00  0.00    +0.000 C 
BRANCH  29  30
ATOM     30  C   UNL     1       3.660   5.427  18.059  0.00  0.00    +0.000 A 
ATOM     31  C   UNL     1       3.458   6.434  18.995  0.00  0.00    +0.000 A 
ATOM     32  N   UNL     1       3.190   5.791  20.157  0.00  0.00    +0.000 N 
ATOM     33  C   UNL     1       2.358   4.764  19.815  0.00  0.00    +0.000 A 
ATOM     34  C   UNL     1       1.454   4.066  20.626  0.00  0.00    +0.000 A 
ATOM     35  C   UNL     1       0.700   3.072  20.016  0.00  0.00    +0.000 A 
ATOM     36  C   UNL     1       0.949   2.721  18.695  0.00  0.00    +0.000 A 
ATOM     37  C   UNL     1       1.965   3.352  17.927  0.00  0.00    +0.000 A 
ATOM     38  C   UNL     1       2.670   4.455  18.474  0.00  0.00    +0.000 A 
ATOM     39  H   UNL     1       3.815   5.750  20.958  0.00  0.00    +0.000 HD
ENDBRANCH  29  30
ENDBRANCH   1  29
TORSDOF 10
ENDMDL
MODEL 4
REMARK VINA RESULT:      -8.8      6.882     11.093
REMARK  Name = 
REMARK  10 active torsions:
REMARK  status: ('A' for Active; 'I' for Inactive)
REMARK    1  A    between atoms: N_3  and  N_4
REMARK    2  A    between atoms: N_4  and  C_5
REMARK    3  A    between atoms: C_5  and  C_6
REMARK    4  A    between atoms: N_12  and  C_13
REMARK    5  A    between atoms: C_13  and  C_14
REMARK    6  A    between atoms: C_13  and  C_24
REMARK    7  A    between atoms: C_14  and  C_15
REMARK    8  A    between atoms: N_26  and  C_27
REMARK    9  A    between atoms: C_27  and  C_28
REMARK   10  A    between atoms: C_28  and  C_29
REMARK                            x       y       z     vdW  Elec       q    Type
REMARK                         _______ _______ _______ _____ _____    ______ ____
ROOT
ATOM      1  C   UNL     1       0.876   9.830  19.088  0.00  0.00    +0.000 C 
ENDROOT
BRANCH   1   5
ATOM      2  O   UNL     1      -0.645  12.143  18.219  0.00  0.00    +0.000 OA
ATOM      3  C   UNL     1      -0.974  11.025  17.894  0.00  0.00    +0.000 C 
ATOM      4  N   UNL     1      -1.984  10.662  16.998  0.00  0.00    +0.000 N 
ATOM      5  N   UNL     1      -0.373   9.844  18.336  0.00  0.00    +0.000 N 
ATOM      6  H   UNL     1      -2.295   9.700  17.102  0.00  0.00    +0.000 HD
ATOM      7  H   UNL     1      -0.381   9.125  17.629  0.00  0.00    +0.000 HD
BRANCH   4   8
ATOM      8  N   UNL     1      -2.912  11.581  16.453  0.00  0.00    +0.000 NA
ATOM      9  H   UNL     1      -2.697  11.714  15.459  0.00  0.00    +0.000 HD
BRANCH   8  10
ATOM     10  C   UNL     1      -4.271  11.033  16.597  0.00  0.00    +0.000 C 
BRANCH  10  11
ATOM     11  C   UNL     1      -4.991  11.515  17.830  0.00  0.00    +0.000 A 
ATOM     12  C   UNL     1      -6.389  11.445  17.909  0.00  0.00    +0.000 A 
ATOM     13  C   UNL     1      -7.055  11.886  19.054  0.00  0.00    +0.000 A 
ATOM     14  C   UNL     1      -6.333  12.393  20.133  0.00  0.00    +0.000 A 
ATOM     15  C   UNL     1      -4.943  12.455  20.070  0.00  0.00    +0.000 A 
ATOM     16  C   UNL     1      -4.274  12.021  18.923  0.00  0.00    +0.000 A 
ENDBRANCH  10  11
ENDBRANCH   8  10
ENDBRANCH   4   8
ENDBRANCH   1   5
BRANCH   1  17
ATOM     17  C   UNL     1       1.892   8.969  18.324  0.00  0.00    +0.000 C 
ATOM     18  O   UNL     1       2.351   9.331  17.234  0.00  0.00    +0.000 OA
ATOM     19  N   UNL     1       2.260   7.779  18.911  0.00  0.00    +0.000 N 
ATOM     20  H   UNL     1       1.944   7.540  19.846  0.00  0.00    +0.000 HD
BRANCH  19  21
ATOM     21  C   UNL     1       3.226   6.918  18.252  0.00  0.00    +0.000 C 
BRANCH  21  22
ATOM     22  C   UNL     1       2.672   5.563  17.810  0.00  0.00    +0.000 C 
BRANCH  22  23
ATOM     23  C   UNL     1       2.183   4.701  18.948  0.00  0.00    +0.000 A 
ATOM     24  C   UNL     1       1.247   3.681  18.732  0.00  0.00    +0.000 A 
ATOM     25  C   UNL     1       0.811   2.879  19.789  0.00  0.00    +0.000 A 
ATOM     26  C   UNL     1       1.319   3.082  21.071  0.00  0.00    +0.000 A 
ATOM     27  C   UNL     1       2.259   4.083  21.295  0.00  0.00    +0.000 A 
ATOM     28  C   UNL     1       2.691   4.888  20.242  0.00  0.00    +0.000 A 
ENDBRANCH  22  23
ENDBRANCH  21  22
ENDBRANCH  19  21
ENDBRANCH   1  17
BRANCH   1  29
ATOM     29  C   UNL     1       0.698   9.372  20.530  0.00  0.00    +0.000 C 
BRANCH  29  30
ATOM     30  C   UNL     1       0.008  10.158  21.624  0.00  0.00    +0.000 A 
ATOM     31  C   UNL     1       0.011   9.665  22.923  0.00  0.00    +0.000 A 
ATOM     32  N   UNL     1      -1.216   9.956  23.416  0.00  0.00    +0.000 N 
ATOM     33  C   UNL     1      -1.486  11.223  22.985  0.00  0.00    +0.000 A 
ATOM     34  C   UNL     1      -2.378  12.159  23.525  0.00  0.00    +0.000 A 
ATOM     35  C   UNL     1      -2.442  13.399  22.903  0.00  0.00    +0.000 A 
ATOM     36  C   UNL     1      -1.741  13.624  21.725  0.00  0.00    +0.000 A 
ATOM     37  C   UNL     1      -0.945  12.615  21.118  0.00  0.00    +0.000 A 
ATOM     38  C   UNL     1      -0.755  11.379  21.787  0.00  0.00    +0.000 A 
ATOM     39  H   UNL     1      -1.946   9.273  23.607  0.00  0.00    +0.000 HD
ENDBRANCH  29  30
ENDBRANCH   1  29
TORSDOF 10
ENDMDL
MODEL 5
REMARK VINA RESULT:      -8.7      3.345      9.057
REMARK  Name = 
REMARK  10 active torsions:
REMARK  status: ('A' for Active; 'I' for Inactive)
REMARK    1  A    between atoms: N_3  and  N_4
REMARK    2  A    between atoms: N_4  and  C_5
REMARK    3  A    between atoms: C_5  and  C_6
REMARK    4  A    between atoms: N_12  and  C_13
REMARK    5  A    between atoms: C_13  and  C_14
REMARK    6  A    between atoms: C_13  and  C_24
REMARK    7  A    between atoms: C_14  and  C_15
REMARK    8  A    between atoms: N_26  and  C_27
REMARK    9  A    between atoms: C_27  and  C_28
REMARK   10  A    between atoms: C_28  and  C_29
REMARK                            x       y       z     vdW  Elec       q    Type
REMARK                         _______ _______ _______ _____ _____    ______ ____
ROOT
ATOM      1  C   UNL     1       4.695   6.586  17.065  0.00  0.00    +0.000 C 
ENDROOT
BRANCH   1   5
ATOM      2  O   UNL     1       5.297   4.380  18.851  0.00  0.00    +0.000 OA
ATOM      3  C   UNL     1       4.783   4.185  17.774  0.00  0.00    +0.000 C 
ATOM      4  N   UNL     1       4.291   2.976  17.273  0.00  0.00    +0.000 N 
ATOM      5  N   UNL     1       4.543   5.160  16.803  0.00  0.00    +0.000 N 
ATOM      6  H   UNL     1       4.190   2.965  16.261  0.00  0.00    +0.000 HD
ATOM      7  H   UNL     1       3.704   4.974  16.275  0.00  0.00    +0.000 HD
BRANCH   4   8
ATOM      8  N   UNL     1       4.485   1.728  17.912  0.00  0.00    +0.000 NA
ATOM      9  H   UNL     1       5.179   1.846  18.657  0.00  0.00    +0.000 HD
BRANCH   8  10
ATOM     10  C   UNL     1       3.207   1.282  18.490  0.00  0.00    +0.000 C 
BRANCH  10  11
ATOM     11  C   UNL     1       2.536   2.320  19.351  0.00  0.00    +0.000 A 
ATOM     12  C   UNL     1       1.415   3.018  18.880  0.00  0.00    +0.000 A 
ATOM     13  C   UNL     1       0.789   3.976  19.681  0.00  0.00    +0.000 A 
ATOM     14  C   UNL     1       1.272   4.240  20.962  0.00  0.00    +0.000 A 
ATOM     15  C   UNL     1       2.377   3.543  21.445  0.00  0.00    +0.000 A 
ATOM     16  C   UNL     1       3.009   2.590  20.643  0.00  0.00    +0.000 A 
ENDBRANCH  10  11
ENDBRANCH   8  10
ENDBRANCH   4   8
ENDBRANCH   1   5
BRANCH   1  17
ATOM     17  C   UNL     1       6.190   6.931  17.018  0.00  0.00    +0.000 C 
ATOM     18  O   UNL     1       6.968   6.323  16.273  0.00  0.00    +0.000 OA
ATOM     19  N   UNL     1       6.618   7.944  17.848  0.00  0.00    +0.000 N 
ATOM     20  H   UNL     1       5.953   8.492  18.386  0.00  0.00    +0.000 HD
BRANCH  19  21
ATOM     21  C   UNL     1       8.017   8.332  17.849  0.00  0.00    +0.000 C 
BRANCH  21  22
ATOM     22  C   UNL     1       8.271   9.790  17.463  0.00  0.00    +0.000 C 
BRANCH  22  23
ATOM     23  C   UNL     1       9.246  10.503  18.367  0.00  0.00    +0.000 A 
ATOM     24  C   UNL     1       9.132  10.422  19.761  0.00  0.00    +0.000 A 
ATOM     25  C   UNL     1      10.047  11.073  20.590  0.00  0.00    +0.000 A 
ATOM     26  C   UNL     1      11.096  11.802  20.030  0.00  0.00    +0.000 A 
ATOM     27  C   UNL     1      11.227  11.878  18.648  0.00  0.00    +0.000 A 
ATOM     28  C   UNL     1      10.310  11.234  17.818  0.00  0.00    +0.000 A 
ENDBRANCH  22  23
ENDBRANCH  21  22
ENDBRANCH  19  21
ENDBRANCH   1  17
BRANCH   1  29
ATOM     29  C   UNL     1       4.040   7.026  18.369  0.00  0.00    +0.000 C 
BRANCH  29  30
ATOM     30  C   UNL     1       2.771   7.844  18.483  0.00  0.00    +0.000 A 
ATOM     31  C   UNL     1       2.223   8.413  17.341  0.00  0.00    +0.000 A 
ATOM     32  N   UNL     1       1.768   9.627  17.732  0.00  0.00    +0.000 N 
ATOM     33  C   UNL     1       1.181   9.416  18.946  0.00  0.00    +0.000 A 
ATOM     34  C   UNL     1       0.205  10.187  19.591  0.00  0.00    +0.000 A 
ATOM     35  C   UNL     1      -0.247   9.729  20.822  0.00  0.00    +0.000 A 
ATOM     36  C   UNL     1       0.355   8.629  21.419  0.00  0.00    +0.000 A 
ATOM     37  C   UNL     1       1.437   7.939  20.809  0.00  0.00    +0.000 A 
ATOM     38  C   UNL     1       1.843   8.298  19.498  0.00  0.00    +0.000 A 
ATOM     39  H   UNL     1       2.181  10.519  17.469  0.00  0.00    +0.000 HD
ENDBRANCH  29  30
ENDBRANCH   1  29
TORSDOF 10
ENDMDL
MODEL 6
REMARK VINA RESULT:      -8.7      1.245      1.657
REMARK  Name = 
REMARK  10 active torsions:
REMARK  status: ('A' for Active; 'I' for Inactive)
REMARK    1  A    between atoms: N_3  and  N_4
REMARK    2  A    between atoms: N_4  and  C_5
REMARK    3  A    between atoms: C_5  and  C_6
REMARK    4  A    between atoms: N_12  and  C_13
REMARK    5  A    between atoms: C_13  and  C_14
REMARK    6  A    between atoms: C_13  and  C_24
REMARK    7  A    between atoms: C_14  and  C_15
REMARK    8  A    between atoms: N_26  and  C_27
REMARK    9  A    between atoms: C_27  and  C_28
REMARK   10  A    between atoms: C_28  and  C_29
REMARK                            x       y       z     vdW  Elec       q    Type
REMARK                         _______ _______ _______ _____ _____    ______ ____
ROOT
ATOM      1  C   UNL     1       7.003   5.160  18.339  0.00  0.00    +0.000 C 
ENDROOT
BRANCH   1   5
ATOM      2  O   UNL     1       6.959   7.849  17.248  0.00  0.00    +0.000 OA
ATOM      3  C   UNL     1       7.759   7.537  18.100  0.00  0.00    +0.000 C 
ATOM      4  N   UNL     1       8.655   8.373  18.772  0.00  0.00    +0.000 N 
ATOM      5  N   UNL     1       7.929   6.251  18.618  0.00  0.00    +0.000 N 
ATOM      6  H   UNL     1       9.429   7.877  19.207  0.00  0.00    +0.000 HD
ATOM      7  H   UNL     1       8.193   6.264  19.591  0.00  0.00    +0.000 HD
BRANCH   4   8
ATOM      8  N   UNL     1       8.879   9.725  18.418  0.00  0.00    +0.000 NA
ATOM      9  H   UNL     1       7.979  10.157  18.186  0.00  0.00    +0.000 HD
BRANCH   8  10
ATOM     10  C   UNL     1       9.486  10.426  19.561  0.00  0.00    +0.000 C 
BRANCH  10  11
ATOM     11  C   UNL     1      10.424  11.535  19.163  0.00  0.00    +0.000 A 
ATOM     12  C   UNL     1      10.827  12.496  20.101  0.00  0.00    +0.000 A 
ATOM     13  C   UNL     1      11.703  13.520  19.734  0.00  0.00    +0.000 A 
ATOM     14  C   UNL     1      12.189  13.590  18.430  0.00  0.00    +0.000 A 
ATOM     15  C   UNL     1      11.806  12.633  17.493  0.00  0.00    +0.000 A 
ATOM     16  C   UNL     1      10.925  11.612  17.856  0.00  0.00    +0.000 A 
ENDBRANCH  10  11
ENDBRANCH   8  10
ENDBRANCH   4   8
ENDBRANCH   1   5
BRANCH   1  17
ATOM     17  C   UNL     1       6.873   5.013  16.816  0.00  0.00    +0.000 C 
ATOM     18  O   UNL     1       7.784   4.529  16.136  0.00  0.00    +0.000 OA
ATOM     19  N   UNL     1       5.695   5.451  16.251  0.00  0.00    +0.000 N 
ATOM     20  H   UNL     1       4.923   5.762  16.833  0.00  0.00    +0.000 HD
BRANCH  19  21
ATOM     21  C   UNL     1       5.496   5.333  14.818  0.00  0.00    +0.000 C 
BRANCH  21  22
ATOM     22  C   UNL     1       6.700   4.783  14.052  0.00  0.00    +0.000 C 
BRANCH  22  23
ATOM     23  C   UNL     1       6.336   3.829  12.941  0.00  0.00    +0.000 A 
ATOM     24  C   UNL     1       7.321   3.105  12.258  0.00  0.00    +0.000 A 
ATOM     25  C   UNL     1       6.974   2.214  11.241  0.00  0.00    +0.000 A 
ATOM     26  C   UNL     1       5.633   2.030  10.905  0.00  0.00    +0.000 A 
ATOM     27  C   UNL     1       4.645   2.735  11.585  0.00  0.00    +0.000 A 
ATOM     28  C   UNL     1       4.991   3.630  12.597  0.00  0.00    +0.000 A 
ENDBRANCH  22  23
ENDBRANCH  21  22
ENDBRANCH  19  21
ENDBRANCH   1  17
BRANCH   1  29
ATOM     29  C   UNL     1       5.652   5.336  19.021  0.00  0.00    +0.000 C 
BRANCH  29  30
ATOM     30  C   UNL     1       4.639   4.237  19.262  0.00  0.00    +0.000 A 
ATOM     31  C   UNL     1       5.042   2.910  19.181  0.00  0.00    +0.000 A 
ATOM     32  N   UNL     1       4.012   2.261  18.589  0.00  0.00    +0.000 N 
ATOM     33  C   UNL     1       2.886   2.777  19.163  0.00  0.00    +0.000 A 
ATOM     34  C   UNL     1       1.610   2.205  19.253  0.00  0.00    +0.000 A 
ATOM     35  C   UNL     1       0.637   2.938  19.920  0.00  0.00    +0.000 A 
ATOM     36  C   UNL     1       0.912   4.231  20.349  0.00  0.00    +0.000 A 
ATOM     37  C   UNL     1       2.174   4.845  20.128  0.00  0.00    +0.000 A 
ATOM     38  C   UNL     1       3.231   4.086  19.564  0.00  0.00    +0.000 A 
ATOM     39  H   UNL     1       4.024   1.883  17.645  0.00  0.00    +0.000 HD
ENDBRANCH  29  30
ENDBRANCH   1  29
TORSDOF 10
ENDMDL
MODEL 7
REMARK VINA RESULT:      -8.7      3.676      8.715
REMARK  Name = 
REMARK  10 active torsions:
REMARK  status: ('A' for Active; 'I' for Inactive)
REMARK    1  A    between atoms: N_3  and  N_4
REMARK    2  A    between atoms: N_4  and  C_5
REMARK    3  A    between atoms: C_5  and  C_6
REMARK    4  A    between atoms: N_12  and  C_13
REMARK    5  A    between atoms: C_13  and  C_14
REMARK    6  A    between atoms: C_13  and  C_24
REMARK    7  A    between atoms: C_14  and  C_15
REMARK    8  A    between atoms: N_26  and  C_27
REMARK    9  A    between atoms: C_27  and  C_28
REMARK   10  A    between atoms: C_28  and  C_29
REMARK                            x       y       z     vdW  Elec       q    Type
REMARK                         _______ _______ _______ _____ _____    ______ ____
ROOT
ATOM      1  C   UNL     1       4.671   6.597  17.643  0.00  0.00    +0.000 C 
ENDROOT
BRANCH   1   5
ATOM      2  O   UNL     1       2.391   7.579  19.145  0.00  0.00    +0.000 OA
ATOM      3  C   UNL     1       2.710   8.088  18.095  0.00  0.00    +0.000 C 
ATOM      4  N   UNL     1       2.174   9.241  17.513  0.00  0.00    +0.000 N 
ATOM      5  N   UNL     1       3.723   7.633  17.249  0.00  0.00    +0.000 N 
ATOM      6  H   UNL     1       2.359   9.317  16.515  0.00  0.00    +0.000 HD
ATOM      7  H   UNL     1       4.188   8.389  16.770  0.00  0.00    +0.000 HD
BRANCH   4   8
ATOM      8  N   UNL     1       1.026   9.905  18.005  0.00  0.00    +0.000 NA
ATOM      9  H   UNL     1       1.022  10.865  17.645  0.00  0.00    +0.000 HD
BRANCH   8  10
ATOM     10  C   UNL     1      -0.176   9.195  17.537  0.00  0.00    +0.000 C 
BRANCH  10  11
ATOM     11  C   UNL     1      -1.432  10.024  17.598  0.00  0.00    +0.000 A 
ATOM     12  C   UNL     1      -1.636  10.929  18.649  0.00  0.00    +0.000 A 
ATOM     13  C   UNL     1      -2.797  11.703  18.702  0.00  0.00    +0.000 A 
ATOM     14  C   UNL     1      -3.762  11.585  17.703  0.00  0.00    +0.000 A 
ATOM     15  C   UNL     1      -3.564  10.699  16.647  0.00  0.00    +0.000 A 
ATOM     16  C   UNL     1      -2.406   9.919  16.596  0.00  0.00    +0.000 A 
ENDBRANCH  10  11
ENDBRANCH   8  10
ENDBRANCH   4   8
ENDBRANCH   1   5
BRANCH   1  17
ATOM     17  C   UNL     1       6.077   7.038  17.212  0.00  0.00    +0.000 C 
ATOM     18  O   UNL     1       6.572   6.659  16.144  0.00  0.00    +0.000 OA
ATOM     19  N   UNL     1       6.755   7.871  18.074  0.00  0.00    +0.000 N 
ATOM     20  H   UNL     1       6.301   8.245  18.902  0.00  0.00    +0.000 HD
BRANCH  19  21
ATOM     21  C   UNL     1       8.085   8.340  17.727  0.00  0.00    +0.000 C 
BRANCH  21  22
ATOM     22  C   UNL     1       8.184   9.846  17.481  0.00  0.00    +0.000 C 
BRANCH  22  23
ATOM     23  C   UNL     1       9.179  10.549  18.372  0.00  0.00    +0.000 A 
ATOM     24  C   UNL     1       9.118  10.420  19.765  0.00  0.00    +0.000 A 
ATOM     25  C   UNL     1      10.052  11.062  20.581  0.00  0.00    +0.000 A 
ATOM     26  C   UNL     1      11.064  11.831  20.008  0.00  0.00    +0.000 A 
ATOM     27  C   UNL     1      11.141  11.955  18.624  0.00  0.00    +0.000 A 
ATOM     28  C   UNL     1      10.207  11.319  17.809  0.00  0.00    +0.000 A 
ENDBRANCH  22  23
ENDBRANCH  21  22
ENDBRANCH  19  21
ENDBRANCH   1  17
BRANCH   1  29
ATOM     29  C   UNL     1       4.306   5.219  17.104  0.00  0.00    +0.000 C 
BRANCH  29  30
ATOM     30  C   UNL     1       3.619   4.123  17.889  0.00  0.00    +0.000 A 
ATOM     31  C   UNL     1       3.530   2.848  17.343  0.00  0.00    +0.000 A 
ATOM     32  N   UNL     1       2.303   2.396  17.694  0.00  0.00    +0.000 N 
ATOM     33  C   UNL     1       2.136   2.782  18.993  0.00  0.00    +0.000 A 
ATOM     34  C   UNL     1       1.282   2.239  19.963  0.00  0.00    +0.000 A 
ATOM     35  C   UNL     1       1.327   2.808  21.229  0.00  0.00    +0.000 A 
ATOM     36  C   UNL     1       2.094   3.943  21.455  0.00  0.00    +0.000 A 
ATOM     37  C   UNL     1       2.851   4.560  20.422  0.00  0.00    +0.000 A 
ATOM     38  C   UNL     1       2.930   3.938  19.150  0.00  0.00    +0.000 A 
ATOM     39  H   UNL     1       1.523   2.267  17.054  0.00  0.00    +0.000 HD
ENDBRANCH  29  30
ENDBRANCH   1  29
TORSDOF 10
ENDMDL
MODEL 8
REMARK VINA RESULT:      -8.6      0.705      1.123
REMARK  Name = 
REMARK  10 active torsions:
REMARK  status: ('A' for Active; 'I' for Inactive)
REMARK    1  A    between atoms: N_3  and  N_4
REMARK    2  A    between atoms: N_4  and  C_5
REMARK    3  A    between atoms: C_5  and  C_6
REMARK    4  A    between atoms: N_12  and  C_13
REMARK    5  A    between atoms: C_13  and  C_14
REMARK    6  A    between atoms: C_13  and  C_24
REMARK    7  A    between atoms: C_14  and  C_15
REMARK    8  A    between atoms: N_26  and  C_27
REMARK    9  A    between atoms: C_27  and  C_28
REMARK   10  A    between atoms: C_28  and  C_29
REMARK                            x       y       z     vdW  Elec       q    Type
REMARK                         _______ _______ _______ _____ _____    ______ ____
ROOT
ATOM      1  C   UNL     1       6.411   5.544  18.083  0.00  0.00    +0.000 C 
ENDROOT
BRANCH   1   5
ATOM      2  O   UNL     1       7.786   7.757  16.806  0.00  0.00    +0.000 OA
ATOM      3  C   UNL     1       7.885   7.568  17.996  0.00  0.00    +0.000 C 
ATOM      4  N   UNL     1       8.515   8.387  18.938  0.00  0.00    +0.000 N 
ATOM      5  N   UNL     1       7.348   6.481  18.690  0.00  0.00    +0.000 N 
ATOM      6  H   UNL     1       8.750   7.907  19.803  0.00  0.00    +0.000 HD
ATOM      7  H   UNL     1       7.060   6.730  19.624  0.00  0.00    +0.000 HD
BRANCH   4   8
ATOM      8  N   UNL     1       9.302   9.511  18.594  0.00  0.00    +0.000 NA
ATOM      9  H   UNL     1       9.309   9.607  17.573  0.00  0.00    +0.000 HD
BRANCH   8  10
ATOM     10  C   UNL     1       8.710  10.715  19.201  0.00  0.00    +0.000 C 
BRANCH  10  11
ATOM     11  C   UNL     1       9.617  11.916  19.174  0.00  0.00    +0.000 A 
ATOM     12  C   UNL     1      10.785  11.943  19.950  0.00  0.00    +0.000 A 
ATOM     13  C   UNL     1      11.630  13.054  19.919  0.00  0.00    +0.000 A 
ATOM     14  C   UNL     1      11.321  14.146  19.110  0.00  0.00    +0.000 A 
ATOM     15  C   UNL     1      10.170  14.125  18.326  0.00  0.00    +0.000 A 
ATOM     16  C   UNL     1       9.320  13.018  18.359  0.00  0.00    +0.000 A 
ENDBRANCH  10  11
ENDBRANCH   8  10
ENDBRANCH   4   8
ENDBRANCH   1   5
BRANCH   1  17
ATOM     17  C   UNL     1       7.079   4.924  16.847  0.00  0.00    +0.000 C 
ATOM     18  O   UNL     1       8.018   4.128  16.955  0.00  0.00    +0.000 OA
ATOM     19  N   UNL     1       6.580   5.302  15.620  0.00  0.00    +0.000 N 
ATOM     20  H   UNL     1       5.751   5.885  15.552  0.00  0.00    +0.000 HD
BRANCH  19  21
ATOM     21  C   UNL     1       7.154   4.747  14.407  0.00  0.00    +0.000 C 
BRANCH  21  22
ATOM     22  C   UNL     1       6.232   4.795  13.188  0.00  0.00    +0.000 C 
BRANCH  22  23
ATOM     23  C   UNL     1       6.268   3.546  12.342  0.00  0.00    +0.000 A 
ATOM     24  C   UNL     1       5.088   2.884  11.979  0.00  0.00    +0.000 A 
ATOM     25  C   UNL     1       5.131   1.738  11.184  0.00  0.00    +0.000 A 
ATOM     26  C   UNL     1       6.356   1.248  10.734  0.00  0.00    +0.000 A 
ATOM     27  C   UNL     1       7.533   1.904  11.078  0.00  0.00    +0.000 A 
ATOM     28  C   UNL     1       7.493   3.046  11.877  0.00  0.00    +0.000 A 
ENDBRANCH  22  23
ENDBRANCH  21  22
ENDBRANCH  19  21
ENDBRANCH   1  17
BRANCH   1  29
ATOM     29  C   UNL     1       5.063   6.175  17.757  0.00  0.00    +0.000 C 
BRANCH  29  30
ATOM     30  C   UNL     1       3.745   5.821  18.411  0.00  0.00    +0.000 A 
ATOM     31  C   UNL     1       3.062   6.790  19.135  0.00  0.00    +0.000 A 
ATOM     32  N   UNL     1       2.541   6.136  20.201  0.00  0.00    +0.000 N 
ATOM     33  C   UNL     1       2.074   4.954  19.704  0.00  0.00    +0.000 A 
ATOM     34  C   UNL     1       1.093   4.108  20.239  0.00  0.00    +0.000 A 
ATOM     35  C   UNL     1       0.781   2.967  19.512  0.00  0.00    +0.000 A 
ATOM     36  C   UNL     1       1.518   2.641  18.381  0.00  0.00    +0.000 A 
ATOM     37  C   UNL     1       2.599   3.443  17.928  0.00  0.00    +0.000 A 
ATOM     38  C   UNL     1       2.868   4.679  18.570  0.00  0.00    +0.000 A 
ATOM     39  H   UNL     1       2.858   6.243  21.162  0.00  0.00    +0.000 HD
ENDBRANCH  29  30
ENDBRANCH   1  29
TORSDOF 10
ENDMDL
MODEL 9
REMARK VINA RESULT:      -8.6      4.666      8.251
REMARK  Name = 
REMARK  10 active torsions:
REMARK  status: ('A' for Active; 'I' for Inactive)
REMARK    1  A    between atoms: N_3  and  N_4
REMARK    2  A    between atoms: N_4  and  C_5
REMARK    3  A    between atoms: C_5  and  C_6
REMARK    4  A    between atoms: N_12  and  C_13
REMARK    5  A    between atoms: C_13  and  C_14
REMARK    6  A    between atoms: C_13  and  C_24
REMARK    7  A    between atoms: C_14  and  C_15
REMARK    8  A    between atoms: N_26  and  C_27
REMARK    9  A    between atoms: C_27  and  C_28
REMARK   10  A    between atoms: C_28  and  C_29
REMARK                            x       y       z     vdW  Elec       q    Type
REMARK                         _______ _______ _______ _____ _____    ______ ____
ROOT
ATOM      1  C   UNL     1       2.684   7.980  18.350  0.00  0.00    +0.000 C 
ENDROOT
BRANCH   1   5
ATOM      2  O   UNL     1       5.490   7.386  17.912  0.00  0.00    +0.000 OA
ATOM      3  C   UNL     1       4.627   6.646  17.499  0.00  0.00    +0.000 C 
ATOM      4  N   UNL     1       4.795   5.394  16.901  0.00  0.00    +0.000 N 
ATOM      5  N   UNL     1       3.253   6.887  17.569  0.00  0.00    +0.000 N 
ATOM      6  H   UNL     1       3.989   5.089  16.361  0.00  0.00    +0.000 HD
ATOM      7  H   UNL     1       2.723   6.038  17.690  0.00  0.00    +0.000 HD
BRANCH   4   8
ATOM      8  N   UNL     1       6.055   4.870  16.526  0.00  0.00    +0.000 NA
ATOM      9  H   UNL     1       6.536   4.540  17.368  0.00  0.00    +0.000 HD
BRANCH   8  10
ATOM     10  C   UNL     1       5.849   3.744  15.599  0.00  0.00    +0.000 C 
BRANCH  10  11
ATOM     11  C   UNL     1       6.372   3.999  14.210  0.00  0.00    +0.000 A 
ATOM     12  C   UNL     1       5.875   3.273  13.118  0.00  0.00    +0.000 A 
ATOM     13  C   UNL     1       6.356   3.515  11.830  0.00  0.00    +0.000 A 
ATOM     14  C   UNL     1       7.331   4.488  11.618  0.00  0.00    +0.000 A 
ATOM     15  C   UNL     1       7.822   5.225  12.693  0.00  0.00    +0.000 A 
ATOM     16  C   UNL     1       7.348   4.980  13.984  0.00  0.00    +0.000 A 
ENDBRANCH  10  11
ENDBRANCH   8  10
ENDBRANCH   4   8
ENDBRANCH   1   5
BRANCH   1  17
ATOM     17  C   UNL     1       2.110   7.398  19.650  0.00  0.00    +0.000 C 
ATOM     18  O   UNL     1       1.651   8.129  20.534  0.00  0.00    +0.000 OA
ATOM     19  N   UNL     1       2.136   6.027  19.778  0.00  0.00    +0.000 N 
ATOM     20  H   UNL     1       2.433   5.437  19.006  0.00  0.00    +0.000 HD
BRANCH  19  21
ATOM     21  C   UNL     1       1.599   5.404  20.975  0.00  0.00    +0.000 C 
BRANCH  21  22
ATOM     22  C   UNL     1       1.178   3.945  20.798  0.00  0.00    +0.000 C 
BRANCH  22  23
ATOM     23  C   UNL     1       2.050   3.167  19.843  0.00  0.00    +0.000 A 
ATOM     24  C   UNL     1       3.322   2.722  20.224  0.00  0.00    +0.000 A 
ATOM     25  C   UNL     1       4.116   1.991  19.338  0.00  0.00    +0.000 A 
ATOM     26  C   UNL     1       3.637   1.686  18.065  0.00  0.00    +0.000 A 
ATOM     27  C   UNL     1       2.370   2.111  17.680  0.00  0.00    +0.000 A 
ATOM     28  C   UNL     1       1.578   2.847  18.561  0.00  0.00    +0.000 A 
ENDBRANCH  22  23
ENDBRANCH  21  22
ENDBRANCH  19  21
ENDBRANCH   1  17
BRANCH   1  29
ATOM     29  C   UNL     1       1.654   8.793  17.575  0.00  0.00    +0.000 C 
BRANCH  29  30
ATOM     30  C   UNL     1       0.848   9.948  18.129  0.00  0.00    +0.000 A 
ATOM     31  C   UNL     1       1.503  10.977  18.794  0.00  0.00    +0.000 A 
ATOM     32  N   UNL     1       0.686  11.313  19.821  0.00  0.00    +0.000 N 
ATOM     33  C   UNL     1      -0.574  11.301  19.296  0.00  0.00    +0.000 A 
ATOM     34  C   UNL     1      -1.721  11.960  19.760  0.00  0.00    +0.000 A 
ATOM     35  C   UNL     1      -2.883  11.800  19.017  0.00  0.00    +0.000 A 
ATOM     36  C   UNL     1      -2.907  10.916  17.946  0.00  0.00    +0.000 A 
ATOM     37  C   UNL     1      -1.768  10.152  17.573  0.00  0.00    +0.000 A 
ATOM     38  C   UNL     1      -0.531  10.380  18.227  0.00  0.00    +0.000 A 
ATOM     39  H   UNL     1       0.875  11.124  20.803  0.00  0.00    +0.000 HD
ENDBRANCH  29  30
ENDBRANCH   1  29
TORSDOF 10
ENDMDL
