MODEL 1
REMARK VINA RESULT:      -6.6      0.000      0.000
REMARK  Name = 
REMARK  13 active torsions:
REMARK  status: ('A' for Active; 'I' for Inactive)
REMARK    1  A    between atoms: C_1  and  C_2
REMARK    2  A    between atoms: C_6  and  C_7
REMARK    3  A    between atoms: C_8  and  N_9
REMARK    4  A    between atoms: C_13  and  C_14
REMARK    5  A    between atoms: C_14  and  C_15
REMARK    6  A    between atoms: C_14  and  N_25
REMARK    7  A    between atoms: N_25  and  C_26
REMARK    8  A    between atoms: N_25  and  C_31
REMARK    9  A    between atoms: C_26  and  C_27
REMARK   10  A    between atoms: C_27  and  N_28
REMARK   11  A    between atoms: N_28  and  C_29
REMARK   12  A    between atoms: N_28  and  C_30
REMARK   13  A    between atoms: C_31  and  C_32
REMARK                            x       y       z     vdW  Elec       q    Type
REMARK                         _______ _______ _______ _____ _____    ______ ____
ROOT
ATOM      1  C   UNL     1      -0.618  12.276  19.944  0.00  0.00    +0.000 C 
ENDROOT
BRANCH   1   2
ATOM      2  C   UNL     1       0.619  13.217  19.963  0.00  0.00    +0.000 A 
ATOM      3  C   UNL     1       1.845  12.754  20.468  0.00  0.00    +0.000 A 
ATOM      4  C   UNL     1       2.911  13.637  20.617  0.00  0.00    +0.000 A 
ATOM      5  N   UNL     1       2.835  14.946  20.323  0.00  0.00    +0.000 NA
ATOM      6  C   UNL     1       1.698  15.400  19.781  0.00  0.00    +0.000 A 
ATOM      7  C   UNL     1       1.666  16.744  19.436  0.00  0.00    +0.000 A 
ATOM      8  C   UNL     1       0.566  17.316  18.794  0.00  0.00    +0.000 A 
ATOM      9  C   UNL     1      -0.531  16.532  18.500  0.00  0.00    +0.000 A 
ATOM     10  C   UNL     1      -0.551  15.192  18.898  0.00  0.00    +0.000 A 
ATOM     11  C   UNL     1       0.559  14.586  19.547  0.00  0.00    +0.000 A 
ENDBRANCH   1   2
BRANCH   1  16
ATOM     12  N   UNL     1      -1.903  12.934  22.172  0.00  0.00    +0.000 N 
ATOM     13  N   UNL     1      -2.086  12.280  23.355  0.00  0.00    +0.000 NA
ATOM     14  N   UNL     1      -1.381  11.170  23.314  0.00  0.00    +0.000 NA
ATOM     15  N   UNL     1      -0.790  11.030  22.107  0.00  0.00    +0.000 NA
ATOM     16  C   UNL     1      -1.144  12.074  21.363  0.00  0.00    +0.000 A 
BRANCH  12  24
ATOM     17  C   UNL     1      -0.202  15.431  22.928  0.00  0.00    +0.000 C 
ATOM     18  C   UNL     1      -1.667  15.393  22.594  0.00  0.00    +0.000 A 
ATOM     19  C   UNL     1      -2.286  16.657  22.624  0.00  0.00    +0.000 A 
ATOM     20  C   UNL     1      -3.487  16.882  21.968  0.00  0.00    +0.000 A 
ATOM     21  C   UNL     1      -4.081  15.847  21.261  0.00  0.00    +0.000 A 
ATOM     22  C   UNL     1      -3.547  14.545  21.289  0.00  0.00    +0.000 A 
ATOM     23  C   UNL     1      -4.297  13.534  20.456  0.00  0.00    +0.000 C 
ATOM     24  C   UNL     1      -2.355  14.282  22.041  0.00  0.00    +0.000 A 
ENDBRANCH  12  24
ENDBRANCH   1  16
BRANCH   1  25
ATOM     25  N   UNL     1      -0.487  10.925  19.290  0.00  0.00    +0.000 NA
BRANCH  25  26
ATOM     26  C   UNL     1      -1.714  10.459  18.570  0.00  0.00    +0.000 C 
BRANCH  26  27
ATOM     27  C   UNL     1      -1.940  10.657  17.035  0.00  0.00    +0.000 C 
BRANCH  27  28
ATOM     28  N   UNL     1      -3.258  10.356  16.440  0.00  0.00    +0.000 NA
ATOM     29  C   UNL     1      -4.239  11.395  16.776  0.00  0.00    +0.000 C 
ATOM     30  C   UNL     1      -3.147  10.315  14.966  0.00  0.00    +0.000 C 
ENDBRANCH  27  28
ENDBRANCH  26  27
ENDBRANCH  25  26
BRANCH  25  31
ATOM     31  C   UNL     1       0.701  10.637  18.481  0.00  0.00    +0.000 C 
BRANCH  31  32
ATOM     32  C   UNL     1       1.389   9.321  18.768  0.00  0.00    +0.000 A 
ATOM     33  C   UNL     1       2.130   8.646  17.787  0.00  0.00    +0.000 A 
ATOM     34  C   UNL     1       2.685   7.395  18.054  0.00  0.00    +0.000 A 
ATOM     35  C   UNL     1       2.558   6.833  19.323  0.00  0.00    +0.000 A 
ATOM     36  C   UNL     1       1.892   7.529  20.328  0.00  0.00    +0.000 A 
ATOM     37  C   UNL     1       1.318   8.770  20.056  0.00  0.00    +0.000 A 
ENDBRANCH  31  32
ENDBRANCH  25  31
ENDBRANCH   1  25
TORSDOF 9
ENDMDL
MODEL 2
REMARK VINA RESULT:      -6.5      0.849      1.907
REMARK  Name = 
REMARK  13 active torsions:
REMARK  status: ('A' for Active; 'I' for Inactive)
REMARK    1  A    between atoms: C_1  and  C_2
REMARK    2  A    between atoms: C_6  and  C_7
REMARK    3  A    between atoms: C_8  and  N_9
REMARK    4  A    between atoms: C_13  and  C_14
REMARK    5  A    between atoms: C_14  and  C_15
REMARK    6  A    between atoms: C_14  and  N_25
REMARK    7  A    between atoms: N_25  and  C_26
REMARK    8  A    between atoms: N_25  and  C_31
REMARK    9  A    between atoms: C_26  and  C_27
REMARK   10  A    between atoms: C_27  and  N_28
REMARK   11  A    between atoms: N_28  and  C_29
REMARK   12  A    between atoms: N_28  and  C_30
REMARK   13  A    between atoms: C_31  and  C_32
REMARK                            x       y       z     vdW  Elec       q    Type
REMARK                         _______ _______ _______ _____ _____    ______ ____
ROOT
ATOM      1  C   UNL     1      -0.217  12.700  19.763  0.00  0.00    +0.000 C 
ENDROOT
BRANCH   1   2
ATOM      2  C   UNL     1       0.997  13.661  19.617  0.00  0.00    +0.000 A 
ATOM      3  C   UNL     1       2.271  13.250  20.041  0.00  0.00    +0.000 A 
ATOM      4  C   UNL     1       3.326  14.159  20.042  0.00  0.00    +0.000 A 
ATOM      5  N   UNL     1       3.197  15.445  19.678  0.00  0.00    +0.000 NA
ATOM      6  C   UNL     1       2.008  15.846  19.210  0.00  0.00    +0.000 A 
ATOM      7  C   UNL     1       1.917  17.165  18.789  0.00  0.00    +0.000 A 
ATOM      8  C   UNL     1       0.754  17.678  18.212  0.00  0.00    +0.000 A 
ATOM      9  C   UNL     1      -0.347  16.859  18.063  0.00  0.00    +0.000 A 
ATOM     10  C   UNL     1      -0.303  15.546  18.541  0.00  0.00    +0.000 A 
ATOM     11  C   UNL     1       0.871  15.001  19.126  0.00  0.00    +0.000 A 
ENDBRANCH   1   2
BRANCH   1  16
ATOM     12  N   UNL     1      -1.324  13.595  22.004  0.00  0.00    +0.000 N 
ATOM     13  N   UNL     1      -1.464  13.044  23.244  0.00  0.00    +0.000 NA
ATOM     14  N   UNL     1      -0.819  11.898  23.249  0.00  0.00    +0.000 NA
ATOM     15  N   UNL     1      -0.313  11.634  22.025  0.00  0.00    +0.000 NA
ATOM     16  C   UNL     1      -0.662  12.636  21.222  0.00  0.00    +0.000 A 
BRANCH  12  24
ATOM     17  C   UNL     1      -4.260  14.510  21.516  0.00  0.00    +0.000 C 
ATOM     18  C   UNL     1      -3.011  15.329  21.351  0.00  0.00    +0.000 A 
ATOM     19  C   UNL     1      -3.254  16.656  20.947  0.00  0.00    +0.000 A 
ATOM     20  C   UNL     1      -2.302  17.648  21.133  0.00  0.00    +0.000 A 
ATOM     21  C   UNL     1      -1.097  17.328  21.740  0.00  0.00    +0.000 A 
ATOM     22  C   UNL     1      -0.775  15.998  22.067  0.00  0.00    +0.000 A 
ATOM     23  C   UNL     1       0.566  15.816  22.737  0.00  0.00    +0.000 C 
ATOM     24  C   UNL     1      -1.716  14.951  21.793  0.00  0.00    +0.000 A 
ENDBRANCH  12  24
ENDBRANCH   1  16
BRANCH   1  25
ATOM     25  N   UNL     1      -0.088  11.292  19.244  0.00  0.00    +0.000 NA
BRANCH  25  26
ATOM     26  C   UNL     1      -1.264  10.809  18.453  0.00  0.00    +0.000 C 
BRANCH  26  27
ATOM     27  C   UNL     1      -2.365  11.760  17.879  0.00  0.00    +0.000 C 
BRANCH  27  28
ATOM     28  N   UNL     1      -3.105  11.377  16.659  0.00  0.00    +0.000 NA
ATOM     29  C   UNL     1      -2.592  10.118  16.104  0.00  0.00    +0.000 C 
ATOM     30  C   UNL     1      -4.532  11.166  16.981  0.00  0.00    +0.000 C 
ENDBRANCH  27  28
ENDBRANCH  26  27
ENDBRANCH  25  26
BRANCH  25  31
ATOM     31  C   UNL     1       1.155  10.887  18.580  0.00  0.00    +0.000 C 
BRANCH  31  32
ATOM     32  C   UNL     1       1.603   9.465  18.832  0.00  0.00    +0.000 A 
ATOM     33  C   UNL     1       1.338   8.811  20.044  0.00  0.00    +0.000 A 
ATOM     34  C   UNL     1       1.835   7.530  20.281  0.00  0.00    +0.000 A 
ATOM     35  C   UNL     1       2.550   6.865  19.287  0.00  0.00    +0.000 A 
ATOM     36  C   UNL     1       2.751   7.473  18.051  0.00  0.00    +0.000 A 
ATOM     37  C   UNL     1       2.274   8.763  17.821  0.00  0.00    +0.000 A 
ENDBRANCH  31  32
ENDBRANCH  25  31
ENDBRANCH   1  25
TORSDOF 9
ENDMDL
MODEL 3
REMARK VINA RESULT:      -6.2      2.012      4.015
REMARK  Name = 
REMARK  13 active torsions:
REMARK  status: ('A' for Active; 'I' for Inactive)
REMARK    1  A    between atoms: C_1  and  C_2
REMARK    2  A    between atoms: C_6  and  C_7
REMARK    3  A    between atoms: C_8  and  N_9
REMARK    4  A    between atoms: C_13  and  C_14
REMARK    5  A    between atoms: C_14  and  C_15
REMARK    6  A    between atoms: C_14  and  N_25
REMARK    7  A    between atoms: N_25  and  C_26
REMARK    8  A    between atoms: N_25  and  C_31
REMARK    9  A    between atoms: C_26  and  C_27
REMARK   10  A    between atoms: C_27  and  N_28
REMARK   11  A    between atoms: N_28  and  C_29
REMARK   12  A    between atoms: N_28  and  C_30
REMARK   13  A    between atoms: C_31  and  C_32
REMARK                            x       y       z     vdW  Elec       q    Type
REMARK                         _______ _______ _______ _____ _____    ______ ____
ROOT
ATOM      1  C   UNL     1      -0.667  14.073  20.152  0.00  0.00    +0.000 C 
ENDROOT
BRANCH   1   2
ATOM      2  C   UNL     1       0.534  14.612  19.325  0.00  0.00    +0.000 A 
ATOM      3  C   UNL     1       1.729  13.876  19.263  0.00  0.00    +0.000 A 
ATOM      4  C   UNL     1       2.848  14.425  18.642  0.00  0.00    +0.000 A 
ATOM      5  N   UNL     1       2.868  15.656  18.104  0.00  0.00    +0.000 NA
ATOM      6  C   UNL     1       1.725  16.352  18.095  0.00  0.00    +0.000 A 
ATOM      7  C   UNL     1       1.760  17.599  17.484  0.00  0.00    +0.000 A 
ATOM      8  C   UNL     1       0.615  18.385  17.343  0.00  0.00    +0.000 A 
ATOM      9  C   UNL     1      -0.590  17.923  17.833  0.00  0.00    +0.000 A 
ATOM     10  C   UNL     1      -0.638  16.702  18.512  0.00  0.00    +0.000 A 
ATOM     11  C   UNL     1       0.513  15.881  18.662  0.00  0.00    +0.000 A 
ENDBRANCH   1   2
BRANCH   1  16
ATOM     12  N   UNL     1      -1.569  14.762  22.552  0.00  0.00    +0.000 N 
ATOM     13  N   UNL     1      -0.940  15.208  23.678  0.00  0.00    +0.000 NA
ATOM     14  N   UNL     1       0.331  15.379  23.386  0.00  0.00    +0.000 NA
ATOM     15  N   UNL     1       0.582  14.991  22.117  0.00  0.00    +0.000 NA
ATOM     16  C   UNL     1      -0.562  14.549  21.599  0.00  0.00    +0.000 A 
BRANCH  12  24
ATOM     17  C   UNL     1      -3.323  16.705  20.865  0.00  0.00    +0.000 C 
ATOM     18  C   UNL     1      -3.786  15.750  21.929  0.00  0.00    +0.000 A 
ATOM     19  C   UNL     1      -5.179  15.763  22.132  0.00  0.00    +0.000 A 
ATOM     20  C   UNL     1      -5.823  14.701  22.751  0.00  0.00    +0.000 A 
ATOM     21  C   UNL     1      -5.083  13.604  23.163  0.00  0.00    +0.000 A 
ATOM     22  C   UNL     1      -3.678  13.595  23.070  0.00  0.00    +0.000 A 
ATOM     23  C   UNL     1      -3.019  12.322  23.544  0.00  0.00    +0.000 C 
ATOM     24  C   UNL     1      -2.996  14.728  22.516  0.00  0.00    +0.000 A 
ENDBRANCH  12  24
ENDBRANCH   1  16
BRANCH   1  25
ATOM     25  N   UNL     1      -0.931  12.590  20.158  0.00  0.00    +0.000 NA
BRANCH  25  26
ATOM     26  C   UNL     1      -0.315  11.852  21.306  0.00  0.00    +0.000 C 
BRANCH  26  27
ATOM     27  C   UNL     1       0.959  10.954  21.170  0.00  0.00    +0.000 C 
BRANCH  27  28
ATOM     28  N   UNL     1       1.108   9.754  22.017  0.00  0.00    +0.000 NA
ATOM     29  C   UNL     1      -0.028   9.613  22.937  0.00  0.00    +0.000 C 
ATOM     30  C   UNL     1       1.143   8.542  21.172  0.00  0.00    +0.000 C 
ENDBRANCH  27  28
ENDBRANCH  26  27
ENDBRANCH  25  26
BRANCH  25  31
ATOM     31  C   UNL     1      -2.297  12.108  19.936  0.00  0.00    +0.000 C 
BRANCH  31  32
ATOM     32  C   UNL     1      -2.526  11.346  18.651  0.00  0.00    +0.000 A 
ATOM     33  C   UNL     1      -1.558  10.477  18.125  0.00  0.00    +0.000 A 
ATOM     34  C   UNL     1      -1.761   9.851  16.896  0.00  0.00    +0.000 A 
ATOM     35  C   UNL     1      -2.959  10.038  16.208  0.00  0.00    +0.000 A 
ATOM     36  C   UNL     1      -3.959  10.835  16.758  0.00  0.00    +0.000 A 
ATOM     37  C   UNL     1      -3.748  11.479  17.976  0.00  0.00    +0.000 A 
ENDBRANCH  31  32
ENDBRANCH  25  31
ENDBRANCH   1  25
TORSDOF 9
ENDMDL
MODEL 4
REMARK VINA RESULT:      -6.2      1.795      5.162
REMARK  Name = 
REMARK  13 active torsions:
REMARK  status: ('A' for Active; 'I' for Inactive)
REMARK    1  A    between atoms: C_1  and  C_2
REMARK    2  A    between atoms: C_6  and  C_7
REMARK    3  A    between atoms: C_8  and  N_9
REMARK    4  A    between atoms: C_13  and  C_14
REMARK    5  A    between atoms: C_14  and  C_15
REMARK    6  A    between atoms: C_14  and  N_25
REMARK    7  A    between atoms: N_25  and  C_26
REMARK    8  A    between atoms: N_25  and  C_31
REMARK    9  A    between atoms: C_26  and  C_27
REMARK   10  A    between atoms: C_27  and  N_28
REMARK   11  A    between atoms: N_28  and  C_29
REMARK   12  A    between atoms: N_28  and  C_30
REMARK   13  A    between atoms: C_31  and  C_32
REMARK                            x       y       z     vdW  Elec       q    Type
REMARK                         _______ _______ _______ _____ _____    ______ ____
ROOT
ATOM      1  C   UNL     1      -0.405  12.653  20.976  0.00  0.00    +0.000 C 
ENDROOT
BRANCH   1   2
ATOM      2  C   UNL     1      -0.305  11.217  21.563  0.00  0.00    +0.000 A 
ATOM      3  C   UNL     1      -0.872  10.930  22.815  0.00  0.00    +0.000 A 
ATOM      4  C   UNL     1      -0.659   9.686  23.403  0.00  0.00    +0.000 A 
ATOM      5  N   UNL     1       0.095   8.723  22.847  0.00  0.00    +0.000 NA
ATOM      6  C   UNL     1       0.594   8.948  21.625  0.00  0.00    +0.000 A 
ATOM      7  C   UNL     1       1.323   7.915  21.051  0.00  0.00    +0.000 A 
ATOM      8  C   UNL     1       1.828   8.001  19.753  0.00  0.00    +0.000 A 
ATOM      9  C   UNL     1       1.613   9.147  19.015  0.00  0.00    +0.000 A 
ATOM     10  C   UNL     1       0.941  10.227  19.595  0.00  0.00    +0.000 A 
ATOM     11  C   UNL     1       0.412  10.161  20.913  0.00  0.00    +0.000 A 
ENDBRANCH   1   2
BRANCH   1  16
ATOM     12  N   UNL     1      -1.790  14.196  22.635  0.00  0.00    +0.000 N 
ATOM     13  N   UNL     1      -1.410  15.075  23.606  0.00  0.00    +0.000 NA
ATOM     14  N   UNL     1      -0.098  15.169  23.571  0.00  0.00    +0.000 NA
ATOM     15  N   UNL     1       0.413  14.322  22.651  0.00  0.00    +0.000 NA
ATOM     16  C   UNL     1      -0.605  13.665  22.101  0.00  0.00    +0.000 A 
BRANCH  12  24
ATOM     17  C   UNL     1      -3.867  12.501  24.219  0.00  0.00    +0.000 C 
ATOM     18  C   UNL     1      -4.053  13.147  22.875  0.00  0.00    +0.000 A 
ATOM     19  C   UNL     1      -5.334  12.949  22.325  0.00  0.00    +0.000 A 
ATOM     20  C   UNL     1      -5.821  13.777  21.325  0.00  0.00    +0.000 A 
ATOM     21  C   UNL     1      -5.038  14.827  20.870  0.00  0.00    +0.000 A 
ATOM     22  C   UNL     1      -3.716  15.000  21.322  0.00  0.00    +0.000 A 
ATOM     23  C   UNL     1      -3.000  16.198  20.746  0.00  0.00    +0.000 C 
ATOM     24  C   UNL     1      -3.171  14.092  22.288  0.00  0.00    +0.000 A 
ENDBRANCH  12  24
ENDBRANCH   1  16
BRANCH   1  25
ATOM     25  N   UNL     1      -1.430  12.924  19.905  0.00  0.00    +0.000 NA
BRANCH  25  26
ATOM     26  C   UNL     1      -0.856  13.267  18.565  0.00  0.00    +0.000 C 
BRANCH  26  27
ATOM     27  C   UNL     1      -0.109  14.608  18.265  0.00  0.00    +0.000 C 
BRANCH  27  28
ATOM     28  N   UNL     1       1.367  14.655  18.314  0.00  0.00    +0.000 NA
ATOM     29  C   UNL     1       1.834  15.235  19.579  0.00  0.00    +0.000 C 
ATOM     30  C   UNL     1       1.918  13.286  18.228  0.00  0.00    +0.000 C 
ENDBRANCH  27  28
ENDBRANCH  26  27
ENDBRANCH  25  26
BRANCH  25  31
ATOM     31  C   UNL     1      -2.552  11.996  19.740  0.00  0.00    +0.000 C 
BRANCH  31  32
ATOM     32  C   UNL     1      -2.666  11.335  18.385  0.00  0.00    +0.000 A 
ATOM     33  C   UNL     1      -1.785  10.321  17.982  0.00  0.00    +0.000 A 
ATOM     34  C   UNL     1      -1.861   9.786  16.696  0.00  0.00    +0.000 A 
ATOM     35  C   UNL     1      -2.855  10.216  15.820  0.00  0.00    +0.000 A 
ATOM     36  C   UNL     1      -3.785  11.166  16.236  0.00  0.00    +0.000 A 
ATOM     37  C   UNL     1      -3.696  11.717  17.514  0.00  0.00    +0.000 A 
ENDBRANCH  31  32
ENDBRANCH  25  31
ENDBRANCH   1  25
TORSDOF 9
ENDMDL
MODEL 5
REMARK VINA RESULT:      -6.2      2.769      6.389
REMARK  Name = 
REMARK  13 active torsions:
REMARK  status: ('A' for Active; 'I' for Inactive)
REMARK    1  A    between atoms: C_1  and  C_2
REMARK    2  A    between atoms: C_6  and  C_7
REMARK    3  A    between atoms: C_8  and  N_9
REMARK    4  A    between atoms: C_13  and  C_14
REMARK    5  A    between atoms: C_14  and  C_15
REMARK    6  A    between atoms: C_14  and  N_25
REMARK    7  A    between atoms: N_25  and  C_26
REMARK    8  A    between atoms: N_25  and  C_31
REMARK    9  A    between atoms: C_26  and  C_27
REMARK   10  A    between atoms: C_27  and  N_28
REMARK   11  A    between atoms: N_28  and  C_29
REMARK   12  A    between atoms: N_28  and  C_30
REMARK   13  A    between atoms: C_31  and  C_32
REMARK                            x       y       z     vdW  Elec       q    Type
REMARK                         _______ _______ _______ _____ _____    ______ ____
ROOT
ATOM      1  C   UNL     1      -1.938  14.052  21.568  0.00  0.00    +0.000 C 
ENDROOT
BRANCH   1   2
ATOM      2  C   UNL     1      -3.165  14.790  20.961  0.00  0.00    +0.000 A 
ATOM      3  C   UNL     1      -3.128  16.183  20.784  0.00  0.00    +0.000 A 
ATOM      4  C   UNL     1      -4.275  16.859  20.376  0.00  0.00    +0.000 A 
ATOM      5  N   UNL     1      -5.454  16.253  20.156  0.00  0.00    +0.000 NA
ATOM      6  C   UNL     1      -5.499  14.919  20.257  0.00  0.00    +0.000 A 
ATOM      7  C   UNL     1      -6.715  14.314  19.971  0.00  0.00    +0.000 A 
ATOM      8  C   UNL     1      -6.866  12.927  19.966  0.00  0.00    +0.000 A 
ATOM      9  C   UNL     1      -5.784  12.125  20.265  0.00  0.00    +0.000 A 
ATOM     10  C   UNL     1      -4.566  12.711  20.621  0.00  0.00    +0.000 A 
ATOM     11  C   UNL     1      -4.386  14.121  20.628  0.00  0.00    +0.000 A 
ENDBRANCH   1   2
BRANCH   1  16
ATOM     12  N   UNL     1      -2.722  14.643  24.035  0.00  0.00    +0.000 N 
ATOM     13  N   UNL     1      -2.036  15.009  25.155  0.00  0.00    +0.000 NA
ATOM     14  N   UNL     1      -0.771  15.155  24.821  0.00  0.00    +0.000 NA
ATOM     15  N   UNL     1      -0.583  14.826  23.525  0.00  0.00    +0.000 NA
ATOM     16  C   UNL     1      -1.760  14.448  23.031  0.00  0.00    +0.000 A 
BRANCH  12  24
ATOM     17  C   UNL     1      -4.483  12.169  24.727  0.00  0.00    +0.000 C 
ATOM     18  C   UNL     1      -4.939  13.479  24.148  0.00  0.00    +0.000 A 
ATOM     19  C   UNL     1      -6.328  13.548  23.931  0.00  0.00    +0.000 A 
ATOM     20  C   UNL     1      -6.973  14.769  23.798  0.00  0.00    +0.000 A 
ATOM     21  C   UNL     1      -6.237  15.941  23.893  0.00  0.00    +0.000 A 
ATOM     22  C   UNL     1      -4.835  15.914  24.009  0.00  0.00    +0.000 A 
ATOM     23  C   UNL     1      -4.181  17.271  24.119  0.00  0.00    +0.000 C 
ATOM     24  C   UNL     1      -4.150  14.655  24.054  0.00  0.00    +0.000 A 
ENDBRANCH  12  24
ENDBRANCH   1  16
BRANCH   1  25
ATOM     25  N   UNL     1      -0.605  14.180  20.877  0.00  0.00    +0.000 NA
BRANCH  25  26
ATOM     26  C   UNL     1       0.307  13.007  21.062  0.00  0.00    +0.000 C 
BRANCH  26  27
ATOM     27  C   UNL     1      -0.198  11.532  21.184  0.00  0.00    +0.000 C 
BRANCH  27  28
ATOM     28  N   UNL     1       0.256  10.689  22.308  0.00  0.00    +0.000 NA
ATOM     29  C   UNL     1      -0.875  10.268  23.143  0.00  0.00    +0.000 C 
ATOM     30  C   UNL     1       0.899   9.463  21.789  0.00  0.00    +0.000 C 
ENDBRANCH  27  28
ENDBRANCH  26  27
ENDBRANCH  25  26
BRANCH  25  31
ATOM     31  C   UNL     1      -0.566  14.622  19.480  0.00  0.00    +0.000 C 
BRANCH  31  32
ATOM     32  C   UNL     1       0.003  16.002  19.242  0.00  0.00    +0.000 A 
ATOM     33  C   UNL     1       1.015  16.534  20.055  0.00  0.00    +0.000 A 
ATOM     34  C   UNL     1       1.463  17.841  19.864  0.00  0.00    +0.000 A 
ATOM     35  C   UNL     1       0.948  18.609  18.821  0.00  0.00    +0.000 A 
ATOM     36  C   UNL     1       0.001  18.064  17.958  0.00  0.00    +0.000 A 
ATOM     37  C   UNL     1      -0.464  16.765  18.162  0.00  0.00    +0.000 A 
ENDBRANCH  31  32
ENDBRANCH  25  31
ENDBRANCH   1  25
TORSDOF 9
ENDMDL
MODEL 6
REMARK VINA RESULT:      -6.1      1.011      3.768
REMARK  Name = 
REMARK  13 active torsions:
REMARK  status: ('A' for Active; 'I' for Inactive)
REMARK    1  A    between atoms: C_1  and  C_2
REMARK    2  A    between atoms: C_6  and  C_7
REMARK    3  A    between atoms: C_8  and  N_9
REMARK    4  A    between atoms: C_13  and  C_14
REMARK    5  A    between atoms: C_14  and  C_15
REMARK    6  A    between atoms: C_14  and  N_25
REMARK    7  A    between atoms: N_25  and  C_26
REMARK    8  A    between atoms: N_25  and  C_31
REMARK    9  A    between atoms: C_26  and  C_27
REMARK   10  A    between atoms: C_27  and  N_28
REMARK   11  A    between atoms: N_28  and  C_29
REMARK   12  A    between atoms: N_28  and  C_30
REMARK   13  A    between atoms: C_31  and  C_32
REMARK                            x       y       z     vdW  Elec       q    Type
REMARK                         _______ _______ _______ _____ _____    ______ ____
ROOT
ATOM      1  C   UNL     1      -0.205  12.596  19.637  0.00  0.00    +0.000 C 
ENDROOT
BRANCH   1   2
ATOM      2  C   UNL     1       0.974  13.610  19.608  0.00  0.00    +0.000 A 
ATOM      3  C   UNL     1       2.253  13.210  20.028  0.00  0.00    +0.000 A 
ATOM      4  C   UNL     1       3.273  14.153  20.136  0.00  0.00    +0.000 A 
ATOM      5  N   UNL     1       3.102  15.461  19.880  0.00  0.00    +0.000 NA
ATOM      6  C   UNL     1       1.910  15.857  19.418  0.00  0.00    +0.000 A 
ATOM      7  C   UNL     1       1.778  17.204  19.109  0.00  0.00    +0.000 A 
ATOM      8  C   UNL     1       0.610  17.722  18.548  0.00  0.00    +0.000 A 
ATOM      9  C   UNL     1      -0.455  16.880  18.300  0.00  0.00    +0.000 A 
ATOM     10  C   UNL     1      -0.372  15.533  18.663  0.00  0.00    +0.000 A 
ATOM     11  C   UNL     1       0.809  14.981  19.231  0.00  0.00    +0.000 A 
ENDBRANCH   1   2
BRANCH   1  16
ATOM     12  N   UNL     1      -1.652  12.992  21.828  0.00  0.00    +0.000 N 
ATOM     13  N   UNL     1      -1.627  12.415  23.063  0.00  0.00    +0.000 NA
ATOM     14  N   UNL     1      -0.603  11.588  23.100  0.00  0.00    +0.000 NA
ATOM     15  N   UNL     1       0.012  11.545  21.898  0.00  0.00    +0.000 NA
ATOM     16  C   UNL     1      -0.651  12.356  21.077  0.00  0.00    +0.000 A 
BRANCH  12  24
ATOM     17  C   UNL     1      -4.720  12.769  21.342  0.00  0.00    +0.000 C 
ATOM     18  C   UNL     1      -3.854  13.982  21.155  0.00  0.00    +0.000 A 
ATOM     19  C   UNL     1      -4.562  15.122  20.729  0.00  0.00    +0.000 A 
ATOM     20  C   UNL     1      -4.036  16.395  20.892  0.00  0.00    +0.000 A 
ATOM     21  C   UNL     1      -2.798  16.547  21.497  0.00  0.00    +0.000 A 
ATOM     22  C   UNL     1      -2.014  15.431  21.845  0.00  0.00    +0.000 A 
ATOM     23  C   UNL     1      -0.699  15.761  22.511  0.00  0.00    +0.000 C 
ATOM     24  C   UNL     1      -2.511  14.109  21.596  0.00  0.00    +0.000 A 
ENDBRANCH  12  24
ENDBRANCH   1  16
BRANCH   1  25
ATOM     25  N   UNL     1      -0.024  11.259  18.967  0.00  0.00    +0.000 NA
BRANCH  25  26
ATOM     26  C   UNL     1       1.256  10.560  19.307  0.00  0.00    +0.000 C 
BRANCH  26  27
ATOM     27  C   UNL     1       1.325   9.068  19.770  0.00  0.00    +0.000 C 
BRANCH  27  28
ATOM     28  N   UNL     1       1.727   8.017  18.813  0.00  0.00    +0.000 NA
ATOM     29  C   UNL     1       2.602   8.562  17.768  0.00  0.00    +0.000 C 
ATOM     30  C   UNL     1       2.486   6.960  19.514  0.00  0.00    +0.000 C 
ENDBRANCH  27  28
ENDBRANCH  26  27
ENDBRANCH  25  26
BRANCH  25  31
ATOM     31  C   UNL     1      -1.131  10.299  18.980  0.00  0.00    +0.000 C 
BRANCH  31  32
ATOM     32  C   UNL     1      -2.182  10.492  17.910  0.00  0.00    +0.000 A 
ATOM     33  C   UNL     1      -2.087   9.864  16.660  0.00  0.00    +0.000 A 
ATOM     34  C   UNL     1      -3.026  10.124  15.663  0.00  0.00    +0.000 A 
ATOM     35  C   UNL     1      -4.105  10.968  15.925  0.00  0.00    +0.000 A 
ATOM     36  C   UNL     1      -4.253  11.535  17.188  0.00  0.00    +0.000 A 
ATOM     37  C   UNL     1      -3.303  11.292  18.178  0.00  0.00    +0.000 A 
ENDBRANCH  31  32
ENDBRANCH  25  31
ENDBRANCH   1  25
TORSDOF 9
ENDMDL
MODEL 7
REMARK VINA RESULT:      -6.1      1.163      3.851
REMARK  Name = 
REMARK  13 active torsions:
REMARK  status: ('A' for Active; 'I' for Inactive)
REMARK    1  A    between atoms: C_1  and  C_2
REMARK    2  A    between atoms: C_6  and  C_7
REMARK    3  A    between atoms: C_8  and  N_9
REMARK    4  A    between atoms: C_13  and  C_14
REMARK    5  A    between atoms: C_14  and  C_15
REMARK    6  A    between atoms: C_14  and  N_25
REMARK    7  A    between atoms: N_25  and  C_26
REMARK    8  A    between atoms: N_25  and  C_31
REMARK    9  A    between atoms: C_26  and  C_27
REMARK   10  A    between atoms: C_27  and  N_28
REMARK   11  A    between atoms: N_28  and  C_29
REMARK   12  A    between atoms: N_28  and  C_30
REMARK   13  A    between atoms: C_31  and  C_32
REMARK                            x       y       z     vdW  Elec       q    Type
REMARK                         _______ _______ _______ _____ _____    ______ ____
ROOT
ATOM      1  C   UNL     1      -0.175  12.800  19.550  0.00  0.00    +0.000 C 
ENDROOT
BRANCH   1   2
ATOM      2  C   UNL     1       1.016  13.787  19.392  0.00  0.00    +0.000 A 
ATOM      3  C   UNL     1       2.322  13.365  19.693  0.00  0.00    +0.000 A 
ATOM      4  C   UNL     1       3.366  14.286  19.688  0.00  0.00    +0.000 A 
ATOM      5  N   UNL     1       3.198  15.594  19.431  0.00  0.00    +0.000 NA
ATOM      6  C   UNL     1       1.976  16.010  19.079  0.00  0.00    +0.000 A 
ATOM      7  C   UNL     1       1.843  17.356  18.766  0.00  0.00    +0.000 A 
ATOM      8  C   UNL     1       0.637  17.893  18.311  0.00  0.00    +0.000 A 
ATOM      9  C   UNL     1      -0.464  17.072  18.180  0.00  0.00    +0.000 A 
ATOM     10  C   UNL     1      -0.374  15.728  18.553  0.00  0.00    +0.000 A 
ATOM     11  C   UNL     1       0.844  15.157  19.012  0.00  0.00    +0.000 A 
ENDBRANCH   1   2
BRANCH   1  16
ATOM     12  N   UNL     1      -1.123  13.416  21.952  0.00  0.00    +0.000 N 
ATOM     13  N   UNL     1      -1.113  12.751  23.143  0.00  0.00    +0.000 NA
ATOM     14  N   UNL     1      -0.399  11.657  22.985  0.00  0.00    +0.000 NA
ATOM     15  N   UNL     1       0.007  11.537  21.703  0.00  0.00    +0.000 NA
ATOM     16  C   UNL     1      -0.477  12.579  21.029  0.00  0.00    +0.000 A 
BRANCH  12  24
ATOM     17  C   UNL     1      -4.146  14.163  21.891  0.00  0.00    +0.000 C 
ATOM     18  C   UNL     1      -2.976  15.075  21.649  0.00  0.00    +0.000 A 
ATOM     19  C   UNL     1      -3.345  16.409  21.389  0.00  0.00    +0.000 A 
ATOM     20  C   UNL     1      -2.437  17.447  21.544  0.00  0.00    +0.000 A 
ATOM     21  C   UNL     1      -1.150  17.166  21.976  0.00  0.00    +0.000 A 
ATOM     22  C   UNL     1      -0.713  15.839  22.151  0.00  0.00    +0.000 A 
ATOM     23  C   UNL     1       0.708  15.699  22.642  0.00  0.00    +0.000 C 
ATOM     24  C   UNL     1      -1.617  14.755  21.903  0.00  0.00    +0.000 A 
ENDBRANCH  12  24
ENDBRANCH   1  16
BRANCH   1  25
ATOM     25  N   UNL     1      -0.092  11.456  18.876  0.00  0.00    +0.000 NA
BRANCH  25  26
ATOM     26  C   UNL     1       1.171  10.698  19.149  0.00  0.00    +0.000 C 
BRANCH  26  27
ATOM     27  C   UNL     1       1.874   9.785  18.091  0.00  0.00    +0.000 C 
BRANCH  27  28
ATOM     28  N   UNL     1       1.926   8.324  18.300  0.00  0.00    +0.000 NA
ATOM     29  C   UNL     1       3.174   7.759  17.769  0.00  0.00    +0.000 C 
ATOM     30  C   UNL     1       1.887   8.019  19.746  0.00  0.00    +0.000 C 
ENDBRANCH  27  28
ENDBRANCH  26  27
ENDBRANCH  25  26
BRANCH  25  31
ATOM     31  C   UNL     1      -1.240  10.548  18.952  0.00  0.00    +0.000 C 
BRANCH  31  32
ATOM     32  C   UNL     1      -2.214  10.620  17.797  0.00  0.00    +0.000 A 
ATOM     33  C   UNL     1      -3.318  11.485  17.816  0.00  0.00    +0.000 A 
ATOM     34  C   UNL     1      -4.246  11.472  16.775  0.00  0.00    +0.000 A 
ATOM     35  C   UNL     1      -4.048  10.638  15.676  0.00  0.00    +0.000 A 
ATOM     36  C   UNL     1      -2.914   9.833  15.609  0.00  0.00    +0.000 A 
ATOM     37  C   UNL     1      -1.997   9.829  16.660  0.00  0.00    +0.000 A 
ENDBRANCH  31  32
ENDBRANCH  25  31
ENDBRANCH   1  25
TORSDOF 9
ENDMDL
MODEL 8
REMARK VINA RESULT:      -6.1      2.385      6.691
REMARK  Name = 
REMARK  13 active torsions:
REMARK  status: ('A' for Active; 'I' for Inactive)
REMARK    1  A    between atoms: C_1  and  C_2
REMARK    2  A    between atoms: C_6  and  C_7
REMARK    3  A    between atoms: C_8  and  N_9
REMARK    4  A    between atoms: C_13  and  C_14
REMARK    5  A    between atoms: C_14  and  C_15
REMARK    6  A    between atoms: C_14  and  N_25
REMARK    7  A    between atoms: N_25  and  C_26
REMARK    8  A    between atoms: N_25  and  C_31
REMARK    9  A    between atoms: C_26  and  C_27
REMARK   10  A    between atoms: C_27  and  N_28
REMARK   11  A    between atoms: N_28  and  C_29
REMARK   12  A    between atoms: N_28  and  C_30
REMARK   13  A    between atoms: C_31  and  C_32
REMARK                            x       y       z     vdW  Elec       q    Type
REMARK                         _______ _______ _______ _____ _____    ______ ____
ROOT
ATOM      1  C   UNL     1      -2.348  13.669  22.288  0.00  0.00    +0.000 C 
ENDROOT
BRANCH   1   2
ATOM      2  C   UNL     1      -1.712  12.261  22.113  0.00  0.00    +0.000 A 
ATOM      3  C   UNL     1      -1.546  11.424  23.229  0.00  0.00    +0.000 A 
ATOM      4  C   UNL     1      -0.849  10.225  23.098  0.00  0.00    +0.000 A 
ATOM      5  N   UNL     1      -0.289   9.817  21.947  0.00  0.00    +0.000 NA
ATOM      6  C   UNL     1      -0.487  10.565  20.855  0.00  0.00    +0.000 A 
ATOM      7  C   UNL     1       0.055  10.091  19.668  0.00  0.00    +0.000 A 
ATOM      8  C   UNL     1      -0.149  10.742  18.451  0.00  0.00    +0.000 A 
ATOM      9  C   UNL     1      -0.901  11.898  18.417  0.00  0.00    +0.000 A 
ATOM     10  C   UNL     1      -1.402  12.433  19.608  0.00  0.00    +0.000 A 
ATOM     11  C   UNL     1      -1.212  11.785  20.859  0.00  0.00    +0.000 A 
ENDBRANCH   1   2
BRANCH   1  16
ATOM     12  N   UNL     1      -0.362  15.431  22.299  0.00  0.00    +0.000 N 
ATOM     13  N   UNL     1       0.290  16.076  23.308  0.00  0.00    +0.000 NA
ATOM     14  N   UNL     1      -0.163  15.598  24.447  0.00  0.00    +0.000 NA
ATOM     15  N   UNL     1      -1.151  14.704  24.226  0.00  0.00    +0.000 NA
ATOM     16  C   UNL     1      -1.336  14.627  22.910  0.00  0.00    +0.000 A 
BRANCH  12  24
ATOM     17  C   UNL     1       1.861  13.664  21.020  0.00  0.00    +0.000 C 
ATOM     18  C   UNL     1       1.266  14.925  20.461  0.00  0.00    +0.000 A 
ATOM     19  C   UNL     1       1.795  15.294  19.209  0.00  0.00    +0.000 A 
ATOM     20  C   UNL     1       1.112  16.161  18.370  0.00  0.00    +0.000 A 
ATOM     21  C   UNL     1      -0.119  16.662  18.765  0.00  0.00    +0.000 A 
ATOM     22  C   UNL     1      -0.636  16.399  20.047  0.00  0.00    +0.000 A 
ATOM     23  C   UNL     1      -1.994  17.000  20.320  0.00  0.00    +0.000 C 
ATOM     24  C   UNL     1       0.107  15.578  20.958  0.00  0.00    +0.000 A 
ENDBRANCH  12  24
ENDBRANCH   1  16
BRANCH   1  25
ATOM     25  N   UNL     1      -3.643  13.787  23.048  0.00  0.00    +0.000 NA
BRANCH  25  26
ATOM     26  C   UNL     1      -4.325  15.113  22.916  0.00  0.00    +0.000 C 
BRANCH  26  27
ATOM     27  C   UNL     1      -5.400  15.634  23.925  0.00  0.00    +0.000 C 
BRANCH  27  28
ATOM     28  N   UNL     1      -5.179  16.904  24.646  0.00  0.00    +0.000 NA
ATOM     29  C   UNL     1      -3.790  17.013  25.110  0.00  0.00    +0.000 C 
ATOM     30  C   UNL     1      -5.432  18.046  23.743  0.00  0.00    +0.000 C 
ENDBRANCH  27  28
ENDBRANCH  26  27
ENDBRANCH  25  26
BRANCH  25  31
ATOM     31  C   UNL     1      -4.632  12.709  22.944  0.00  0.00    +0.000 C 
BRANCH  31  32
ATOM     32  C   UNL     1      -5.487  12.719  21.698  0.00  0.00    +0.000 A 
ATOM     33  C   UNL     1      -4.933  12.557  20.420  0.00  0.00    +0.000 A 
ATOM     34  C   UNL     1      -5.734  12.653  19.283  0.00  0.00    +0.000 A 
ATOM     35  C   UNL     1      -7.107  12.850  19.412  0.00  0.00    +0.000 A 
ATOM     36  C   UNL     1      -7.681  12.933  20.678  0.00  0.00    +0.000 A 
ATOM     37  C   UNL     1      -6.878  12.860  21.815  0.00  0.00    +0.000 A 
ENDBRANCH  31  32
ENDBRANCH  25  31
ENDBRANCH   1  25
TORSDOF 9
ENDMDL
MODEL 9
REMARK VINA RESULT:      -6.1      1.923      4.071
REMARK  Name = 
REMARK  13 active torsions:
REMARK  status: ('A' for Active; 'I' for Inactive)
REMARK    1  A    between atoms: C_1  and  C_2
REMARK    2  A    between atoms: C_6  and  C_7
REMARK    3  A    between atoms: C_8  and  N_9
REMARK    4  A    between atoms: C_13  and  C_14
REMARK    5  A    between atoms: C_14  and  C_15
REMARK    6  A    between atoms: C_14  and  N_25
REMARK    7  A    between atoms: N_25  and  C_26
REMARK    8  A    between atoms: N_25  and  C_31
REMARK    9  A    between atoms: C_26  and  C_27
REMARK   10  A    between atoms: C_27  and  N_28
REMARK   11  A    between atoms: N_28  and  C_29
REMARK   12  A    between atoms: N_28  and  C_30
REMARK   13  A    between atoms: C_31  and  C_32
REMARK                            x       y       z     vdW  Elec       q    Type
REMARK                         _______ _______ _______ _____ _____    ______ ____
ROOT
ATOM      1  C   UNL     1      -0.375  13.836  19.660  0.00  0.00    +0.000 C 
ENDROOT
BRANCH   1   2
ATOM      2  C   UNL     1       0.796  14.543  18.921  0.00  0.00    +0.000 A 
ATOM      3  C   UNL     1       2.037  13.898  18.796  0.00  0.00    +0.000 A 
ATOM      4  C   UNL     1       3.124  14.586  18.262  0.00  0.00    +0.000 A 
ATOM      5  N   UNL     1       3.068  15.870  17.870  0.00  0.00    +0.000 NA
ATOM      6  C   UNL     1       1.881  16.487  17.919  0.00  0.00    +0.000 A 
ATOM      7  C   UNL     1       1.840  17.795  17.456  0.00  0.00    +0.000 A 
ATOM      8  C   UNL     1       0.647  18.516  17.386  0.00  0.00    +0.000 A 
ATOM      9  C   UNL     1      -0.529  17.924  17.798  0.00  0.00    +0.000 A 
ATOM     10  C   UNL     1      -0.504  16.633  18.332  0.00  0.00    +0.000 A 
ATOM     11  C   UNL     1       0.697  15.876  18.408  0.00  0.00    +0.000 A 
ENDBRANCH   1   2
BRANCH   1  16
ATOM     12  N   UNL     1      -1.487  14.351  22.016  0.00  0.00    +0.000 N 
ATOM     13  N   UNL     1      -0.975  14.811  23.193  0.00  0.00    +0.000 NA
ATOM     14  N   UNL     1       0.291  15.109  22.991  0.00  0.00    +0.000 NA
ATOM     15  N   UNL     1       0.656  14.793  21.730  0.00  0.00    +0.000 NA
ATOM     16  C   UNL     1      -0.406  14.266  21.124  0.00  0.00    +0.000 A 
BRANCH  12  24
ATOM     17  C   UNL     1      -3.137  12.164  23.496  0.00  0.00    +0.000 C 
ATOM     18  C   UNL     1      -3.602  13.057  22.380  0.00  0.00    +0.000 A 
ATOM     19  C   UNL     1      -4.947  12.853  22.016  0.00  0.00    +0.000 A 
ATOM     20  C   UNL     1      -5.656  13.822  21.320  0.00  0.00    +0.000 A 
ATOM     21  C   UNL     1      -5.032  15.016  20.991  0.00  0.00    +0.000 A 
ATOM     22  C   UNL     1      -3.664  15.219  21.248  0.00  0.00    +0.000 A 
ATOM     23  C   UNL     1      -3.137  16.577  20.847  0.00  0.00    +0.000 C 
ATOM     24  C   UNL     1      -2.899  14.186  21.884  0.00  0.00    +0.000 A 
ENDBRANCH  12  24
ENDBRANCH   1  16
BRANCH   1  25
ATOM     25  N   UNL     1      -0.460  12.333  19.605  0.00  0.00    +0.000 NA
BRANCH  25  26
ATOM     26  C   UNL     1       0.551  11.621  20.451  0.00  0.00    +0.000 C 
BRANCH  26  27
ATOM     27  C   UNL     1       0.909  10.108  20.275  0.00  0.00    +0.000 C 
BRANCH  27  28
ATOM     28  N   UNL     1       1.007   9.233  21.460  0.00  0.00    +0.000 NA
ATOM     29  C   UNL     1      -0.273   9.167  22.175  0.00  0.00    +0.000 C 
ATOM     30  C   UNL     1       1.348   7.856  21.042  0.00  0.00    +0.000 C 
ENDBRANCH  27  28
ENDBRANCH  26  27
ENDBRANCH  25  26
BRANCH  25  31
ATOM     31  C   UNL     1      -1.767  11.686  19.747  0.00  0.00    +0.000 C 
BRANCH  31  32
ATOM     32  C   UNL     1      -2.449  11.289  18.457  0.00  0.00    +0.000 A 
ATOM     33  C   UNL     1      -1.808  10.489  17.500  0.00  0.00    +0.000 A 
ATOM     34  C   UNL     1      -2.429  10.206  16.284  0.00  0.00    +0.000 A 
ATOM     35  C   UNL     1      -3.719  10.669  16.035  0.00  0.00    +0.000 A 
ATOM     36  C   UNL     1      -4.396  11.398  17.010  0.00  0.00    +0.000 A 
ATOM     37  C   UNL     1      -3.768  11.699  18.218  0.00  0.00    +0.000 A 
ENDBRANCH  31  32
ENDBRANCH  25  31
ENDBRANCH   1  25
TORSDOF 9
ENDMDL
