MODEL 1
REMARK VINA RESULT:      -8.2      0.000      0.000
REMARK  Name = 
REMARK  10 active torsions:
REMARK  status: ('A' for Active; 'I' for Inactive)
REMARK    1  A    between atoms: C_1  and  C_2
REMARK    2  A    between atoms: C_5  and  O_6
REMARK    3  A    between atoms: O_6  and  C_7
REMARK    4  A    between atoms: C_12  and  C_13
REMARK    5  A    between atoms: C_13  and  O_14
REMARK    6  A    between atoms: O_14  and  C_15
REMARK    7  A    between atoms: C_19  and  C_20
REMARK    8  A    between atoms: C_20  and  O_22
REMARK    9  A    between atoms: N_24  and  C_25
REMARK   10  A    between atoms: C_29  and  C_30
REMARK                            x       y       z     vdW  Elec       q    Type
REMARK                         _______ _______ _______ _____ _____    ______ ____
ROOT
ATOM      1  C   UNL     1      -0.899  11.624  22.451  0.00  0.00    +0.000 A 
ATOM      2  C   UNL     1      -0.936  10.424  23.168  0.00  0.00    +0.000 A 
ATOM      3  C   UNL     1      -0.312   9.269  22.669  0.00  0.00    +0.000 A 
ATOM      4  C   UNL     1       0.356   9.336  21.437  0.00  0.00    +0.000 A 
ATOM      5  N   UNL     1       1.013   8.360  20.732  0.00  0.00    +0.000 NA
ATOM      6  C   UNL     1       1.461   8.932  19.623  0.00  0.00    +0.000 A 
ATOM      7  N   UNL     1       1.105  10.268  19.604  0.00  0.00    +0.000 N 
ATOM      8  C   UNL     1       1.342  11.268  18.591  0.00  0.00    +0.000 C 
ATOM      9  C   UNL     1       0.402  10.542  20.756  0.00  0.00    +0.000 A 
ATOM     10  C   UNL     1      -0.192  11.712  21.244  0.00  0.00    +0.000 A 
ENDROOT
BRANCH   1  11
ATOM     11  O   UNL     1      -1.522  12.710  23.032  0.00  0.00    +0.000 OA
BRANCH  11  16
ATOM     12  C   UNL     1      -7.154  12.838  23.057  0.00  0.00    +0.000 C 
ATOM     13  C   UNL     1      -5.654  12.818  23.046  0.00  0.00    +0.000 A 
ATOM     14  C   UNL     1      -4.941  12.798  24.252  0.00  0.00    +0.000 A 
ATOM     15  C   UNL     1      -3.550  12.765  24.238  0.00  0.00    +0.000 A 
ATOM     16  C   UNL     1      -2.911  12.759  23.012  0.00  0.00    +0.000 A 
ATOM     17  N   UNL     1      -3.568  12.761  21.830  0.00  0.00    +0.000 NA
ATOM     18  C   UNL     1      -4.922  12.807  21.853  0.00  0.00    +0.000 A 
ATOM     19  C   UNL     1      -5.595  12.848  20.511  0.00  0.00    +0.000 C 
ENDBRANCH  11  16
ENDBRANCH   1  11
BRANCH   6  20
ATOM     20  C   UNL     1       2.182   8.193  18.533  0.00  0.00    +0.000 C 
BRANCH  20  21
ATOM     21  O   UNL     1       2.525   6.901  19.031  0.00  0.00    +0.000 OA
BRANCH  21  22
ATOM     22  C   UNL     1       3.347   6.107  18.272  0.00  0.00    +0.000 A 
ATOM     23  C   UNL     1       2.751   4.905  17.869  0.00  0.00    +0.000 A 
ATOM     24  C   UNL     1       3.468   3.955  17.139  0.00  0.00    +0.000 A 
ATOM     25  C   UNL     1       4.794   4.204  16.799  0.00  0.00    +0.000 A 
ATOM     26  C   UNL     1       5.405   5.409  17.174  0.00  0.00    +0.000 A 
ATOM     27  C   UNL     1       4.675   6.365  17.914  0.00  0.00    +0.000 A 
BRANCH  26  28
ATOM     28  C   UNL     1       6.845   5.556  16.818  0.00  0.00    +0.000 C 
ATOM     29  O   UNL     1       7.624   4.620  16.831  0.00  0.00    +0.000 OA
BRANCH  28  30
ATOM     30  O   UNL     1       7.220   6.802  16.447  0.00  0.00    +0.000 OA
ATOM     31  H   UNL     1       6.644   7.253  15.809  0.00  0.00    +0.000 HD
ENDBRANCH  28  30
ENDBRANCH  26  28
ENDBRANCH  21  22
ENDBRANCH  20  21
ENDBRANCH   6  20
TORSDOF 7
ENDMDL
MODEL 2
REMARK VINA RESULT:      -8.2      2.840      4.340
REMARK  Name = 
REMARK  10 active torsions:
REMARK  status: ('A' for Active; 'I' for Inactive)
REMARK    1  A    between atoms: C_1  and  C_2
REMARK    2  A    between atoms: C_5  and  O_6
REMARK    3  A    between atoms: O_6  and  C_7
REMARK    4  A    between atoms: C_12  and  C_13
REMARK    5  A    between atoms: C_13  and  O_14
REMARK    6  A    between atoms: O_14  and  C_15
REMARK    7  A    between atoms: C_19  and  C_20
REMARK    8  A    between atoms: C_20  and  O_22
REMARK    9  A    between atoms: N_24  and  C_25
REMARK   10  A    between atoms: C_29  and  C_30
REMARK                            x       y       z     vdW  Elec       q    Type
REMARK                         _______ _______ _______ _____ _____    ______ ____
ROOT
ATOM      1  C   UNL     1       1.185   9.393  19.226  0.00  0.00    +0.000 A 
ATOM      2  C   UNL     1       0.855   9.028  20.535  0.00  0.00    +0.000 A 
ATOM      3  C   UNL     1       1.262   7.791  21.061  0.00  0.00    +0.000 A 
ATOM      4  C   UNL     1       2.011   6.923  20.252  0.00  0.00    +0.000 A 
ATOM      5  N   UNL     1       2.502   5.669  20.516  0.00  0.00    +0.000 NA
ATOM      6  C   UNL     1       3.131   5.271  19.420  0.00  0.00    +0.000 A 
ATOM      7  N   UNL     1       3.058   6.254  18.450  0.00  0.00    +0.000 N 
ATOM      8  C   UNL     1       3.563   6.251  17.099  0.00  0.00    +0.000 C 
ATOM      9  C   UNL     1       2.350   7.317  18.968  0.00  0.00    +0.000 A 
ATOM     10  C   UNL     1       1.975   8.553  18.429  0.00  0.00    +0.000 A 
ENDROOT
BRANCH   1  11
ATOM     11  O   UNL     1       0.759  10.637  18.806  0.00  0.00    +0.000 OA
BRANCH  11  16
ATOM     12  C   UNL     1      -4.750  11.430  17.934  0.00  0.00    +0.000 C 
ATOM     13  C   UNL     1      -3.286  11.211  18.179  0.00  0.00    +0.000 A 
ATOM     14  C   UNL     1      -2.561  10.327  17.369  0.00  0.00    +0.000 A 
ATOM     15  C   UNL     1      -1.200  10.137  17.589  0.00  0.00    +0.000 A 
ATOM     16  C   UNL     1      -0.604  10.837  18.622  0.00  0.00    +0.000 A 
ATOM     17  N   UNL     1      -1.270  11.709  19.412  0.00  0.00    +0.000 NA
ATOM     18  C   UNL     1      -2.597  11.878  19.198  0.00  0.00    +0.000 A 
ATOM     19  C   UNL     1      -3.290  12.829  20.131  0.00  0.00    +0.000 C 
ENDBRANCH  11  16
ENDBRANCH   1  11
BRANCH   6  20
ATOM     20  C   UNL     1       3.759   3.916  19.260  0.00  0.00    +0.000 C 
BRANCH  20  21
ATOM     21  O   UNL     1       5.151   4.041  19.544  0.00  0.00    +0.000 OA
BRANCH  21  22
ATOM     22  C   UNL     1       5.963   4.605  18.594  0.00  0.00    +0.000 A 
ATOM     23  C   UNL     1       6.709   5.693  19.066  0.00  0.00    +0.000 A 
ATOM     24  C   UNL     1       7.544   6.418  18.214  0.00  0.00    +0.000 A 
ATOM     25  C   UNL     1       7.643   6.055  16.874  0.00  0.00    +0.000 A 
ATOM     26  C   UNL     1       6.922   4.958  16.384  0.00  0.00    +0.000 A 
ATOM     27  C   UNL     1       6.078   4.229  17.251  0.00  0.00    +0.000 A 
BRANCH  26  28
ATOM     28  C   UNL     1       7.046   4.688  14.924  0.00  0.00    +0.000 C 
ATOM     29  O   UNL     1       6.435   3.793  14.367  0.00  0.00    +0.000 OA
BRANCH  28  30
ATOM     30  O   UNL     1       7.863   5.531  14.250  0.00  0.00    +0.000 OA
ATOM     31  H   UNL     1       8.092   6.359  14.701  0.00  0.00    +0.000 HD
ENDBRANCH  28  30
ENDBRANCH  26  28
ENDBRANCH  21  22
ENDBRANCH  20  21
ENDBRANCH   6  20
TORSDOF 7
ENDMDL
MODEL 3
REMARK VINA RESULT:      -8.2      3.162      4.357
REMARK  Name = 
REMARK  10 active torsions:
REMARK  status: ('A' for Active; 'I' for Inactive)
REMARK    1  A    between atoms: C_1  and  C_2
REMARK    2  A    between atoms: C_5  and  O_6
REMARK    3  A    between atoms: O_6  and  C_7
REMARK    4  A    between atoms: C_12  and  C_13
REMARK    5  A    between atoms: C_13  and  O_14
REMARK    6  A    between atoms: O_14  and  C_15
REMARK    7  A    between atoms: C_19  and  C_20
REMARK    8  A    between atoms: C_20  and  O_22
REMARK    9  A    between atoms: N_24  and  C_25
REMARK   10  A    between atoms: C_29  and  C_30
REMARK                            x       y       z     vdW  Elec       q    Type
REMARK                         _______ _______ _______ _____ _____    ______ ____
ROOT
ATOM      1  C   UNL     1       1.257   9.383  19.291  0.00  0.00    +0.000 A 
ATOM      2  C   UNL     1       0.909   9.005  20.591  0.00  0.00    +0.000 A 
ATOM      3  C   UNL     1       1.269   7.745  21.095  0.00  0.00    +0.000 A 
ATOM      4  C   UNL     1       1.990   6.866  20.271  0.00  0.00    +0.000 A 
ATOM      5  N   UNL     1       2.434   5.591  20.512  0.00  0.00    +0.000 NA
ATOM      6  C   UNL     1       3.053   5.191  19.410  0.00  0.00    +0.000 A 
ATOM      7  N   UNL     1       3.019   6.195  18.460  0.00  0.00    +0.000 N 
ATOM      8  C   UNL     1       3.528   6.200  17.110  0.00  0.00    +0.000 C 
ATOM      9  C   UNL     1       2.348   7.272  18.996  0.00  0.00    +0.000 A 
ATOM     10  C   UNL     1       2.020   8.531  18.480  0.00  0.00    +0.000 A 
ENDROOT
BRANCH   1  11
ATOM     11  O   UNL     1       0.878  10.650  18.894  0.00  0.00    +0.000 OA
BRANCH  11  16
ATOM     12  C   UNL     1      -4.621  11.664  18.209  0.00  0.00    +0.000 C 
ATOM     13  C   UNL     1      -3.154  11.402  18.379  0.00  0.00    +0.000 A 
ATOM     14  C   UNL     1      -2.454  11.984  19.444  0.00  0.00    +0.000 A 
ATOM     15  C   UNL     1      -1.097  11.727  19.609  0.00  0.00    +0.000 A 
ATOM     16  C   UNL     1      -0.475  10.898  18.693  0.00  0.00    +0.000 A 
ATOM     17  N   UNL     1      -1.123  10.308  17.664  0.00  0.00    +0.000 NA
ATOM     18  C   UNL     1      -2.442  10.573  17.504  0.00  0.00    +0.000 A 
ATOM     19  C   UNL     1      -3.099   9.922  16.321  0.00  0.00    +0.000 C 
ENDBRANCH  11  16
ENDBRANCH   1  11
BRANCH   6  20
ATOM     20  C   UNL     1       3.632   3.818  19.226  0.00  0.00    +0.000 C 
BRANCH  20  21
ATOM     21  O   UNL     1       5.023   3.883  19.534  0.00  0.00    +0.000 OA
BRANCH  21  22
ATOM     22  C   UNL     1       5.863   4.485  18.633  0.00  0.00    +0.000 A 
ATOM     23  C   UNL     1       6.584   5.562  19.168  0.00  0.00    +0.000 A 
ATOM     24  C   UNL     1       7.442   6.321  18.371  0.00  0.00    +0.000 A 
ATOM     25  C   UNL     1       7.591   6.005  17.024  0.00  0.00    +0.000 A 
ATOM     26  C   UNL     1       6.897   4.920  16.472  0.00  0.00    +0.000 A 
ATOM     27  C   UNL     1       6.029   4.156  17.283  0.00  0.00    +0.000 A 
BRANCH  26  28
ATOM     28  C   UNL     1       7.075   4.700  15.009  0.00  0.00    +0.000 C 
ATOM     29  O   UNL     1       7.770   5.421  14.315  0.00  0.00    +0.000 OA
BRANCH  28  30
ATOM     30  O   UNL     1       6.433   3.619  14.508  0.00  0.00    +0.000 OA
ATOM     31  H   UNL     1       6.836   3.201  13.730  0.00  0.00    +0.000 HD
ENDBRANCH  28  30
ENDBRANCH  26  28
ENDBRANCH  21  22
ENDBRANCH  20  21
ENDBRANCH   6  20
TORSDOF 7
ENDMDL
MODEL 4
REMARK VINA RESULT:      -8.1      2.079      2.502
REMARK  Name = 
REMARK  10 active torsions:
REMARK  status: ('A' for Active; 'I' for Inactive)
REMARK    1  A    between atoms: C_1  and  C_2
REMARK    2  A    between atoms: C_5  and  O_6
REMARK    3  A    between atoms: O_6  and  C_7
REMARK    4  A    between atoms: C_12  and  C_13
REMARK    5  A    between atoms: C_13  and  O_14
REMARK    6  A    between atoms: O_14  and  C_15
REMARK    7  A    between atoms: C_19  and  C_20
REMARK    8  A    between atoms: C_20  and  O_22
REMARK    9  A    between atoms: N_24  and  C_25
REMARK   10  A    between atoms: C_29  and  C_30
REMARK                            x       y       z     vdW  Elec       q    Type
REMARK                         _______ _______ _______ _____ _____    ______ ____
ROOT
ATOM      1  C   UNL     1      -1.768  12.308  21.540  0.00  0.00    +0.000 A 
ATOM      2  C   UNL     1      -1.694  11.799  22.840  0.00  0.00    +0.000 A 
ATOM      3  C   UNL     1      -0.918  10.664  23.125  0.00  0.00    +0.000 A 
ATOM      4  C   UNL     1      -0.211  10.045  22.082  0.00  0.00    +0.000 A 
ATOM      5  N   UNL     1       0.586   8.929  22.092  0.00  0.00    +0.000 NA
ATOM      6  C   UNL     1       1.009   8.755  20.848  0.00  0.00    +0.000 A 
ATOM      7  N   UNL     1       0.499   9.748  20.033  0.00  0.00    +0.000 N 
ATOM      8  C   UNL     1       0.659   9.944  18.613  0.00  0.00    +0.000 C 
ATOM      9  C   UNL     1      -0.279  10.582  20.806  0.00  0.00    +0.000 A 
ATOM     10  C   UNL     1      -1.027  11.726  20.502  0.00  0.00    +0.000 A 
ENDROOT
BRANCH   1  11
ATOM     11  O   UNL     1      -2.539  13.439  21.363  0.00  0.00    +0.000 OA
BRANCH  11  16
ATOM     12  C   UNL     1      -7.852  13.334  23.233  0.00  0.00    +0.000 C 
ATOM     13  C   UNL     1      -6.442  13.369  22.723  0.00  0.00    +0.000 A 
ATOM     14  C   UNL     1      -5.485  14.177  23.353  0.00  0.00    +0.000 A 
ATOM     15  C   UNL     1      -4.175  14.196  22.887  0.00  0.00    +0.000 A 
ATOM     16  C   UNL     1      -3.860  13.408  21.795  0.00  0.00    +0.000 A 
ATOM     17  N   UNL     1      -4.754  12.606  21.174  0.00  0.00    +0.000 NA
ATOM     18  C   UNL     1      -6.030  12.603  21.627  0.00  0.00    +0.000 A 
ATOM     19  C   UNL     1      -6.986  11.723  20.873  0.00  0.00    +0.000 C 
ENDBRANCH  11  16
ENDBRANCH   1  11
BRANCH   6  20
ATOM     20  C   UNL     1       1.858   7.597  20.407  0.00  0.00    +0.000 C 
BRANCH  20  21
ATOM     21  O   UNL     1       1.235   6.398  20.863  0.00  0.00    +0.000 OA
BRANCH  21  22
ATOM     22  C   UNL     1       1.736   5.197  20.429  0.00  0.00    +0.000 A 
ATOM     23  C   UNL     1       0.773   4.182  20.347  0.00  0.00    +0.000 A 
ATOM     24  C   UNL     1       1.126   2.883  19.977  0.00  0.00    +0.000 A 
ATOM     25  C   UNL     1       2.453   2.588  19.680  0.00  0.00    +0.000 A 
ATOM     26  C   UNL     1       3.430   3.591  19.735  0.00  0.00    +0.000 A 
ATOM     27  C   UNL     1       3.067   4.903  20.112  0.00  0.00    +0.000 A 
BRANCH  26  28
ATOM     28  C   UNL     1       4.830   3.163  19.460  0.00  0.00    +0.000 C 
ATOM     29  O   UNL     1       5.660   3.906  18.969  0.00  0.00    +0.000 OA
BRANCH  28  30
ATOM     30  O   UNL     1       5.126   1.894  19.827  0.00  0.00    +0.000 OA
ATOM     31  H   UNL     1       6.012   1.574  19.594  0.00  0.00    +0.000 HD
ENDBRANCH  28  30
ENDBRANCH  26  28
ENDBRANCH  21  22
ENDBRANCH  20  21
ENDBRANCH   6  20
TORSDOF 7
ENDMDL
MODEL 5
REMARK VINA RESULT:      -8.1      2.216     11.021
REMARK  Name = 
REMARK  10 active torsions:
REMARK  status: ('A' for Active; 'I' for Inactive)
REMARK    1  A    between atoms: C_1  and  C_2
REMARK    2  A    between atoms: C_5  and  O_6
REMARK    3  A    between atoms: O_6  and  C_7
REMARK    4  A    between atoms: C_12  and  C_13
REMARK    5  A    between atoms: C_13  and  O_14
REMARK    6  A    between atoms: O_14  and  C_15
REMARK    7  A    between atoms: C_19  and  C_20
REMARK    8  A    between atoms: C_20  and  O_22
REMARK    9  A    between atoms: N_24  and  C_25
REMARK   10  A    between atoms: C_29  and  C_30
REMARK                            x       y       z     vdW  Elec       q    Type
REMARK                         _______ _______ _______ _____ _____    ______ ____
ROOT
ATOM      1  C   UNL     1       2.408   7.076  19.515  0.00  0.00    +0.000 A 
ATOM      2  C   UNL     1       2.615   7.683  18.273  0.00  0.00    +0.000 A 
ATOM      3  C   UNL     1       1.998   8.904  17.956  0.00  0.00    +0.000 A 
ATOM      4  C   UNL     1       1.167   9.512  18.911  0.00  0.00    +0.000 A 
ATOM      5  N   UNL     1       0.441  10.673  18.841  0.00  0.00    +0.000 NA
ATOM      6  C   UNL     1      -0.184  10.798  20.003  0.00  0.00    +0.000 A 
ATOM      7  N   UNL     1       0.132   9.733  20.826  0.00  0.00    +0.000 N 
ATOM      8  C   UNL     1      -0.335   9.430  22.157  0.00  0.00    +0.000 C 
ATOM      9  C   UNL     1       0.997   8.905  20.145  0.00  0.00    +0.000 A 
ATOM     10  C   UNL     1       1.620   7.700  20.491  0.00  0.00    +0.000 A 
ENDROOT
BRANCH   1  11
ATOM     11  O   UNL     1       3.075   5.889  19.741  0.00  0.00    +0.000 OA
BRANCH  11  16
ATOM     12  C   UNL     1       6.934   4.197  16.003  0.00  0.00    +0.000 C 
ATOM     13  C   UNL     1       5.909   4.661  16.994  0.00  0.00    +0.000 A 
ATOM     14  C   UNL     1       4.546   4.451  16.749  0.00  0.00    +0.000 A 
ATOM     15  C   UNL     1       3.598   4.870  17.677  0.00  0.00    +0.000 A 
ATOM     16  C   UNL     1       4.045   5.496  18.826  0.00  0.00    +0.000 A 
ATOM     17  N   UNL     1       5.353   5.700  19.102  0.00  0.00    +0.000 NA
ATOM     18  C   UNL     1       6.268   5.301  18.187  0.00  0.00    +0.000 A 
ATOM     19  C   UNL     1       7.701   5.590  18.529  0.00  0.00    +0.000 C 
ENDBRANCH  11  16
ENDBRANCH   1  11
BRANCH   6  20
ATOM     20  C   UNL     1      -1.146  11.907  20.321  0.00  0.00    +0.000 C 
BRANCH  20  21
ATOM     21  O   UNL     1      -0.557  12.723  21.331  0.00  0.00    +0.000 OA
BRANCH  21  22
ATOM     22  C   UNL     1      -1.351  13.165  22.358  0.00  0.00    +0.000 A 
ATOM     23  C   UNL     1      -0.802  14.240  23.071  0.00  0.00    +0.000 A 
ATOM     24  C   UNL     1      -1.454  14.775  24.183  0.00  0.00    +0.000 A 
ATOM     25  C   UNL     1      -2.672  14.240  24.591  0.00  0.00    +0.000 A 
ATOM     26  C   UNL     1      -3.251  13.179  23.881  0.00  0.00    +0.000 A 
ATOM     27  C   UNL     1      -2.585  12.640  22.757  0.00  0.00    +0.000 A 
BRANCH  26  28
ATOM     28  C   UNL     1      -4.524  12.634  24.431  0.00  0.00    +0.000 C 
ATOM     29  O   UNL     1      -5.465  12.321  23.724  0.00  0.00    +0.000 OA
BRANCH  28  30
ATOM     30  O   UNL     1      -4.550  12.480  25.776  0.00  0.00    +0.000 OA
ATOM     31  H   UNL     1      -4.850  13.246  26.291  0.00  0.00    +0.000 HD
ENDBRANCH  28  30
ENDBRANCH  26  28
ENDBRANCH  21  22
ENDBRANCH  20  21
ENDBRANCH   6  20
TORSDOF 7
ENDMDL
MODEL 6
REMARK VINA RESULT:      -8.0      3.553      6.859
REMARK  Name = 
REMARK  10 active torsions:
REMARK  status: ('A' for Active; 'I' for Inactive)
REMARK    1  A    between atoms: C_1  and  C_2
REMARK    2  A    between atoms: C_5  and  O_6
REMARK    3  A    between atoms: O_6  and  C_7
REMARK    4  A    between atoms: C_12  and  C_13
REMARK    5  A    between atoms: C_13  and  O_14
REMARK    6  A    between atoms: O_14  and  C_15
REMARK    7  A    between atoms: C_19  and  C_20
REMARK    8  A    between atoms: C_20  and  O_22
REMARK    9  A    between atoms: N_24  and  C_25
REMARK   10  A    between atoms: C_29  and  C_30
REMARK                            x       y       z     vdW  Elec       q    Type
REMARK                         _______ _______ _______ _____ _____    ______ ____
ROOT
ATOM      1  C   UNL     1       2.392   5.767  19.793  0.00  0.00    +0.000 A 
ATOM      2  C   UNL     1       1.714   5.104  18.766  0.00  0.00    +0.000 A 
ATOM      3  C   UNL     1       2.418   4.516  17.702  0.00  0.00    +0.000 A 
ATOM      4  C   UNL     1       3.819   4.601  17.686  0.00  0.00    +0.000 A 
ATOM      5  N   UNL     1       4.724   4.138  16.765  0.00  0.00    +0.000 NA
ATOM      6  C   UNL     1       5.924   4.483  17.208  0.00  0.00    +0.000 A 
ATOM      7  N   UNL     1       5.808   5.160  18.408  0.00  0.00    +0.000 N 
ATOM      8  C   UNL     1       6.834   5.750  19.234  0.00  0.00    +0.000 C 
ATOM      9  C   UNL     1       4.471   5.239  18.729  0.00  0.00    +0.000 A 
ATOM     10  C   UNL     1       3.792   5.813  19.811  0.00  0.00    +0.000 A 
ENDROOT
BRANCH   1  11
ATOM     11  O   UNL     1       1.614   6.294  20.805  0.00  0.00    +0.000 OA
BRANCH  11  16
ATOM     12  C   UNL     1      -0.304  11.570  20.342  0.00  0.00    +0.000 C 
ATOM     13  C   UNL     1       0.220  10.170  20.468  0.00  0.00    +0.000 A 
ATOM     14  C   UNL     1      -0.158   9.372  21.556  0.00  0.00    +0.000 A 
ATOM     15  C   UNL     1       0.318   8.069  21.663  0.00  0.00    +0.000 A 
ATOM     16  C   UNL     1       1.168   7.604  20.677  0.00  0.00    +0.000 A 
ATOM     17  N   UNL     1       1.541   8.341  19.607  0.00  0.00    +0.000 NA
ATOM     18  C   UNL     1       1.082   9.612  19.517  0.00  0.00    +0.000 A 
ATOM     19  C   UNL     1       1.561  10.395  18.328  0.00  0.00    +0.000 C 
ENDBRANCH  11  16
ENDBRANCH   1  11
BRANCH   6  20
ATOM     20  C   UNL     1       7.200   4.227  16.457  0.00  0.00    +0.000 C 
BRANCH  20  21
ATOM     21  O   UNL     1       7.313   5.216  15.435  0.00  0.00    +0.000 OA
BRANCH  21  22
ATOM     22  C   UNL     1       7.174   4.822  14.129  0.00  0.00    +0.000 A 
ATOM     23  C   UNL     1       7.947   5.570  13.231  0.00  0.00    +0.000 A 
ATOM     24  C   UNL     1       7.880   5.338  11.856  0.00  0.00    +0.000 A 
ATOM     25  C   UNL     1       7.038   4.345  11.365  0.00  0.00    +0.000 A 
ATOM     26  C   UNL     1       6.272   3.569  12.246  0.00  0.00    +0.000 A 
ATOM     27  C   UNL     1       6.342   3.810  13.636  0.00  0.00    +0.000 A 
BRANCH  26  28
ATOM     28  C   UNL     1       5.356   2.574  11.621  0.00  0.00    +0.000 C 
ATOM     29  O   UNL     1       5.699   1.433  11.369  0.00  0.00    +0.000 OA
BRANCH  28  30
ATOM     30  O   UNL     1       4.100   3.019  11.382  0.00  0.00    +0.000 OA
ATOM     31  H   UNL     1       4.026   3.847  10.880  0.00  0.00    +0.000 HD
ENDBRANCH  28  30
ENDBRANCH  26  28
ENDBRANCH  21  22
ENDBRANCH  20  21
ENDBRANCH   6  20
TORSDOF 7
ENDMDL
MODEL 7
REMARK VINA RESULT:      -7.9      1.506      2.248
REMARK  Name = 
REMARK  10 active torsions:
REMARK  status: ('A' for Active; 'I' for Inactive)
REMARK    1  A    between atoms: C_1  and  C_2
REMARK    2  A    between atoms: C_5  and  O_6
REMARK    3  A    between atoms: O_6  and  C_7
REMARK    4  A    between atoms: C_12  and  C_13
REMARK    5  A    between atoms: C_13  and  O_14
REMARK    6  A    between atoms: O_14  and  C_15
REMARK    7  A    between atoms: C_19  and  C_20
REMARK    8  A    between atoms: C_20  and  O_22
REMARK    9  A    between atoms: N_24  and  C_25
REMARK   10  A    between atoms: C_29  and  C_30
REMARK                            x       y       z     vdW  Elec       q    Type
REMARK                         _______ _______ _______ _____ _____    ______ ____
ROOT
ATOM      1  C   UNL     1      -0.868  11.358  22.541  0.00  0.00    +0.000 A 
ATOM      2  C   UNL     1      -0.778  10.055  23.038  0.00  0.00    +0.000 A 
ATOM      3  C   UNL     1      -0.156   9.041  22.291  0.00  0.00    +0.000 A 
ATOM      4  C   UNL     1       0.380   9.357  21.032  0.00  0.00    +0.000 A 
ATOM      5  N   UNL     1       1.007   8.557  20.111  0.00  0.00    +0.000 NA
ATOM      6  C   UNL     1       1.314   9.335  19.083  0.00  0.00    +0.000 A 
ATOM      7  N   UNL     1       0.898  10.630  19.329  0.00  0.00    +0.000 N 
ATOM      8  C   UNL     1       0.986  11.799  18.489  0.00  0.00    +0.000 C 
ATOM      9  C   UNL     1       0.303  10.661  20.572  0.00  0.00    +0.000 A 
ATOM     10  C   UNL     1      -0.292  11.693  21.308  0.00  0.00    +0.000 A 
ENDROOT
BRANCH   1  11
ATOM     11  O   UNL     1      -1.478  12.289  23.357  0.00  0.00    +0.000 OA
BRANCH  11  16
ATOM     12  C   UNL     1      -7.030  13.090  22.831  0.00  0.00    +0.000 C 
ATOM     13  C   UNL     1      -5.549  12.890  22.967  0.00  0.00    +0.000 A 
ATOM     14  C   UNL     1      -4.976  12.713  24.233  0.00  0.00    +0.000 A 
ATOM     15  C   UNL     1      -3.605  12.514  24.356  0.00  0.00    +0.000 A 
ATOM     16  C   UNL     1      -2.843  12.505  23.202  0.00  0.00    +0.000 A 
ATOM     17  N   UNL     1      -3.365  12.657  21.964  0.00  0.00    +0.000 NA
ATOM     18  C   UNL     1      -4.699  12.863  21.856  0.00  0.00    +0.000 A 
ATOM     19  C   UNL     1      -5.215  13.065  20.460  0.00  0.00    +0.000 C 
ENDBRANCH  11  16
ENDBRANCH   1  11
BRANCH   6  20
ATOM     20  C   UNL     1       1.955   8.837  17.819  0.00  0.00    +0.000 C 
BRANCH  20  21
ATOM     21  O   UNL     1       3.216   8.267  18.161  0.00  0.00    +0.000 OA
BRANCH  21  22
ATOM     22  C   UNL     1       3.430   6.941  17.882  0.00  0.00    +0.000 A 
ATOM     23  C   UNL     1       4.519   6.714  17.030  0.00  0.00    +0.000 A 
ATOM     24  C   UNL     1       4.841   5.427  16.599  0.00  0.00    +0.000 A 
ATOM     25  C   UNL     1       4.074   4.346  17.024  0.00  0.00    +0.000 A 
ATOM     26  C   UNL     1       2.992   4.546  17.893  0.00  0.00    +0.000 A 
ATOM     27  C   UNL     1       2.671   5.852  18.324  0.00  0.00    +0.000 A 
BRANCH  26  28
ATOM     28  C   UNL     1       2.195   3.336  18.241  0.00  0.00    +0.000 C 
ATOM     29  O   UNL     1       1.035   3.192  17.897  0.00  0.00    +0.000 OA
BRANCH  28  30
ATOM     30  O   UNL     1       2.862   2.390  18.942  0.00  0.00    +0.000 OA
ATOM     31  H   UNL     1       3.830   2.397  18.861  0.00  0.00    +0.000 HD
ENDBRANCH  28  30
ENDBRANCH  26  28
ENDBRANCH  21  22
ENDBRANCH  20  21
ENDBRANCH   6  20
TORSDOF 7
ENDMDL
MODEL 8
REMARK VINA RESULT:      -7.8      2.378     10.697
REMARK  Name = 
REMARK  10 active torsions:
REMARK  status: ('A' for Active; 'I' for Inactive)
REMARK    1  A    between atoms: C_1  and  C_2
REMARK    2  A    between atoms: C_5  and  O_6
REMARK    3  A    between atoms: O_6  and  C_7
REMARK    4  A    between atoms: C_12  and  C_13
REMARK    5  A    between atoms: C_13  and  O_14
REMARK    6  A    between atoms: O_14  and  C_15
REMARK    7  A    between atoms: C_19  and  C_20
REMARK    8  A    between atoms: C_20  and  O_22
REMARK    9  A    between atoms: N_24  and  C_25
REMARK   10  A    between atoms: C_29  and  C_30
REMARK                            x       y       z     vdW  Elec       q    Type
REMARK                         _______ _______ _______ _____ _____    ______ ____
ROOT
ATOM      1  C   UNL     1       2.320   7.265  19.438  0.00  0.00    +0.000 A 
ATOM      2  C   UNL     1       2.380   7.785  18.142  0.00  0.00    +0.000 A 
ATOM      3  C   UNL     1       1.774   9.013  17.830  0.00  0.00    +0.000 A 
ATOM      4  C   UNL     1       1.107   9.717  18.845  0.00  0.00    +0.000 A 
ATOM      5  N   UNL     1       0.425  10.906  18.796  0.00  0.00    +0.000 NA
ATOM      6  C   UNL     1      -0.030  11.131  20.021  0.00  0.00    +0.000 A 
ATOM      7  N   UNL     1       0.353  10.104  20.863  0.00  0.00    +0.000 N 
ATOM      8  C   UNL     1       0.061   9.905  22.262  0.00  0.00    +0.000 C 
ATOM      9  C   UNL     1       1.083   9.195  20.128  0.00  0.00    +0.000 A 
ATOM     10  C   UNL     1       1.699   7.985  20.467  0.00  0.00    +0.000 A 
ENDROOT
BRANCH   1  11
ATOM     11  O   UNL     1       2.964   6.062  19.650  0.00  0.00    +0.000 OA
BRANCH  11  16
ATOM     12  C   UNL     1       6.116   3.870  15.528  0.00  0.00    +0.000 C 
ATOM     13  C   UNL     1       5.275   4.466  16.618  0.00  0.00    +0.000 A 
ATOM     14  C   UNL     1       3.999   3.951  16.884  0.00  0.00    +0.000 A 
ATOM     15  C   UNL     1       3.227   4.496  17.904  0.00  0.00    +0.000 A 
ATOM     16  C   UNL     1       3.754   5.550  18.628  0.00  0.00    +0.000 A 
ATOM     17  N   UNL     1       4.987   6.060  18.409  0.00  0.00    +0.000 NA
ATOM     18  C   UNL     1       5.726   5.532  17.405  0.00  0.00    +0.000 A 
ATOM     19  C   UNL     1       7.070   6.165  17.183  0.00  0.00    +0.000 C 
ENDBRANCH  11  16
ENDBRANCH   1  11
BRANCH   6  20
ATOM     20  C   UNL     1      -0.894  12.302  20.391  0.00  0.00    +0.000 C 
BRANCH  20  21
ATOM     21  O   UNL     1      -1.730  12.601  19.274  0.00  0.00    +0.000 OA
BRANCH  21  22
ATOM     22  C   UNL     1      -3.051  12.239  19.333  0.00  0.00    +0.000 A 
ATOM     23  C   UNL     1      -3.481  11.496  18.225  0.00  0.00    +0.000 A 
ATOM     24  C   UNL     1      -4.812  11.096  18.098  0.00  0.00    +0.000 A 
ATOM     25  C   UNL     1      -5.730  11.432  19.088  0.00  0.00    +0.000 A 
ATOM     26  C   UNL     1      -5.319  12.157  20.216  0.00  0.00    +0.000 A 
ATOM     27  C   UNL     1      -3.971  12.561  20.338  0.00  0.00    +0.000 A 
BRANCH  26  28
ATOM     28  C   UNL     1      -6.387  12.522  21.189  0.00  0.00    +0.000 C 
ATOM     29  O   UNL     1      -6.603  13.672  21.526  0.00  0.00    +0.000 OA
BRANCH  28  30
ATOM     30  O   UNL     1      -7.125  11.485  21.649  0.00  0.00    +0.000 OA
ATOM     31  H   UNL     1      -7.620  10.981  20.983  0.00  0.00    +0.000 HD
ENDBRANCH  28  30
ENDBRANCH  26  28
ENDBRANCH  21  22
ENDBRANCH  20  21
ENDBRANCH   6  20
TORSDOF 7
ENDMDL
MODEL 9
REMARK VINA RESULT:      -7.8      1.186      1.703
REMARK  Name = 
REMARK  10 active torsions:
REMARK  status: ('A' for Active; 'I' for Inactive)
REMARK    1  A    between atoms: C_1  and  C_2
REMARK    2  A    between atoms: C_5  and  O_6
REMARK    3  A    between atoms: O_6  and  C_7
REMARK    4  A    between atoms: C_12  and  C_13
REMARK    5  A    between atoms: C_13  and  O_14
REMARK    6  A    between atoms: O_14  and  C_15
REMARK    7  A    between atoms: C_19  and  C_20
REMARK    8  A    between atoms: C_20  and  O_22
REMARK    9  A    between atoms: N_24  and  C_25
REMARK   10  A    between atoms: C_29  and  C_30
REMARK                            x       y       z     vdW  Elec       q    Type
REMARK                         _______ _______ _______ _____ _____    ______ ____
ROOT
ATOM      1  C   UNL     1      -0.595  11.702  21.216  0.00  0.00    +0.000 A 
ATOM      2  C   UNL     1      -0.602  11.103  22.479  0.00  0.00    +0.000 A 
ATOM      3  C   UNL     1      -0.006   9.847  22.683  0.00  0.00    +0.000 A 
ATOM      4  C   UNL     1       0.602   9.200  21.596  0.00  0.00    +0.000 A 
ATOM      5  N   UNL     1       1.222   7.978  21.528  0.00  0.00    +0.000 NA
ATOM      6  C   UNL     1       1.618   7.826  20.272  0.00  0.00    +0.000 A 
ATOM      7  N   UNL     1       1.266   8.937  19.528  0.00  0.00    +0.000 N 
ATOM      8  C   UNL     1       1.458   9.200  18.122  0.00  0.00    +0.000 C 
ATOM      9  C   UNL     1       0.621   9.825  20.360  0.00  0.00    +0.000 A 
ATOM     10  C   UNL     1       0.054  11.085  20.138  0.00  0.00    +0.000 A 
ENDROOT
BRANCH   1  11
ATOM     11  O   UNL     1      -1.186  12.945  21.120  0.00  0.00    +0.000 OA
BRANCH  11  16
ATOM     12  C   UNL     1      -6.804  13.282  21.355  0.00  0.00    +0.000 C 
ATOM     13  C   UNL     1      -5.309  13.182  21.302  0.00  0.00    +0.000 A 
ATOM     14  C   UNL     1      -4.678  12.661  20.165  0.00  0.00    +0.000 A 
ATOM     15  C   UNL     1      -3.289  12.582  20.113  0.00  0.00    +0.000 A 
ATOM     16  C   UNL     1      -2.571  13.023  21.209  0.00  0.00    +0.000 A 
ATOM     17  N   UNL     1      -3.147  13.545  22.315  0.00  0.00    +0.000 NA
ATOM     18  C   UNL     1      -4.499  13.606  22.362  0.00  0.00    +0.000 A 
ATOM     19  C   UNL     1      -5.083  14.158  23.631  0.00  0.00    +0.000 C 
ENDBRANCH  11  16
ENDBRANCH   1  11
BRANCH   6  20
ATOM     20  C   UNL     1       2.284   6.586  19.749  0.00  0.00    +0.000 C 
BRANCH  20  21
ATOM     21  O   UNL     1       3.412   6.987  18.973  0.00  0.00    +0.000 OA
BRANCH  21  22
ATOM     22  C   UNL     1       3.999   6.061  18.149  0.00  0.00    +0.000 A 
ATOM     23  C   UNL     1       3.149   5.006  17.793  0.00  0.00    +0.000 A 
ATOM     24  C   UNL     1       3.605   3.948  17.005  0.00  0.00    +0.000 A 
ATOM     25  C   UNL     1       4.924   3.939  16.560  0.00  0.00    +0.000 A 
ATOM     26  C   UNL     1       5.787   4.994  16.886  0.00  0.00    +0.000 A 
ATOM     27  C   UNL     1       5.320   6.061  17.685  0.00  0.00    +0.000 A 
BRANCH  26  28
ATOM     28  C   UNL     1       7.195   4.863  16.416  0.00  0.00    +0.000 C 
ATOM     29  O   UNL     1       8.040   4.243  17.037  0.00  0.00    +0.000 OA
BRANCH  28  30
ATOM     30  O   UNL     1       7.462   5.456  15.229  0.00  0.00    +0.000 OA
ATOM     31  H   UNL     1       8.363   5.797  15.112  0.00  0.00    +0.000 HD
ENDBRANCH  28  30
ENDBRANCH  26  28
ENDBRANCH  21  22
ENDBRANCH  20  21
ENDBRANCH   6  20
TORSDOF 7
ENDMDL
