MODEL 1
REMARK VINA RESULT:      -7.0      0.000      0.000
REMARK  Name = 
REMARK  11 active torsions:
REMARK  status: ('A' for Active; 'I' for Inactive)
REMARK    1  A    between atoms: CG1_1  and  CB_2
REMARK    2  A    between atoms: CB_2  and  CG2_3
REMARK    3  A    between atoms: CB_2  and  CA_4
REMARK    4  A    between atoms: CA_4  and  N_5
REMARK    5  A    between atoms: CA_4  and  C_18
REMARK    6  A    between atoms: C_6  and  C_8
REMARK    7  A    between atoms: C_11  and  C_12
REMARK    8  A    between atoms: C_12  and  C_13
REMARK    9  A    between atoms: C_12  and  C_14
REMARK   10  A    between atoms: C_12  and  C_15
REMARK   11  A    between atoms: C_18  and  OXT_20
REMARK                            x       y       z     vdW  Elec       q    Type
REMARK                         _______ _______ _______ _____ _____    ______ ____
ROOT
ATOM      1  N   VAL A   1       2.171   4.845  19.712  0.00  0.00    +0.000 N 
ATOM      2  C   UNK A   0       2.979   5.940  19.530  0.00  0.00    +0.000 C 
ATOM      3  O   UNK A   0       4.202   5.845  19.514  0.00  0.00    +0.000 OA
ATOM      4  H   VAL A   1       1.167   4.976  19.738  0.00  0.00    +0.000 HD
ENDROOT
BRANCH   2   5
ATOM      5  C   UNK A   0       2.292   7.250  19.452  0.00  0.00    +0.000 A 
ATOM      6  C   UNK A   0       2.267   7.957  18.251  0.00  0.00    +0.000 A 
ATOM      7  C   UNK A   0       1.616   9.190  18.176  0.00  0.00    +0.000 A 
ATOM      8  C   UNK A   0       0.968   9.745  19.293  0.00  0.00    +0.000 A 
ATOM      9  C   UNK A   0       0.991   9.002  20.491  0.00  0.00    +0.000 A 
ATOM     10  C   UNK A   0       1.638   7.761  20.571  0.00  0.00    +0.000 A 
BRANCH   8  11
ATOM     11  C   UNK A   0       0.240  11.100  19.221  0.00  0.00    +0.000 C 
ATOM     12  C   UNK A   0      -0.984  11.087  18.273  0.00  0.00    +0.000 C 
ATOM     13  C   UNK A   0      -0.271  11.495  20.622  0.00  0.00    +0.000 C 
ATOM     14  C   UNK A   0       1.200  12.194  18.707  0.00  0.00    +0.000 C 
ENDBRANCH   8  11
ENDBRANCH   2   5
BRANCH   1  15
ATOM     15  CA  VAL A   1       2.684   3.477  19.842  0.00  0.00    +0.000 C 
BRANCH  15  17
ATOM     16  CG1 VAL A   1       2.417   3.459  17.265  0.00  0.00    +0.000 C 
ATOM     17  CB  VAL A   1       2.435   2.640  18.562  0.00  0.00    +0.000 C 
ATOM     18  CG2 VAL A   1       3.471   1.515  18.434  0.00  0.00    +0.000 C 
ENDBRANCH  15  17
BRANCH  15  19
ATOM     19  C   VAL A   1       2.142   2.808  21.126  0.00  0.00    +0.000 C 
ATOM     20  O   VAL A   1       2.833   2.383  22.042  0.00  0.00    +0.000 OA
BRANCH  19  21
ATOM     21  OXT VAL A   1       0.787   2.813  21.213  0.00  0.00    +0.000 OA
ATOM     22  HXT VAL A   1       0.445   3.553  21.772  0.00  0.00    +0.000 HD
ENDBRANCH  19  21
ENDBRANCH  15  19
ENDBRANCH   1  15
TORSDOF 6
ENDMDL
MODEL 2
REMARK VINA RESULT:      -6.9      0.058      1.454
REMARK  Name = 
REMARK  11 active torsions:
REMARK  status: ('A' for Active; 'I' for Inactive)
REMARK    1  A    between atoms: CG1_1  and  CB_2
REMARK    2  A    between atoms: CB_2  and  CG2_3
REMARK    3  A    between atoms: CB_2  and  CA_4
REMARK    4  A    between atoms: CA_4  and  N_5
REMARK    5  A    between atoms: CA_4  and  C_18
REMARK    6  A    between atoms: C_6  and  C_8
REMARK    7  A    between atoms: C_11  and  C_12
REMARK    8  A    between atoms: C_12  and  C_13
REMARK    9  A    between atoms: C_12  and  C_14
REMARK   10  A    between atoms: C_12  and  C_15
REMARK   11  A    between atoms: C_18  and  OXT_20
REMARK                            x       y       z     vdW  Elec       q    Type
REMARK                         _______ _______ _______ _____ _____    ______ ____
ROOT
ATOM      1  N   VAL A   1       2.163   4.845  19.744  0.00  0.00    +0.000 N 
ATOM      2  C   UNK A   0       2.964   5.937  19.520  0.00  0.00    +0.000 C 
ATOM      3  O   UNK A   0       4.186   5.841  19.457  0.00  0.00    +0.000 OA
ATOM      4  H   VAL A   1       1.161   4.977  19.808  0.00  0.00    +0.000 HD
ENDROOT
BRANCH   2   5
ATOM      5  C   UNK A   0       2.276   7.247  19.456  0.00  0.00    +0.000 A 
ATOM      6  C   UNK A   0       1.630   7.755  20.582  0.00  0.00    +0.000 A 
ATOM      7  C   UNK A   0       0.984   8.992  20.523  0.00  0.00    +0.000 A 
ATOM      8  C   UNK A   0       0.973   9.756  19.344  0.00  0.00    +0.000 A 
ATOM      9  C   UNK A   0       1.649   9.229  18.223  0.00  0.00    +0.000 A 
ATOM     10  C   UNK A   0       2.303   7.992  18.278  0.00  0.00    +0.000 A 
BRANCH   8  11
ATOM     11  C   UNK A   0       0.272  11.125  19.268  0.00  0.00    +0.000 C 
ATOM     12  C   UNK A   0      -0.224  11.635  20.642  0.00  0.00    +0.000 C 
ATOM     13  C   UNK A   0       1.247  12.183  18.712  0.00  0.00    +0.000 C 
ATOM     14  C   UNK A   0      -0.961  11.041  18.344  0.00  0.00    +0.000 C 
ENDBRANCH   8  11
ENDBRANCH   2   5
BRANCH   1  15
ATOM     15  CA  VAL A   1       2.680   3.478  19.867  0.00  0.00    +0.000 C 
BRANCH  15  17
ATOM     16  CG1 VAL A   1       2.341   3.465  17.298  0.00  0.00    +0.000 C 
ATOM     17  CB  VAL A   1       2.416   2.641  18.590  0.00  0.00    +0.000 C 
ATOM     18  CG2 VAL A   1       3.476   1.542  18.426  0.00  0.00    +0.000 C 
ENDBRANCH  15  17
BRANCH  15  19
ATOM     19  C   VAL A   1       2.155   2.808  21.157  0.00  0.00    +0.000 C 
ATOM     20  O   VAL A   1       2.858   2.396  22.070  0.00  0.00    +0.000 OA
BRANCH  19  21
ATOM     21  OXT VAL A   1       0.801   2.795  21.253  0.00  0.00    +0.000 OA
ATOM     22  HXT VAL A   1       0.358   2.836  20.370  0.00  0.00    +0.000 HD
ENDBRANCH  19  21
ENDBRANCH  15  19
ENDBRANCH   1  15
TORSDOF 6
ENDMDL
MODEL 3
REMARK VINA RESULT:      -6.9      2.969      4.278
REMARK  Name = 
REMARK  11 active torsions:
REMARK  status: ('A' for Active; 'I' for Inactive)
REMARK    1  A    between atoms: CG1_1  and  CB_2
REMARK    2  A    between atoms: CB_2  and  CG2_3
REMARK    3  A    between atoms: CB_2  and  CA_4
REMARK    4  A    between atoms: CA_4  and  N_5
REMARK    5  A    between atoms: CA_4  and  C_18
REMARK    6  A    between atoms: C_6  and  C_8
REMARK    7  A    between atoms: C_11  and  C_12
REMARK    8  A    between atoms: C_12  and  C_13
REMARK    9  A    between atoms: C_12  and  C_14
REMARK   10  A    between atoms: C_12  and  C_15
REMARK   11  A    between atoms: C_18  and  OXT_20
REMARK                            x       y       z     vdW  Elec       q    Type
REMARK                         _______ _______ _______ _____ _____    ______ ____
ROOT
ATOM      1  N   VAL A   1       4.963   6.625  17.730  0.00  0.00    +0.000 N 
ATOM      2  C   UNK A   0       3.750   6.233  18.237  0.00  0.00    +0.000 C 
ATOM      3  O   UNK A   0       3.446   5.049  18.345  0.00  0.00    +0.000 OA
ATOM      4  H   VAL A   1       5.160   7.614  17.642  0.00  0.00    +0.000 HD
ENDROOT
BRANCH   2   5
ATOM      5  C   UNK A   0       2.795   7.320  18.555  0.00  0.00    +0.000 A 
ATOM      6  C   UNK A   0       2.211   7.391  19.819  0.00  0.00    +0.000 A 
ATOM      7  C   UNK A   0       1.314   8.418  20.121  0.00  0.00    +0.000 A 
ATOM      8  C   UNK A   0       0.983   9.402  19.174  0.00  0.00    +0.000 A 
ATOM      9  C   UNK A   0       1.601   9.319  17.909  0.00  0.00    +0.000 A 
ATOM     10  C   UNK A   0       2.507   8.295  17.602  0.00  0.00    +0.000 A 
BRANCH   8  11
ATOM     11  C   UNK A   0       0.002  10.545  19.497  0.00  0.00    +0.000 C 
ATOM     12  C   UNK A   0      -1.316  10.465  18.690  0.00  0.00    +0.000 C 
ATOM     13  C   UNK A   0      -0.374  10.506  20.992  0.00  0.00    +0.000 C 
ATOM     14  C   UNK A   0       0.649  11.908  19.174  0.00  0.00    +0.000 C 
ENDBRANCH   8  11
ENDBRANCH   2   5
BRANCH   1  15
ATOM     15  CA  VAL A   1       6.013   5.681  17.332  0.00  0.00    +0.000 C 
BRANCH  15  17
ATOM     16  CG1 VAL A   1       7.606   7.715  17.547  0.00  0.00    +0.000 C 
ATOM     17  CB  VAL A   1       7.427   6.199  17.699  0.00  0.00    +0.000 C 
ATOM     18  CG2 VAL A   1       7.806   5.787  19.129  0.00  0.00    +0.000 C 
ENDBRANCH  15  17
BRANCH  15  19
ATOM     19  C   VAL A   1       5.870   5.300  15.840  0.00  0.00    +0.000 C 
ATOM     20  O   VAL A   1       6.566   5.737  14.934  0.00  0.00    +0.000 OA
BRANCH  19  21
ATOM     21  OXT VAL A   1       4.944   4.335  15.611  0.00  0.00    +0.000 OA
ATOM     22  HXT VAL A   1       4.766   4.200  14.648  0.00  0.00    +0.000 HD
ENDBRANCH  19  21
ENDBRANCH  15  19
ENDBRANCH   1  15
TORSDOF 6
ENDMDL
MODEL 4
REMARK VINA RESULT:      -6.9      3.054      4.564
REMARK  Name = 
REMARK  11 active torsions:
REMARK  status: ('A' for Active; 'I' for Inactive)
REMARK    1  A    between atoms: CG1_1  and  CB_2
REMARK    2  A    between atoms: CB_2  and  CG2_3
REMARK    3  A    between atoms: CB_2  and  CA_4
REMARK    4  A    between atoms: CA_4  and  N_5
REMARK    5  A    between atoms: CA_4  and  C_18
REMARK    6  A    between atoms: C_6  and  C_8
REMARK    7  A    between atoms: C_11  and  C_12
REMARK    8  A    between atoms: C_12  and  C_13
REMARK    9  A    between atoms: C_12  and  C_14
REMARK   10  A    between atoms: C_12  and  C_15
REMARK   11  A    between atoms: C_18  and  OXT_20
REMARK                            x       y       z     vdW  Elec       q    Type
REMARK                         _______ _______ _______ _____ _____    ______ ____
ROOT
ATOM      1  N   VAL A   1       5.105   6.631  17.738  0.00  0.00    +0.000 N 
ATOM      2  C   UNK A   0       3.881   6.215  18.199  0.00  0.00    +0.000 C 
ATOM      3  O   UNK A   0       3.588   5.025  18.275  0.00  0.00    +0.000 OA
ATOM      4  H   VAL A   1       5.292   7.624  17.675  0.00  0.00    +0.000 HD
ENDROOT
BRANCH   2   5
ATOM      5  C   UNK A   0       2.903   7.284  18.507  0.00  0.00    +0.000 A 
ATOM      6  C   UNK A   0       2.291   7.335  19.759  0.00  0.00    +0.000 A 
ATOM      7  C   UNK A   0       1.373   8.345  20.051  0.00  0.00    +0.000 A 
ATOM      8  C   UNK A   0       1.047   9.333  19.106  0.00  0.00    +0.000 A 
ATOM      9  C   UNK A   0       1.693   9.272  17.854  0.00  0.00    +0.000 A 
ATOM     10  C   UNK A   0       2.620   8.264  17.557  0.00  0.00    +0.000 A 
BRANCH   8  11
ATOM     11  C   UNK A   0       0.042  10.458  19.418  0.00  0.00    +0.000 C 
ATOM     12  C   UNK A   0       0.624  11.875  19.201  0.00  0.00    +0.000 C 
ATOM     13  C   UNK A   0      -1.193  10.326  18.503  0.00  0.00    +0.000 C 
ATOM     14  C   UNK A   0      -0.410  10.373  20.891  0.00  0.00    +0.000 C 
ENDBRANCH   8  11
ENDBRANCH   2   5
BRANCH   1  15
ATOM     15  CA  VAL A   1       6.178   5.708  17.356  0.00  0.00    +0.000 C 
BRANCH  15  17
ATOM     16  CG1 VAL A   1       7.867   7.600  17.888  0.00  0.00    +0.000 C 
ATOM     17  CB  VAL A   1       7.537   6.105  17.988  0.00  0.00    +0.000 C 
ATOM     18  CG2 VAL A   1       7.605   5.670  19.458  0.00  0.00    +0.000 C 
ENDBRANCH  15  17
BRANCH  15  19
ATOM     19  C   VAL A   1       6.242   5.546  15.820  0.00  0.00    +0.000 C 
ATOM     20  O   VAL A   1       5.435   6.019  15.031  0.00  0.00    +0.000 OA
BRANCH  19  21
ATOM     21  OXT VAL A   1       7.352   4.899  15.385  0.00  0.00    +0.000 OA
ATOM     22  HXT VAL A   1       7.217   3.923  15.308  0.00  0.00    +0.000 HD
ENDBRANCH  19  21
ENDBRANCH  15  19
ENDBRANCH   1  15
TORSDOF 6
ENDMDL
MODEL 5
REMARK VINA RESULT:      -6.9      2.947      4.120
REMARK  Name = 
REMARK  11 active torsions:
REMARK  status: ('A' for Active; 'I' for Inactive)
REMARK    1  A    between atoms: CG1_1  and  CB_2
REMARK    2  A    between atoms: CB_2  and  CG2_3
REMARK    3  A    between atoms: CB_2  and  CA_4
REMARK    4  A    between atoms: CA_4  and  N_5
REMARK    5  A    between atoms: CA_4  and  C_18
REMARK    6  A    between atoms: C_6  and  C_8
REMARK    7  A    between atoms: C_11  and  C_12
REMARK    8  A    between atoms: C_12  and  C_13
REMARK    9  A    between atoms: C_12  and  C_14
REMARK   10  A    between atoms: C_12  and  C_15
REMARK   11  A    between atoms: C_18  and  OXT_20
REMARK                            x       y       z     vdW  Elec       q    Type
REMARK                         _______ _______ _______ _____ _____    ______ ____
ROOT
ATOM      1  N   VAL A   1       4.926   6.636  17.771  0.00  0.00    +0.000 N 
ATOM      2  C   UNK A   0       3.673   6.263  18.189  0.00  0.00    +0.000 C 
ATOM      3  O   UNK A   0       3.313   5.090  18.187  0.00  0.00    +0.000 OA
ATOM      4  H   VAL A   1       5.170   7.618  17.772  0.00  0.00    +0.000 HD
ENDROOT
BRANCH   2   5
ATOM      5  C   UNK A   0       2.752   7.366  18.549  0.00  0.00    +0.000 A 
ATOM      6  C   UNK A   0       2.420   8.338  17.607  0.00  0.00    +0.000 A 
ATOM      7  C   UNK A   0       1.549   9.376  17.946  0.00  0.00    +0.000 A 
ATOM      8  C   UNK A   0       0.981   9.465  19.228  0.00  0.00    +0.000 A 
ATOM      9  C   UNK A   0       1.316   8.459  20.158  0.00  0.00    +0.000 A 
ATOM     10  C   UNK A   0       2.185   7.412  19.822  0.00  0.00    +0.000 A 
BRANCH   8  11
ATOM     11  C   UNK A   0       0.012  10.599  19.611  0.00  0.00    +0.000 C 
ATOM     12  C   UNK A   0      -1.319  10.559  18.823  0.00  0.00    +0.000 C 
ATOM     13  C   UNK A   0      -0.341  10.503  21.110  0.00  0.00    +0.000 C 
ATOM     14  C   UNK A   0       0.662  11.971  19.334  0.00  0.00    +0.000 C 
ENDBRANCH   8  11
ENDBRANCH   2   5
BRANCH   1  15
ATOM     15  CA  VAL A   1       5.952   5.678  17.347  0.00  0.00    +0.000 C 
BRANCH  15  17
ATOM     16  CG1 VAL A   1       7.566   7.697  17.526  0.00  0.00    +0.000 C 
ATOM     17  CB  VAL A   1       7.383   6.181  17.668  0.00  0.00    +0.000 C 
ATOM     18  CG2 VAL A   1       7.811   5.751  19.078  0.00  0.00    +0.000 C 
ENDBRANCH  15  17
BRANCH  15  19
ATOM     19  C   VAL A   1       5.759   5.288  15.863  0.00  0.00    +0.000 C 
ATOM     20  O   VAL A   1       6.320   5.825  14.918  0.00  0.00    +0.000 OA
BRANCH  19  21
ATOM     21  OXT VAL A   1       4.964   4.203  15.684  0.00  0.00    +0.000 OA
ATOM     22  HXT VAL A   1       5.317   3.395  16.130  0.00  0.00    +0.000 HD
ENDBRANCH  19  21
ENDBRANCH  15  19
ENDBRANCH   1  15
TORSDOF 6
ENDMDL
MODEL 6
REMARK VINA RESULT:      -6.9      0.606      1.422
REMARK  Name = 
REMARK  11 active torsions:
REMARK  status: ('A' for Active; 'I' for Inactive)
REMARK    1  A    between atoms: CG1_1  and  CB_2
REMARK    2  A    between atoms: CB_2  and  CG2_3
REMARK    3  A    between atoms: CB_2  and  CA_4
REMARK    4  A    between atoms: CA_4  and  N_5
REMARK    5  A    between atoms: CA_4  and  C_18
REMARK    6  A    between atoms: C_6  and  C_8
REMARK    7  A    between atoms: C_11  and  C_12
REMARK    8  A    between atoms: C_12  and  C_13
REMARK    9  A    between atoms: C_12  and  C_14
REMARK   10  A    between atoms: C_12  and  C_15
REMARK   11  A    between atoms: C_18  and  OXT_20
REMARK                            x       y       z     vdW  Elec       q    Type
REMARK                         _______ _______ _______ _____ _____    ______ ____
ROOT
ATOM      1  N   VAL A   1       2.311   4.726  19.759  0.00  0.00    +0.000 N 
ATOM      2  C   UNK A   0       3.079   5.825  19.465  0.00  0.00    +0.000 C 
ATOM      3  O   UNK A   0       4.297   5.746  19.333  0.00  0.00    +0.000 OA
ATOM      4  H   VAL A   1       1.313   4.844  19.878  0.00  0.00    +0.000 HD
ENDROOT
BRANCH   2   5
ATOM      5  C   UNK A   0       2.366   7.122  19.413  0.00  0.00    +0.000 A 
ATOM      6  C   UNK A   0       2.299   7.837  18.219  0.00  0.00    +0.000 A 
ATOM      7  C   UNK A   0       1.623   9.058  18.169  0.00  0.00    +0.000 A 
ATOM      8  C   UNK A   0       0.992   9.592  19.305  0.00  0.00    +0.000 A 
ATOM      9  C   UNK A   0       1.058   8.842  20.497  0.00  0.00    +0.000 A 
ATOM     10  C   UNK A   0       1.730   7.613  20.552  0.00  0.00    +0.000 A 
BRANCH   8  11
ATOM     11  C   UNK A   0       0.237  10.934  19.261  0.00  0.00    +0.000 C 
ATOM     12  C   UNK A   0      -0.300  11.379  20.643  0.00  0.00    +0.000 C 
ATOM     13  C   UNK A   0       1.176  12.048  18.755  0.00  0.00    +0.000 C 
ATOM     14  C   UNK A   0      -0.977  10.830  18.314  0.00  0.00    +0.000 C 
ENDBRANCH   8  11
ENDBRANCH   2   5
BRANCH   1  15
ATOM     15  CA  VAL A   1       2.858   3.370  19.881  0.00  0.00    +0.000 C 
BRANCH  15  17
ATOM     16  CG1 VAL A   1       0.721   2.332  18.844  0.00  0.00    +0.000 C 
ATOM     17  CB  VAL A   1       2.253   2.404  18.830  0.00  0.00    +0.000 C 
ATOM     18  CG2 VAL A   1       2.728   2.767  17.416  0.00  0.00    +0.000 C 
ENDBRANCH  15  17
BRANCH  15  19
ATOM     19  C   VAL A   1       2.726   2.855  21.332  0.00  0.00    +0.000 C 
ATOM     20  O   VAL A   1       1.811   3.133  22.095  0.00  0.00    +0.000 OA
BRANCH  19  21
ATOM     21  OXT VAL A   1       3.684   1.960  21.683  0.00  0.00    +0.000 OA
ATOM     22  HXT VAL A   1       4.197   1.629  20.905  0.00  0.00    +0.000 HD
ENDBRANCH  19  21
ENDBRANCH  15  19
ENDBRANCH   1  15
TORSDOF 6
ENDMDL
MODEL 7
REMARK VINA RESULT:      -6.8      2.848      4.094
REMARK  Name = 
REMARK  11 active torsions:
REMARK  status: ('A' for Active; 'I' for Inactive)
REMARK    1  A    between atoms: CG1_1  and  CB_2
REMARK    2  A    between atoms: CB_2  and  CG2_3
REMARK    3  A    between atoms: CB_2  and  CA_4
REMARK    4  A    between atoms: CA_4  and  N_5
REMARK    5  A    between atoms: CA_4  and  C_18
REMARK    6  A    between atoms: C_6  and  C_8
REMARK    7  A    between atoms: C_11  and  C_12
REMARK    8  A    between atoms: C_12  and  C_13
REMARK    9  A    between atoms: C_12  and  C_14
REMARK   10  A    between atoms: C_12  and  C_15
REMARK   11  A    between atoms: C_18  and  OXT_20
REMARK                            x       y       z     vdW  Elec       q    Type
REMARK                         _______ _______ _______ _____ _____    ______ ____
ROOT
ATOM      1  N   VAL A   1       4.909   6.426  17.878  0.00  0.00    +0.000 N 
ATOM      2  C   UNK A   0       3.715   6.131  18.487  0.00  0.00    +0.000 C 
ATOM      3  O   UNK A   0       3.401   4.980  18.774  0.00  0.00    +0.000 OA
ATOM      4  H   VAL A   1       5.115   7.388  17.643  0.00  0.00    +0.000 HD
ENDROOT
BRANCH   2   5
ATOM      5  C   UNK A   0       2.789   7.270  18.689  0.00  0.00    +0.000 A 
ATOM      6  C   UNK A   0       2.542   8.165  17.649  0.00  0.00    +0.000 A 
ATOM      7  C   UNK A   0       1.666   9.236  17.838  0.00  0.00    +0.000 A 
ATOM      8  C   UNK A   0       1.010   9.437  19.064  0.00  0.00    +0.000 A 
ATOM      9  C   UNK A   0       1.261   8.507  20.095  0.00  0.00    +0.000 A 
ATOM     10  C   UNK A   0       2.134   7.427  19.909  0.00  0.00    +0.000 A 
BRANCH   8  11
ATOM     11  C   UNK A   0       0.035  10.610  19.283  0.00  0.00    +0.000 C 
ATOM     12  C   UNK A   0       0.653  11.988  18.948  0.00  0.00    +0.000 C 
ATOM     13  C   UNK A   0      -1.206  10.434  18.383  0.00  0.00    +0.000 C 
ATOM     14  C   UNK A   0      -0.415  10.659  20.758  0.00  0.00    +0.000 C 
ENDBRANCH   8  11
ENDBRANCH   2   5
BRANCH   1  15
ATOM     15  CA  VAL A   1       5.929   5.416  17.573  0.00  0.00    +0.000 C 
BRANCH  15  17
ATOM     16  CG1 VAL A   1       7.562   7.425  17.475  0.00  0.00    +0.000 C 
ATOM     17  CB  VAL A   1       7.363   5.945  17.827  0.00  0.00    +0.000 C 
ATOM     18  CG2 VAL A   1       7.783   5.713  19.285  0.00  0.00    +0.000 C 
ENDBRANCH  15  17
BRANCH  15  19
ATOM     19  C   VAL A   1       5.728   4.848  16.149  0.00  0.00    +0.000 C 
ATOM     20  O   VAL A   1       5.365   5.499  15.179  0.00  0.00    +0.000 OA
BRANCH  19  21
ATOM     21  OXT VAL A   1       6.091   3.547  16.026  0.00  0.00    +0.000 OA
ATOM     22  HXT VAL A   1       6.894   3.324  16.556  0.00  0.00    +0.000 HD
ENDBRANCH  19  21
ENDBRANCH  15  19
ENDBRANCH   1  15
TORSDOF 6
ENDMDL
MODEL 8
REMARK VINA RESULT:      -6.8      2.232      2.614
REMARK  Name = 
REMARK  11 active torsions:
REMARK  status: ('A' for Active; 'I' for Inactive)
REMARK    1  A    between atoms: CG1_1  and  CB_2
REMARK    2  A    between atoms: CB_2  and  CG2_3
REMARK    3  A    between atoms: CB_2  and  CA_4
REMARK    4  A    between atoms: CA_4  and  N_5
REMARK    5  A    between atoms: CA_4  and  C_18
REMARK    6  A    between atoms: C_6  and  C_8
REMARK    7  A    between atoms: C_11  and  C_12
REMARK    8  A    between atoms: C_12  and  C_13
REMARK    9  A    between atoms: C_12  and  C_14
REMARK   10  A    between atoms: C_12  and  C_15
REMARK   11  A    between atoms: C_18  and  OXT_20
REMARK                            x       y       z     vdW  Elec       q    Type
REMARK                         _______ _______ _______ _____ _____    ______ ____
ROOT
ATOM      1  N   VAL A   1       3.745   5.483  18.000  0.00  0.00    +0.000 N 
ATOM      2  C   UNK A   0       3.201   5.855  19.204  0.00  0.00    +0.000 C 
ATOM      3  O   UNK A   0       3.268   5.134  20.195  0.00  0.00    +0.000 OA
ATOM      4  H   VAL A   1       3.647   6.103  17.206  0.00  0.00    +0.000 HD
ENDROOT
BRANCH   2   5
ATOM      5  C   UNK A   0       2.447   7.130  19.211  0.00  0.00    +0.000 A 
ATOM      6  C   UNK A   0       2.301   7.865  18.036  0.00  0.00    +0.000 A 
ATOM      7  C   UNK A   0       1.587   9.065  18.042  0.00  0.00    +0.000 A 
ATOM      8  C   UNK A   0       0.995   9.558  19.216  0.00  0.00    +0.000 A 
ATOM      9  C   UNK A   0       1.140   8.787  20.389  0.00  0.00    +0.000 A 
ATOM     10  C   UNK A   0       1.850   7.579  20.388  0.00  0.00    +0.000 A 
BRANCH   8  11
ATOM     11  C   UNK A   0       0.197  10.876  19.235  0.00  0.00    +0.000 C 
ATOM     12  C   UNK A   0      -1.030  10.860  18.293  0.00  0.00    +0.000 C 
ATOM     13  C   UNK A   0      -0.323  11.154  20.660  0.00  0.00    +0.000 C 
ATOM     14  C   UNK A   0       1.097  12.048  18.789  0.00  0.00    +0.000 C 
ENDBRANCH   8  11
ENDBRANCH   2   5
BRANCH   1  15
ATOM     15  CA  VAL A   1       4.495   4.238  17.805  0.00  0.00    +0.000 C 
BRANCH  15  17
ATOM     16  CG1 VAL A   1       5.372   5.500  15.718  0.00  0.00    +0.000 C 
ATOM     17  CB  VAL A   1       5.626   4.400  16.757  0.00  0.00    +0.000 C 
ATOM     18  CG2 VAL A   1       6.975   4.655  17.443  0.00  0.00    +0.000 C 
ENDBRANCH  15  17
BRANCH  15  19
ATOM     19  C   VAL A   1       3.538   3.064  17.495  0.00  0.00    +0.000 C 
ATOM     20  O   VAL A   1       2.443   3.174  16.960  0.00  0.00    +0.000 OA
BRANCH  19  21
ATOM     21  OXT VAL A   1       4.058   1.845  17.784  0.00  0.00    +0.000 OA
ATOM     22  HXT VAL A   1       4.875   1.902  18.338  0.00  0.00    +0.000 HD
ENDBRANCH  19  21
ENDBRANCH  15  19
ENDBRANCH   1  15
TORSDOF 6
ENDMDL
MODEL 9
REMARK VINA RESULT:      -6.8      2.184      3.114
REMARK  Name = 
REMARK  11 active torsions:
REMARK  status: ('A' for Active; 'I' for Inactive)
REMARK    1  A    between atoms: CG1_1  and  CB_2
REMARK    2  A    between atoms: CB_2  and  CG2_3
REMARK    3  A    between atoms: CB_2  and  CA_4
REMARK    4  A    between atoms: CA_4  and  N_5
REMARK    5  A    between atoms: CA_4  and  C_18
REMARK    6  A    between atoms: C_6  and  C_8
REMARK    7  A    between atoms: C_11  and  C_12
REMARK    8  A    between atoms: C_12  and  C_13
REMARK    9  A    between atoms: C_12  and  C_14
REMARK   10  A    between atoms: C_12  and  C_15
REMARK   11  A    between atoms: C_18  and  OXT_20
REMARK                            x       y       z     vdW  Elec       q    Type
REMARK                         _______ _______ _______ _____ _____    ______ ____
ROOT
ATOM      1  N   VAL A   1       3.764   5.505  18.484  0.00  0.00    +0.000 N 
ATOM      2  C   UNK A   0       3.609   6.688  17.806  0.00  0.00    +0.000 C 
ATOM      3  O   UNK A   0       4.257   6.944  16.795  0.00  0.00    +0.000 OA
ATOM      4  H   VAL A   1       3.221   5.348  19.324  0.00  0.00    +0.000 HD
ENDROOT
BRANCH   2   5
ATOM      5  C   UNK A   0       2.686   7.673  18.417  0.00  0.00    +0.000 A 
ATOM      6  C   UNK A   0       2.224   7.487  19.719  0.00  0.00    +0.000 A 
ATOM      7  C   UNK A   0       1.358   8.417  20.296  0.00  0.00    +0.000 A 
ATOM      8  C   UNK A   0       0.937   9.559  19.594  0.00  0.00    +0.000 A 
ATOM      9  C   UNK A   0       1.433   9.735  18.285  0.00  0.00    +0.000 A 
ATOM     10  C   UNK A   0       2.307   8.808  17.702  0.00  0.00    +0.000 A 
BRANCH   8  11
ATOM     11  C   UNK A   0      -0.012  10.597  20.223  0.00  0.00    +0.000 C 
ATOM     12  C   UNK A   0       0.628  11.998  20.372  0.00  0.00    +0.000 C 
ATOM     13  C   UNK A   0      -1.268  10.760  19.342  0.00  0.00    +0.000 C 
ATOM     14  C   UNK A   0      -0.440  10.140  21.633  0.00  0.00    +0.000 C 
ENDBRANCH   8  11
ENDBRANCH   2   5
BRANCH   1  15
ATOM     15  CA  VAL A   1       4.660   4.433  18.040  0.00  0.00    +0.000 C 
BRANCH  15  17
ATOM     16  CG1 VAL A   1       3.866   2.684  19.780  0.00  0.00    +0.000 C 
ATOM     17  CB  VAL A   1       4.057   3.028  18.297  0.00  0.00    +0.000 C 
ATOM     18  CG2 VAL A   1       2.717   2.866  17.565  0.00  0.00    +0.000 C 
ENDBRANCH  15  17
BRANCH  15  19
ATOM     19  C   VAL A   1       6.072   4.612  18.645  0.00  0.00    +0.000 C 
ATOM     20  O   VAL A   1       6.310   5.125  19.730  0.00  0.00    +0.000 OA
BRANCH  19  21
ATOM     21  OXT VAL A   1       7.059   4.053  17.901  0.00  0.00    +0.000 OA
ATOM     22  HXT VAL A   1       7.300   3.146  18.210  0.00  0.00    +0.000 HD
ENDBRANCH  19  21
ENDBRANCH  15  19
ENDBRANCH   1  15
TORSDOF 6
ENDMDL
