MODEL 1
REMARK VINA RESULT:      -7.0      0.000      0.000
REMARK  Name = 
REMARK  6 active torsions:
REMARK  status: ('A' for Active; 'I' for Inactive)
REMARK    1  A    between atoms: C_1  and  O_2
REMARK    2  A    between atoms: O_2  and  C_3
REMARK    3  A    between atoms: C_3  and  C_5
REMARK    4  A    between atoms: C_5  and  C_6
REMARK    5  A    between atoms: C_22  and  C_23
REMARK    6  A    between atoms: C_22  and  C_24
REMARK                            x       y       z     vdW  Elec       q    Type
REMARK                         _______ _______ _______ _____ _____    ______ ____
ROOT
ATOM      1  C   UNL     1      -0.336  11.224  20.411  0.00  0.00    +0.000 A 
ATOM      2  C   UNL     1       0.853  10.549  20.079  0.00  0.00    +0.000 A 
ATOM      3  C   UNL     1       0.997   9.921  18.841  0.00  0.00    +0.000 A 
ATOM      4  C   UNL     1      -0.045   9.947  17.917  0.00  0.00    +0.000 A 
ATOM      5  C   UNL     1      -1.249  10.564  18.251  0.00  0.00    +0.000 A 
ATOM      6  C   UNL     1      -2.361  10.600  17.281  0.00  0.00    +0.000 A 
ATOM      7  O   UNL     1      -2.275  10.063  16.179  0.00  0.00    +0.000 OA
ATOM      8  C   UNL     1      -3.572  11.325  17.687  0.00  0.00    +0.000 A 
ATOM      9  C   UNL     1      -4.656  11.514  16.807  0.00  0.00    +0.000 A 
ATOM     10  C   UNL     1      -5.766  12.280  17.200  0.00  0.00    +0.000 A 
ATOM     11  C   UNL     1      -5.785  12.761  18.495  0.00  0.00    +0.000 A 
ATOM     12  C   UNL     1      -4.769  12.464  19.388  0.00  0.00    +0.000 A 
ATOM     13  C   UNL     1      -3.617  11.824  18.988  0.00  0.00    +0.000 A 
ATOM     14  O   UNL     1      -2.598  11.746  19.897  0.00  0.00    +0.000 OA
ATOM     15  C   UNL     1      -1.411  11.178  19.502  0.00  0.00    +0.000 A 
ATOM     16  C   UNL     1      -5.141  12.959  20.730  0.00  0.00    +0.000 C 
ATOM     17  C   UNL     1      -6.638  13.246  20.490  0.00  0.00    +0.000 C 
ATOM     18  C   UNL     1      -7.588  12.060  20.745  0.00  0.00    +0.000 C 
ATOM     19  C   UNL     1      -7.054  14.424  21.383  0.00  0.00    +0.000 C 
ATOM     20  O   UNL     1      -6.784  13.528  19.061  0.00  0.00    +0.000 OA
ENDROOT
BRANCH   1  21
ATOM     21  C   UNL     1      -0.420  11.972  21.729  0.00  0.00    +0.000 C 
BRANCH  21  22
ATOM     22  C   UNL     1      -0.850  11.124  22.896  0.00  0.00    +0.000 C 
ATOM     23  O   UNL     1      -0.168  10.275  23.452  0.00  0.00    +0.000 OA
BRANCH  22  25
ATOM     24  C   UNL     1      -2.401  12.839  23.281  0.00  0.00    +0.000 C 
ATOM     25  O   UNL     1      -2.134  11.434  23.262  0.00  0.00    +0.000 OA
ENDBRANCH  22  25
ENDBRANCH  21  22
ENDBRANCH   1  21
TORSDOF 3
ENDMDL
MODEL 2
REMARK VINA RESULT:      -6.8      0.433      1.062
REMARK  Name = 
REMARK  6 active torsions:
REMARK  status: ('A' for Active; 'I' for Inactive)
REMARK    1  A    between atoms: C_1  and  O_2
REMARK    2  A    between atoms: O_2  and  C_3
REMARK    3  A    between atoms: C_3  and  C_5
REMARK    4  A    between atoms: C_5  and  C_6
REMARK    5  A    between atoms: C_22  and  C_23
REMARK    6  A    between atoms: C_22  and  C_24
REMARK                            x       y       z     vdW  Elec       q    Type
REMARK                         _______ _______ _______ _____ _____    ______ ____
ROOT
ATOM      1  C   UNL     1      -0.335  11.397  20.340  0.00  0.00    +0.000 A 
ATOM      2  C   UNL     1       0.858  10.731  20.005  0.00  0.00    +0.000 A 
ATOM      3  C   UNL     1       0.983  10.056  18.790  0.00  0.00    +0.000 A 
ATOM      4  C   UNL     1      -0.081  10.026  17.893  0.00  0.00    +0.000 A 
ATOM      5  C   UNL     1      -1.288  10.634  18.232  0.00  0.00    +0.000 A 
ATOM      6  C   UNL     1      -2.424  10.610  17.290  0.00  0.00    +0.000 A 
ATOM      7  O   UNL     1      -2.355  10.030  16.208  0.00  0.00    +0.000 OA
ATOM      8  C   UNL     1      -3.638  11.329  17.697  0.00  0.00    +0.000 A 
ATOM      9  C   UNL     1      -4.747  11.462  16.837  0.00  0.00    +0.000 A 
ATOM     10  C   UNL     1      -5.862  12.224  17.227  0.00  0.00    +0.000 A 
ATOM     11  C   UNL     1      -5.859  12.756  18.502  0.00  0.00    +0.000 A 
ATOM     12  C   UNL     1      -4.815  12.514  19.380  0.00  0.00    +0.000 A 
ATOM     13  C   UNL     1      -3.661  11.880  18.978  0.00  0.00    +0.000 A 
ATOM     14  O   UNL     1      -2.619  11.857  19.863  0.00  0.00    +0.000 OA
ATOM     15  C   UNL     1      -1.431  11.295  19.461  0.00  0.00    +0.000 A 
ATOM     16  C   UNL     1      -5.164  13.056  20.710  0.00  0.00    +0.000 C 
ATOM     17  C   UNL     1      -6.671  13.306  20.497  0.00  0.00    +0.000 C 
ATOM     18  C   UNL     1      -7.592  12.114  20.823  0.00  0.00    +0.000 C 
ATOM     19  C   UNL     1      -7.088  14.512  21.351  0.00  0.00    +0.000 C 
ATOM     20  O   UNL     1      -6.858  13.527  19.062  0.00  0.00    +0.000 OA
ENDROOT
BRANCH   1  21
ATOM     21  C   UNL     1      -0.402  12.196  21.628  0.00  0.00    +0.000 C 
BRANCH  21  22
ATOM     22  C   UNL     1      -1.015  11.456  22.787  0.00  0.00    +0.000 C 
ATOM     23  O   UNL     1      -2.168  11.573  23.180  0.00  0.00    +0.000 OA
BRANCH  22  25
ATOM     24  C   UNL     1      -0.376   9.229  23.146  0.00  0.00    +0.000 C 
ATOM     25  O   UNL     1      -0.094  10.616  23.356  0.00  0.00    +0.000 OA
ENDBRANCH  22  25
ENDBRANCH  21  22
ENDBRANCH   1  21
TORSDOF 3
ENDMDL
MODEL 3
REMARK VINA RESULT:      -6.7      1.900      4.277
REMARK  Name = 
REMARK  6 active torsions:
REMARK  status: ('A' for Active; 'I' for Inactive)
REMARK    1  A    between atoms: C_1  and  O_2
REMARK    2  A    between atoms: O_2  and  C_3
REMARK    3  A    between atoms: C_3  and  C_5
REMARK    4  A    between atoms: C_5  and  C_6
REMARK    5  A    between atoms: C_22  and  C_23
REMARK    6  A    between atoms: C_22  and  C_24
REMARK                            x       y       z     vdW  Elec       q    Type
REMARK                         _______ _______ _______ _____ _____    ______ ____
ROOT
ATOM      1  C   UNL     1      -2.222  11.607  17.936  0.00  0.00    +0.000 A 
ATOM      2  C   UNL     1      -2.214  11.050  16.644  0.00  0.00    +0.000 A 
ATOM      3  C   UNL     1      -3.408  10.792  15.969  0.00  0.00    +0.000 A 
ATOM      4  C   UNL     1      -4.630  11.077  16.574  0.00  0.00    +0.000 A 
ATOM      5  C   UNL     1      -4.657  11.578  17.874  0.00  0.00    +0.000 A 
ATOM      6  C   UNL     1      -5.945  11.886  18.527  0.00  0.00    +0.000 A 
ATOM      7  O   UNL     1      -7.019  11.677  17.967  0.00  0.00    +0.000 OA
ATOM      8  C   UNL     1      -5.883  12.471  19.872  0.00  0.00    +0.000 A 
ATOM      9  C   UNL     1      -7.042  12.899  20.550  0.00  0.00    +0.000 A 
ATOM     10  C   UNL     1      -6.942  13.528  21.803  0.00  0.00    +0.000 A 
ATOM     11  C   UNL     1      -5.686  13.627  22.369  0.00  0.00    +0.000 A 
ATOM     12  C   UNL     1      -4.571  13.092  21.746  0.00  0.00    +0.000 A 
ATOM     13  C   UNL     1      -4.628  12.587  20.466  0.00  0.00    +0.000 A 
ATOM     14  O   UNL     1      -3.441  12.256  19.871  0.00  0.00    +0.000 OA
ATOM     15  C   UNL     1      -3.463  11.819  18.568  0.00  0.00    +0.000 A 
ATOM     16  C   UNL     1      -3.410  13.192  22.656  0.00  0.00    +0.000 C 
ATOM     17  C   UNL     1      -4.144  13.538  23.968  0.00  0.00    +0.000 C 
ATOM     18  C   UNL     1      -4.602  12.330  24.808  0.00  0.00    +0.000 C 
ATOM     19  C   UNL     1      -3.221  14.421  24.821  0.00  0.00    +0.000 C 
ATOM     20  O   UNL     1      -5.388  14.208  23.586  0.00  0.00    +0.000 OA
ENDROOT
BRANCH   1  21
ATOM     21  C   UNL     1      -0.903  11.958  18.600  0.00  0.00    +0.000 C 
BRANCH  21  22
ATOM     22  C   UNL     1      -0.110  10.768  19.070  0.00  0.00    +0.000 C 
ATOM     23  O   UNL     1      -0.502   9.911  19.851  0.00  0.00    +0.000 OA
BRANCH  22  25
ATOM     24  C   UNL     1       1.530   9.497  17.980  0.00  0.00    +0.000 C 
ATOM     25  O   UNL     1       1.136  10.770  18.499  0.00  0.00    +0.000 OA
ENDBRANCH  22  25
ENDBRANCH  21  22
ENDBRANCH   1  21
TORSDOF 3
ENDMDL
MODEL 4
REMARK VINA RESULT:      -6.7      9.503     13.026
REMARK  Name = 
REMARK  6 active torsions:
REMARK  status: ('A' for Active; 'I' for Inactive)
REMARK    1  A    between atoms: C_1  and  O_2
REMARK    2  A    between atoms: O_2  and  C_3
REMARK    3  A    between atoms: C_3  and  C_5
REMARK    4  A    between atoms: C_5  and  C_6
REMARK    5  A    between atoms: C_22  and  C_23
REMARK    6  A    between atoms: C_22  and  C_24
REMARK                            x       y       z     vdW  Elec       q    Type
REMARK                         _______ _______ _______ _____ _____    ______ ____
ROOT
ATOM      1  C   UNL     1       6.029   3.866  13.166  0.00  0.00    +0.000 A 
ATOM      2  C   UNL     1       6.964   4.347  12.232  0.00  0.00    +0.000 A 
ATOM      3  C   UNL     1       7.943   5.267  12.610  0.00  0.00    +0.000 A 
ATOM      4  C   UNL     1       8.001   5.728  13.922  0.00  0.00    +0.000 A 
ATOM      5  C   UNL     1       7.050   5.303  14.847  0.00  0.00    +0.000 A 
ATOM      6  C   UNL     1       7.100   5.783  16.242  0.00  0.00    +0.000 A 
ATOM      7  O   UNL     1       7.948   6.590  16.618  0.00  0.00    +0.000 OA
ATOM      8  C   UNL     1       6.099   5.237  17.168  0.00  0.00    +0.000 A 
ATOM      9  C   UNL     1       6.114   5.543  18.544  0.00  0.00    +0.000 A 
ATOM     10  C   UNL     1       5.191   4.942  19.416  0.00  0.00    +0.000 A 
ATOM     11  C   UNL     1       4.231   4.118  18.861  0.00  0.00    +0.000 A 
ATOM     12  C   UNL     1       4.153   3.923  17.492  0.00  0.00    +0.000 A 
ATOM     13  C   UNL     1       5.120   4.400  16.636  0.00  0.00    +0.000 A 
ATOM     14  O   UNL     1       5.054   3.996  15.331  0.00  0.00    +0.000 OA
ATOM     15  C   UNL     1       6.048   4.397  14.471  0.00  0.00    +0.000 A 
ATOM     16  C   UNL     1       2.935   3.145  17.181  0.00  0.00    +0.000 C 
ATOM     17  C   UNL     1       2.207   3.256  18.536  0.00  0.00    +0.000 C 
ATOM     18  C   UNL     1       1.291   4.485  18.696  0.00  0.00    +0.000 C 
ATOM     19  C   UNL     1       1.379   1.980  18.747  0.00  0.00    +0.000 C 
ATOM     20  O   UNL     1       3.245   3.442  19.552  0.00  0.00    +0.000 OA
ENDROOT
BRANCH   1  21
ATOM     21  C   UNL     1       5.037   2.799  12.740  0.00  0.00    +0.000 C 
BRANCH  21  22
ATOM     22  C   UNL     1       5.307   2.208  11.382  0.00  0.00    +0.000 C 
ATOM     23  O   UNL     1       6.044   1.260  11.149  0.00  0.00    +0.000 OA
BRANCH  22  25
ATOM     24  C   UNL     1       3.255   3.176  10.792  0.00  0.00    +0.000 C 
ATOM     25  O   UNL     1       4.605   2.887  10.419  0.00  0.00    +0.000 OA
ENDBRANCH  22  25
ENDBRANCH  21  22
ENDBRANCH   1  21
TORSDOF 3
ENDMDL
MODEL 5
REMARK VINA RESULT:      -6.6      1.636      4.663
REMARK  Name = 
REMARK  6 active torsions:
REMARK  status: ('A' for Active; 'I' for Inactive)
REMARK    1  A    between atoms: C_1  and  O_2
REMARK    2  A    between atoms: O_2  and  C_3
REMARK    3  A    between atoms: C_3  and  C_5
REMARK    4  A    between atoms: C_5  and  C_6
REMARK    5  A    between atoms: C_22  and  C_23
REMARK    6  A    between atoms: C_22  and  C_24
REMARK                            x       y       z     vdW  Elec       q    Type
REMARK                         _______ _______ _______ _____ _____    ______ ____
ROOT
ATOM      1  C   UNL     1      -1.047  10.862  18.595  0.00  0.00    +0.000 A 
ATOM      2  C   UNL     1       0.169  10.171  18.441  0.00  0.00    +0.000 A 
ATOM      3  C   UNL     1       0.953   9.848  19.549  0.00  0.00    +0.000 A 
ATOM      4  C   UNL     1       0.544  10.218  20.828  0.00  0.00    +0.000 A 
ATOM      5  C   UNL     1      -0.629  10.951  20.993  0.00  0.00    +0.000 A 
ATOM      6  C   UNL     1      -1.075  11.348  22.343  0.00  0.00    +0.000 A 
ATOM      7  O   UNL     1      -0.416  11.082  23.346  0.00  0.00    +0.000 OA
ATOM      8  C   UNL     1      -2.355  12.063  22.435  0.00  0.00    +0.000 A 
ATOM      9  C   UNL     1      -2.930  12.401  23.677  0.00  0.00    +0.000 A 
ATOM     10  C   UNL     1      -4.193  13.013  23.732  0.00  0.00    +0.000 A 
ATOM     11  C   UNL     1      -4.798  13.342  22.534  0.00  0.00    +0.000 A 
ATOM     12  C   UNL     1      -4.166  13.114  21.323  0.00  0.00    +0.000 A 
ATOM     13  C   UNL     1      -2.989  12.404  21.241  0.00  0.00    +0.000 A 
ATOM     14  O   UNL     1      -2.544  12.071  19.991  0.00  0.00    +0.000 OA
ATOM     15  C   UNL     1      -1.413  11.299  19.883  0.00  0.00    +0.000 A 
ATOM     16  C   UNL     1      -4.964  13.720  20.236  0.00  0.00    +0.000 C 
ATOM     17  C   UNL     1      -5.919  14.592  21.077  0.00  0.00    +0.000 C 
ATOM     18  C   UNL     1      -5.412  16.012  21.395  0.00  0.00    +0.000 C 
ATOM     19  C   UNL     1      -7.262  14.692  20.337  0.00  0.00    +0.000 C 
ATOM     20  O   UNL     1      -6.031  13.945  22.385  0.00  0.00    +0.000 OA
ENDROOT
BRANCH   1  21
ATOM     21  C   UNL     1      -1.916  11.114  17.376  0.00  0.00    +0.000 C 
BRANCH  21  22
ATOM     22  C   UNL     1      -2.775   9.945  16.975  0.00  0.00    +0.000 C 
ATOM     23  O   UNL     1      -3.549   9.343  17.707  0.00  0.00    +0.000 OA
BRANCH  22  25
ATOM     24  C   UNL     1      -3.404  10.379  14.759  0.00  0.00    +0.000 C 
ATOM     25  O   UNL     1      -2.573   9.637  15.655  0.00  0.00    +0.000 OA
ENDBRANCH  22  25
ENDBRANCH  21  22
ENDBRANCH   1  21
TORSDOF 3
ENDMDL
MODEL 6
REMARK VINA RESULT:      -6.6      1.790      4.999
REMARK  Name = 
REMARK  6 active torsions:
REMARK  status: ('A' for Active; 'I' for Inactive)
REMARK    1  A    between atoms: C_1  and  O_2
REMARK    2  A    between atoms: O_2  and  C_3
REMARK    3  A    between atoms: C_3  and  C_5
REMARK    4  A    between atoms: C_5  and  C_6
REMARK    5  A    between atoms: C_22  and  C_23
REMARK    6  A    between atoms: C_22  and  C_24
REMARK                            x       y       z     vdW  Elec       q    Type
REMARK                         _______ _______ _______ _____ _____    ______ ____
ROOT
ATOM      1  C   UNL     1      -4.257  11.484  17.335  0.00  0.00    +0.000 A 
ATOM      2  C   UNL     1      -3.948  10.750  16.175  0.00  0.00    +0.000 A 
ATOM      3  C   UNL     1      -2.751  10.040  16.076  0.00  0.00    +0.000 A 
ATOM      4  C   UNL     1      -1.838  10.057  17.127  0.00  0.00    +0.000 A 
ATOM      5  C   UNL     1      -2.103  10.823  18.261  0.00  0.00    +0.000 A 
ATOM      6  C   UNL     1      -1.144  10.849  19.383  0.00  0.00    +0.000 A 
ATOM      7  O   UNL     1      -0.080  10.236  19.338  0.00  0.00    +0.000 OA
ATOM      8  C   UNL     1      -1.529  11.630  20.566  0.00  0.00    +0.000 A 
ATOM      9  C   UNL     1      -0.742  11.644  21.735  0.00  0.00    +0.000 A 
ATOM     10  C   UNL     1      -1.179  12.336  22.877  0.00  0.00    +0.000 A 
ATOM     11  C   UNL     1      -2.351  13.061  22.777  0.00  0.00    +0.000 A 
ATOM     12  C   UNL     1      -3.050  13.137  21.584  0.00  0.00    +0.000 A 
ATOM     13  C   UNL     1      -2.710  12.367  20.494  0.00  0.00    +0.000 A 
ATOM     14  O   UNL     1      -3.571  12.373  19.430  0.00  0.00    +0.000 OA
ATOM     15  C   UNL     1      -3.294  11.558  18.360  0.00  0.00    +0.000 A 
ATOM     16  C   UNL     1      -4.152  14.111  21.727  0.00  0.00    +0.000 C 
ATOM     17  C   UNL     1      -3.724  14.789  23.045  0.00  0.00    +0.000 C 
ATOM     18  C   UNL     1      -2.777  15.995  22.891  0.00  0.00    +0.000 C 
ATOM     19  C   UNL     1      -4.988  15.235  23.794  0.00  0.00    +0.000 C 
ATOM     20  O   UNL     1      -2.936  13.801  23.785  0.00  0.00    +0.000 OA
ENDROOT
BRANCH   1  21
ATOM     21  C   UNL     1      -5.608  12.168  17.442  0.00  0.00    +0.000 C 
BRANCH  21  22
ATOM     22  C   UNL     1      -6.597  11.453  18.323  0.00  0.00    +0.000 C 
ATOM     23  O   UNL     1      -6.689  10.240  18.457  0.00  0.00    +0.000 OA
BRANCH  22  25
ATOM     24  C   UNL     1      -7.483  12.144  20.380  0.00  0.00    +0.000 C 
ATOM     25  O   UNL     1      -7.400  12.357  18.968  0.00  0.00    +0.000 OA
ENDBRANCH  22  25
ENDBRANCH  21  22
ENDBRANCH   1  21
TORSDOF 3
ENDMDL
MODEL 7
REMARK VINA RESULT:      -6.6      9.585     13.089
REMARK  Name = 
REMARK  6 active torsions:
REMARK  status: ('A' for Active; 'I' for Inactive)
REMARK    1  A    between atoms: C_1  and  O_2
REMARK    2  A    between atoms: O_2  and  C_3
REMARK    3  A    between atoms: C_3  and  C_5
REMARK    4  A    between atoms: C_5  and  C_6
REMARK    5  A    between atoms: C_22  and  C_23
REMARK    6  A    between atoms: C_22  and  C_24
REMARK                            x       y       z     vdW  Elec       q    Type
REMARK                         _______ _______ _______ _____ _____    ______ ____
ROOT
ATOM      1  C   UNL     1       6.091   3.826  13.182  0.00  0.00    +0.000 A 
ATOM      2  C   UNL     1       7.004   4.321  12.234  0.00  0.00    +0.000 A 
ATOM      3  C   UNL     1       7.947   5.288  12.586  0.00  0.00    +0.000 A 
ATOM      4  C   UNL     1       7.989   5.784  13.887  0.00  0.00    +0.000 A 
ATOM      5  C   UNL     1       7.056   5.345  14.824  0.00  0.00    +0.000 A 
ATOM      6  C   UNL     1       7.089   5.861  16.206  0.00  0.00    +0.000 A 
ATOM      7  O   UNL     1       7.904   6.711  16.560  0.00  0.00    +0.000 OA
ATOM      8  C   UNL     1       6.112   5.299  17.148  0.00  0.00    +0.000 A 
ATOM      9  C   UNL     1       6.116   5.640  18.516  0.00  0.00    +0.000 A 
ATOM     10  C   UNL     1       5.220   5.024  19.405  0.00  0.00    +0.000 A 
ATOM     11  C   UNL     1       4.292   4.149  18.873  0.00  0.00    +0.000 A 
ATOM     12  C   UNL     1       4.220   3.917  17.510  0.00  0.00    +0.000 A 
ATOM     13  C   UNL     1       5.166   4.410  16.639  0.00  0.00    +0.000 A 
ATOM     14  O   UNL     1       5.114   3.972  15.345  0.00  0.00    +0.000 OA
ATOM     15  C   UNL     1       6.090   4.390  14.473  0.00  0.00    +0.000 A 
ATOM     16  C   UNL     1       3.034   3.084  17.221  0.00  0.00    +0.000 C 
ATOM     17  C   UNL     1       2.304   3.200  18.574  0.00  0.00    +0.000 C 
ATOM     18  C   UNL     1       1.340   4.394  18.706  0.00  0.00    +0.000 C 
ATOM     19  C   UNL     1       1.527   1.897  18.819  0.00  0.00    +0.000 C 
ATOM     20  O   UNL     1       3.335   3.452  19.583  0.00  0.00    +0.000 OA
ENDROOT
BRANCH   1  21
ATOM     21  C   UNL     1       5.142   2.710  12.785  0.00  0.00    +0.000 C 
BRANCH  21  22
ATOM     22  C   UNL     1       4.607   2.820  11.382  0.00  0.00    +0.000 C 
ATOM     23  O   UNL     1       3.977   3.767  10.929  0.00  0.00    +0.000 OA
BRANCH  22  25
ATOM     24  C   UNL     1       6.101   1.032  11.126  0.00  0.00    +0.000 C 
ATOM     25  O   UNL     1       4.923   1.697  10.662  0.00  0.00    +0.000 OA
ENDBRANCH  22  25
ENDBRANCH  21  22
ENDBRANCH   1  21
TORSDOF 3
ENDMDL
MODEL 8
REMARK VINA RESULT:      -6.5      1.655      5.256
REMARK  Name = 
REMARK  6 active torsions:
REMARK  status: ('A' for Active; 'I' for Inactive)
REMARK    1  A    between atoms: C_1  and  O_2
REMARK    2  A    between atoms: O_2  and  C_3
REMARK    3  A    between atoms: C_3  and  C_5
REMARK    4  A    between atoms: C_5  and  C_6
REMARK    5  A    between atoms: C_22  and  C_23
REMARK    6  A    between atoms: C_22  and  C_24
REMARK                            x       y       z     vdW  Elec       q    Type
REMARK                         _______ _______ _______ _____ _____    ______ ____
ROOT
ATOM      1  C   UNL     1      -4.254  11.529  17.337  0.00  0.00    +0.000 A 
ATOM      2  C   UNL     1      -4.354  10.992  16.041  0.00  0.00    +0.000 A 
ATOM      3  C   UNL     1      -3.318  10.228  15.501  0.00  0.00    +0.000 A 
ATOM      4  C   UNL     1      -2.161   9.996  16.240  0.00  0.00    +0.000 A 
ATOM      5  C   UNL     1      -2.022  10.566  17.504  0.00  0.00    +0.000 A 
ATOM      6  C   UNL     1      -0.802  10.328  18.299  0.00  0.00    +0.000 A 
ATOM      7  O   UNL     1       0.133   9.659  17.863  0.00  0.00    +0.000 OA
ATOM      8  C   UNL     1      -0.762  10.912  19.646  0.00  0.00    +0.000 A 
ATOM      9  C   UNL     1       0.305  10.665  20.532  0.00  0.00    +0.000 A 
ATOM     10  C   UNL     1       0.274  11.173  21.842  0.00  0.00    +0.000 A 
ATOM     11  C   UNL     1      -0.790  11.984  22.188  0.00  0.00    +0.000 A 
ATOM     12  C   UNL     1      -1.770  12.318  21.268  0.00  0.00    +0.000 A 
ATOM     13  C   UNL     1      -1.825  11.731  20.023  0.00  0.00    +0.000 A 
ATOM     14  O   UNL     1      -2.933  11.985  19.261  0.00  0.00    +0.000 OA
ATOM     15  C   UNL     1      -3.049  11.354  18.046  0.00  0.00    +0.000 A 
ATOM     16  C   UNL     1      -2.672  13.326  21.862  0.00  0.00    +0.000 C 
ATOM     17  C   UNL     1      -1.830  13.729  23.090  0.00  0.00    +0.000 C 
ATOM     18  C   UNL     1      -0.826  14.874  22.857  0.00  0.00    +0.000 C 
ATOM     19  C   UNL     1      -2.787  14.123  24.225  0.00  0.00    +0.000 C 
ATOM     20  O   UNL     1      -0.994  12.573  23.419  0.00  0.00    +0.000 OA
ENDROOT
BRANCH   1  21
ATOM     21  C   UNL     1      -5.437  12.276  17.924  0.00  0.00    +0.000 C 
BRANCH  21  22
ATOM     22  C   UNL     1      -6.140  11.547  19.038  0.00  0.00    +0.000 C 
ATOM     23  O   UNL     1      -6.334  11.982  20.165  0.00  0.00    +0.000 OA
BRANCH  22  25
ATOM     24  C   UNL     1      -7.196   9.541  19.631  0.00  0.00    +0.000 C 
ATOM     25  O   UNL     1      -6.543  10.307  18.616  0.00  0.00    +0.000 OA
ENDBRANCH  22  25
ENDBRANCH  21  22
ENDBRANCH   1  21
TORSDOF 3
ENDMDL
MODEL 9
REMARK VINA RESULT:      -6.5      2.073      4.058
REMARK  Name = 
REMARK  6 active torsions:
REMARK  status: ('A' for Active; 'I' for Inactive)
REMARK    1  A    between atoms: C_1  and  O_2
REMARK    2  A    between atoms: O_2  and  C_3
REMARK    3  A    between atoms: C_3  and  C_5
REMARK    4  A    between atoms: C_5  and  C_6
REMARK    5  A    between atoms: C_22  and  C_23
REMARK    6  A    between atoms: C_22  and  C_24
REMARK                            x       y       z     vdW  Elec       q    Type
REMARK                         _______ _______ _______ _____ _____    ______ ____
ROOT
ATOM      1  C   UNL     1      -2.133  10.665  18.001  0.00  0.00    +0.000 A 
ATOM      2  C   UNL     1      -2.072  10.054  16.735  0.00  0.00    +0.000 A 
ATOM      3  C   UNL     1      -3.115  10.198  15.820  0.00  0.00    +0.000 A 
ATOM      4  C   UNL     1      -4.241  10.946  16.154  0.00  0.00    +0.000 A 
ATOM      5  C   UNL     1      -4.343  11.513  17.423  0.00  0.00    +0.000 A 
ATOM      6  C   UNL     1      -5.530  12.309  17.790  0.00  0.00    +0.000 A 
ATOM      7  O   UNL     1      -6.470  12.464  17.013  0.00  0.00    +0.000 OA
ATOM      8  C   UNL     1      -5.529  12.925  19.123  0.00  0.00    +0.000 A 
ATOM      9  C   UNL     1      -6.560  13.789  19.544  0.00  0.00    +0.000 A 
ATOM     10  C   UNL     1      -6.489  14.425  20.795  0.00  0.00    +0.000 A 
ATOM     11  C   UNL     1      -5.425  14.103  21.616  0.00  0.00    +0.000 A 
ATOM     12  C   UNL     1      -4.485  13.159  21.239  0.00  0.00    +0.000 A 
ATOM     13  C   UNL     1      -4.466  12.621  19.972  0.00  0.00    +0.000 A 
ATOM     14  O   UNL     1      -3.391  11.843  19.639  0.00  0.00    +0.000 OA
ATOM     15  C   UNL     1      -3.309  11.354  18.357  0.00  0.00    +0.000 A 
ATOM     16  C   UNL     1      -3.577  12.897  22.375  0.00  0.00    +0.000 C 
ATOM     17  C   UNL     1      -4.379  13.575  23.505  0.00  0.00    +0.000 C 
ATOM     18  C   UNL     1      -5.408  12.675  24.217  0.00  0.00    +0.000 C 
ATOM     19  C   UNL     1      -3.388  14.123  24.543  0.00  0.00    +0.000 C 
ATOM     20  O   UNL     1      -5.186  14.620  22.873  0.00  0.00    +0.000 OA
ENDROOT
BRANCH   1  21
ATOM     21  C   UNL     1      -0.940  10.561  18.933  0.00  0.00    +0.000 C 
BRANCH  21  22
ATOM     22  C   UNL     1       0.101  11.628  18.730  0.00  0.00    +0.000 C 
ATOM     23  O   UNL     1      -0.120  12.821  18.565  0.00  0.00    +0.000 OA
BRANCH  22  25
ATOM     24  C   UNL     1       1.409   9.747  18.232  0.00  0.00    +0.000 C 
ATOM     25  O   UNL     1       1.357  11.079  18.752  0.00  0.00    +0.000 OA
ENDBRANCH  22  25
ENDBRANCH  21  22
ENDBRANCH   1  21
TORSDOF 3
ENDMDL
