MODEL 1
REMARK VINA RESULT:      -7.3      0.000      0.000
REMARK  Name = 
REMARK  7 active torsions:
REMARK  status: ('A' for Active; 'I' for Inactive)
REMARK    1  A    between atoms: C_1  and  O_2
REMARK    2  A    between atoms: O_2  and  C_3
REMARK    3  A    between atoms: C_3  and  C_4
REMARK    4  A    between atoms: C_4  and  N_5
REMARK    5  A    between atoms: C_6  and  S_7
REMARK    6  A    between atoms: S_7  and  C_8
REMARK    7  A    between atoms: C_8  and  C_9
REMARK                            x       y       z     vdW  Elec       q    Type
REMARK                         _______ _______ _______ _____ _____    ______ ____
ROOT
ATOM      1  N   UNL     1       2.489   5.896  19.758  0.00  0.00    +0.000 N 
ATOM      2  C   UNL     1       3.154   5.606  18.586  0.00  0.00    +0.000 A 
ATOM      3  N   UNL     1       3.194   6.637  17.775  0.00  0.00    +0.000 NA
ATOM      4  C   UNL     1       2.491   7.630  18.417  0.00  0.00    +0.000 A 
ATOM      5  C   UNL     1       2.156   8.921  17.973  0.00  0.00    +0.000 A 
ATOM      6  C   UNL     1       1.404   9.756  18.808  0.00  0.00    +0.000 A 
ATOM      7  C   UNL     1       1.009   9.326  20.075  0.00  0.00    +0.000 A 
ATOM      8  C   UNL     1       1.331   8.043  20.535  0.00  0.00    +0.000 A 
ATOM      9  C   UNL     1       2.062   7.209  19.673  0.00  0.00    +0.000 A 
ENDROOT
BRANCH   1  10
ATOM     10  C   UNL     1       2.128   4.981  20.828  0.00  0.00    +0.000 C 
BRANCH  10  11
ATOM     11  C   UNL     1       0.954   4.051  20.532  0.00  0.00    +0.000 C 
BRANCH  11  13
ATOM     12  C   UNL     1       2.465   2.682  21.703  0.00  0.00    +0.000 C 
ATOM     13  O   UNL     1       1.247   2.724  20.969  0.00  0.00    +0.000 OA
ENDBRANCH  11  13
ENDBRANCH  10  11
ENDBRANCH   1  10
BRANCH   2  14
ATOM     14  S   UNL     1       3.744   4.024  18.185  0.00  0.00    +0.000 S 
BRANCH  14  15
ATOM     15  C   UNL     1       5.535   4.331  18.044  0.00  0.00    +0.000 C 
BRANCH  15  16
ATOM     16  C   UNL     1       5.955   4.380  16.596  0.00  0.00    +0.000 A 
ATOM     17  N   UNL     1       5.411   3.669  15.628  0.00  0.00    +0.000 NA
ATOM     18  C   UNL     1       6.034   3.950  14.417  0.00  0.00    +0.000 A 
ATOM     19  C   UNL     1       5.714   3.382  13.165  0.00  0.00    +0.000 A 
ATOM     20  C   UNL     1       6.426   3.763  12.020  0.00  0.00    +0.000 A 
ATOM     21  C   UNL     1       7.451   4.698  12.109  0.00  0.00    +0.000 A 
ATOM     22  C   UNL     1       7.791   5.272  13.338  0.00  0.00    +0.000 A 
ATOM     23  C   UNL     1       7.071   4.884  14.482  0.00  0.00    +0.000 A 
ATOM     24  S   UNL     1       7.254   5.403  16.113  0.00  0.00    +0.000 S 
ENDBRANCH  15  16
ENDBRANCH  14  15
ENDBRANCH   2  14
TORSDOF 6
ENDMDL
MODEL 2
REMARK VINA RESULT:      -7.2      2.019      4.087
REMARK  Name = 
REMARK  7 active torsions:
REMARK  status: ('A' for Active; 'I' for Inactive)
REMARK    1  A    between atoms: C_1  and  O_2
REMARK    2  A    between atoms: O_2  and  C_3
REMARK    3  A    between atoms: C_3  and  C_4
REMARK    4  A    between atoms: C_4  and  N_5
REMARK    5  A    between atoms: C_6  and  S_7
REMARK    6  A    between atoms: S_7  and  C_8
REMARK    7  A    between atoms: C_8  and  C_9
REMARK                            x       y       z     vdW  Elec       q    Type
REMARK                         _______ _______ _______ _____ _____    ______ ____
ROOT
ATOM      1  N   UNL     1       3.074   5.429  18.767  0.00  0.00    +0.000 N 
ATOM      2  C   UNL     1       4.438   5.279  18.898  0.00  0.00    +0.000 A 
ATOM      3  N   UNL     1       4.749   4.270  19.678  0.00  0.00    +0.000 NA
ATOM      4  C   UNL     1       3.546   3.764  20.114  0.00  0.00    +0.000 A 
ATOM      5  C   UNL     1       3.287   2.728  21.027  0.00  0.00    +0.000 A 
ATOM      6  C   UNL     1       1.961   2.403  21.333  0.00  0.00    +0.000 A 
ATOM      7  C   UNL     1       0.904   3.080  20.724  0.00  0.00    +0.000 A 
ATOM      8  C   UNL     1       1.140   4.116  19.812  0.00  0.00    +0.000 A 
ATOM      9  C   UNL     1       2.478   4.448  19.539  0.00  0.00    +0.000 A 
ENDROOT
BRANCH   1  10
ATOM     10  C   UNL     1       2.355   6.503  18.102  0.00  0.00    +0.000 C 
BRANCH  10  11
ATOM     11  C   UNL     1       2.250   7.810  18.885  0.00  0.00    +0.000 C 
BRANCH  11  13
ATOM     12  C   UNL     1       1.574   9.854  17.940  0.00  0.00    +0.000 C 
ATOM     13  O   UNL     1       2.634   8.913  18.066  0.00  0.00    +0.000 OA
ENDBRANCH  11  13
ENDBRANCH  10  11
ENDBRANCH   1  10
BRANCH   2  14
ATOM     14  S   UNL     1       5.593   6.380  18.218  0.00  0.00    +0.000 S 
BRANCH  14  15
ATOM     15  C   UNL     1       6.938   5.246  17.743  0.00  0.00    +0.000 C 
BRANCH  15  16
ATOM     16  C   UNL     1       6.837   4.880  16.283  0.00  0.00    +0.000 A 
ATOM     17  N   UNL     1       7.574   5.401  15.322  0.00  0.00    +0.000 NA
ATOM     18  C   UNL     1       7.225   4.849  14.095  0.00  0.00    +0.000 A 
ATOM     19  C   UNL     1       7.805   5.161  12.846  0.00  0.00    +0.000 A 
ATOM     20  C   UNL     1       7.355   4.520  11.684  0.00  0.00    +0.000 A 
ATOM     21  C   UNL     1       6.336   3.576  11.752  0.00  0.00    +0.000 A 
ATOM     22  C   UNL     1       5.742   3.252  12.976  0.00  0.00    +0.000 A 
ATOM     23  C   UNL     1       6.200   3.901  14.138  0.00  0.00    +0.000 A 
ATOM     24  S   UNL     1       5.672   3.720  15.766  0.00  0.00    +0.000 S 
ENDBRANCH  15  16
ENDBRANCH  14  15
ENDBRANCH   2  14
TORSDOF 6
ENDMDL
MODEL 3
REMARK VINA RESULT:      -7.0      2.933      8.383
REMARK  Name = 
REMARK  7 active torsions:
REMARK  status: ('A' for Active; 'I' for Inactive)
REMARK    1  A    between atoms: C_1  and  O_2
REMARK    2  A    between atoms: O_2  and  C_3
REMARK    3  A    between atoms: C_3  and  C_4
REMARK    4  A    between atoms: C_4  and  N_5
REMARK    5  A    between atoms: C_6  and  S_7
REMARK    6  A    between atoms: S_7  and  C_8
REMARK    7  A    between atoms: C_8  and  C_9
REMARK                            x       y       z     vdW  Elec       q    Type
REMARK                         _______ _______ _______ _____ _____    ______ ____
ROOT
ATOM      1  N   UNL     1       3.324   5.012  18.394  0.00  0.00    +0.000 N 
ATOM      2  C   UNL     1       3.084   6.364  18.501  0.00  0.00    +0.000 A 
ATOM      3  N   UNL     1       3.706   7.050  17.571  0.00  0.00    +0.000 NA
ATOM      4  C   UNL     1       4.418   6.120  16.850  0.00  0.00    +0.000 A 
ATOM      5  C   UNL     1       5.317   6.306  15.786  0.00  0.00    +0.000 A 
ATOM      6  C   UNL     1       5.945   5.191  15.220  0.00  0.00    +0.000 A 
ATOM      7  C   UNL     1       5.669   3.906  15.685  0.00  0.00    +0.000 A 
ATOM      8  C   UNL     1       4.777   3.698  16.745  0.00  0.00    +0.000 A 
ATOM      9  C   UNL     1       4.178   4.831  17.320  0.00  0.00    +0.000 A 
ENDROOT
BRANCH   1  10
ATOM     10  C   UNL     1       2.923   3.959  19.313  0.00  0.00    +0.000 C 
BRANCH  10  11
ATOM     11  C   UNL     1       1.482   3.477  19.175  0.00  0.00    +0.000 C 
BRANCH  11  13
ATOM     12  C   UNL     1       1.877   3.424  21.493  0.00  0.00    +0.000 C 
ATOM     13  O   UNL     1       0.934   3.173  20.457  0.00  0.00    +0.000 OA
ENDBRANCH  11  13
ENDBRANCH  10  11
ENDBRANCH   1  10
BRANCH   2  14
ATOM     14  S   UNL     1       2.177   7.077  19.797  0.00  0.00    +0.000 S 
BRANCH  14  15
ATOM     15  C   UNL     1       1.777   8.714  19.102  0.00  0.00    +0.000 C 
BRANCH  15  16
ATOM     16  C   UNL     1       0.855   9.474  20.023  0.00  0.00    +0.000 A 
ATOM     17  N   UNL     1       0.096  10.489  19.660  0.00  0.00    +0.000 NA
ATOM     18  C   UNL     1      -0.627  10.962  20.750  0.00  0.00    +0.000 A 
ATOM     19  C   UNL     1      -1.545  12.035  20.738  0.00  0.00    +0.000 A 
ATOM     20  C   UNL     1      -2.208  12.402  21.915  0.00  0.00    +0.000 A 
ATOM     21  C   UNL     1      -1.967  11.717  23.101  0.00  0.00    +0.000 A 
ATOM     22  C   UNL     1      -1.060  10.654  23.141  0.00  0.00    +0.000 A 
ATOM     23  C   UNL     1      -0.398  10.292  21.954  0.00  0.00    +0.000 A 
ATOM     24  S   UNL     1       0.761   9.047  21.690  0.00  0.00    +0.000 S 
ENDBRANCH  15  16
ENDBRANCH  14  15
ENDBRANCH   2  14
TORSDOF 6
ENDMDL
MODEL 4
REMARK VINA RESULT:      -7.0      1.062      1.553
REMARK  Name = 
REMARK  7 active torsions:
REMARK  status: ('A' for Active; 'I' for Inactive)
REMARK    1  A    between atoms: C_1  and  O_2
REMARK    2  A    between atoms: O_2  and  C_3
REMARK    3  A    between atoms: C_3  and  C_4
REMARK    4  A    between atoms: C_4  and  N_5
REMARK    5  A    between atoms: C_6  and  S_7
REMARK    6  A    between atoms: S_7  and  C_8
REMARK    7  A    between atoms: C_8  and  C_9
REMARK                            x       y       z     vdW  Elec       q    Type
REMARK                         _______ _______ _______ _____ _____    ______ ____
ROOT
ATOM      1  N   UNL     1       2.939   6.023  19.885  0.00  0.00    +0.000 N 
ATOM      2  C   UNL     1       3.780   5.784  18.821  0.00  0.00    +0.000 A 
ATOM      3  N   UNL     1       3.730   6.745  17.928  0.00  0.00    +0.000 NA
ATOM      4  C   UNL     1       2.787   7.628  18.400  0.00  0.00    +0.000 A 
ATOM      5  C   UNL     1       2.279   8.797  17.808  0.00  0.00    +0.000 A 
ATOM      6  C   UNL     1       1.294   9.530  18.481  0.00  0.00    +0.000 A 
ATOM      7  C   UNL     1       0.835   9.122  19.733  0.00  0.00    +0.000 A 
ATOM      8  C   UNL     1       1.326   7.959  20.339  0.00  0.00    +0.000 A 
ATOM      9  C   UNL     1       2.294   7.221  19.637  0.00  0.00    +0.000 A 
ENDROOT
BRANCH   1  10
ATOM     10  C   UNL     1       2.623   5.132  20.990  0.00  0.00    +0.000 C 
BRANCH  10  11
ATOM     11  C   UNL     1       2.024   3.784  20.600  0.00  0.00    +0.000 C 
BRANCH  11  13
ATOM     12  C   UNL     1       1.001   3.101  18.595  0.00  0.00    +0.000 C 
ATOM     13  O   UNL     1       0.915   3.968  19.721  0.00  0.00    +0.000 OA
ENDBRANCH  11  13
ENDBRANCH  10  11
ENDBRANCH   1  10
BRANCH   2  14
ATOM     14  S   UNL     1       4.691   4.319  18.628  0.00  0.00    +0.000 S 
BRANCH  14  15
ATOM     15  C   UNL     1       6.287   4.961  18.028  0.00  0.00    +0.000 C 
BRANCH  15  16
ATOM     16  C   UNL     1       6.425   4.745  16.542  0.00  0.00    +0.000 A 
ATOM     17  N   UNL     1       7.270   5.389  15.761  0.00  0.00    +0.000 NA
ATOM     18  C   UNL     1       7.137   4.953  14.447  0.00  0.00    +0.000 A 
ATOM     19  C   UNL     1       7.880   5.413  13.338  0.00  0.00    +0.000 A 
ATOM     20  C   UNL     1       7.643   4.879  12.065  0.00  0.00    +0.000 A 
ATOM     21  C   UNL     1       6.676   3.897  11.884  0.00  0.00    +0.000 A 
ATOM     22  C   UNL     1       5.923   3.427  12.965  0.00  0.00    +0.000 A 
ATOM     23  C   UNL     1       6.168   3.969  14.240  0.00  0.00    +0.000 A 
ATOM     24  S   UNL     1       5.413   3.602  15.742  0.00  0.00    +0.000 S 
ENDBRANCH  15  16
ENDBRANCH  14  15
ENDBRANCH   2  14
TORSDOF 6
ENDMDL
MODEL 5
REMARK VINA RESULT:      -6.9      3.863      8.258
REMARK  Name = 
REMARK  7 active torsions:
REMARK  status: ('A' for Active; 'I' for Inactive)
REMARK    1  A    between atoms: C_1  and  O_2
REMARK    2  A    between atoms: O_2  and  C_3
REMARK    3  A    between atoms: C_3  and  C_4
REMARK    4  A    between atoms: C_4  and  N_5
REMARK    5  A    between atoms: C_6  and  S_7
REMARK    6  A    between atoms: S_7  and  C_8
REMARK    7  A    between atoms: C_8  and  C_9
REMARK                            x       y       z     vdW  Elec       q    Type
REMARK                         _______ _______ _______ _____ _____    ______ ____
ROOT
ATOM      1  N   UNL     1       3.705   6.247  18.186  0.00  0.00    +0.000 N 
ATOM      2  C   UNL     1       2.722   7.090  18.658  0.00  0.00    +0.000 A 
ATOM      3  N   UNL     1       2.082   6.575  19.682  0.00  0.00    +0.000 NA
ATOM      4  C   UNL     1       2.633   5.328  19.863  0.00  0.00    +0.000 A 
ATOM      5  C   UNL     1       2.279   4.314  20.770  0.00  0.00    +0.000 A 
ATOM      6  C   UNL     1       2.983   3.104  20.750  0.00  0.00    +0.000 A 
ATOM      7  C   UNL     1       4.039   2.910  19.861  0.00  0.00    +0.000 A 
ATOM      8  C   UNL     1       4.407   3.906  18.948  0.00  0.00    +0.000 A 
ATOM      9  C   UNL     1       3.672   5.103  18.962  0.00  0.00    +0.000 A 
ENDROOT
BRANCH   1  10
ATOM     10  C   UNL     1       4.522   6.410  16.995  0.00  0.00    +0.000 C 
BRANCH  10  11
ATOM     11  C   UNL     1       5.951   6.887  17.236  0.00  0.00    +0.000 C 
BRANCH  11  13
ATOM     12  C   UNL     1       6.866   4.871  16.441  0.00  0.00    +0.000 C 
ATOM     13  O   UNL     1       6.842   6.287  16.296  0.00  0.00    +0.000 OA
ENDBRANCH  11  13
ENDBRANCH  10  11
ENDBRANCH   1  10
BRANCH   2  14
ATOM     14  S   UNL     1       2.299   8.591  17.898  0.00  0.00    +0.000 S 
BRANCH  14  15
ATOM     15  C   UNL     1       1.381   9.427  19.232  0.00  0.00    +0.000 C 
BRANCH  15  16
ATOM     16  C   UNL     1       0.039   9.906  18.737  0.00  0.00    +0.000 A 
ATOM     17  N   UNL     1      -0.497   9.580  17.577  0.00  0.00    +0.000 NA
ATOM     18  C   UNL     1      -1.736  10.194  17.431  0.00  0.00    +0.000 A 
ATOM     19  C   UNL     1      -2.601  10.071  16.322  0.00  0.00    +0.000 A 
ATOM     20  C   UNL     1      -3.828  10.746  16.311  0.00  0.00    +0.000 A 
ATOM     21  C   UNL     1      -4.202  11.540  17.390  0.00  0.00    +0.000 A 
ATOM     22  C   UNL     1      -3.363  11.682  18.499  0.00  0.00    +0.000 A 
ATOM     23  C   UNL     1      -2.132  11.001  18.501  0.00  0.00    +0.000 A 
ATOM     24  S   UNL     1      -0.900  10.980  19.703  0.00  0.00    +0.000 S 
ENDBRANCH  15  16
ENDBRANCH  14  15
ENDBRANCH   2  14
TORSDOF 6
ENDMDL
MODEL 6
REMARK VINA RESULT:      -6.8      3.306      8.196
REMARK  Name = 
REMARK  7 active torsions:
REMARK  status: ('A' for Active; 'I' for Inactive)
REMARK    1  A    between atoms: C_1  and  O_2
REMARK    2  A    between atoms: O_2  and  C_3
REMARK    3  A    between atoms: C_3  and  C_4
REMARK    4  A    between atoms: C_4  and  N_5
REMARK    5  A    between atoms: C_6  and  S_7
REMARK    6  A    between atoms: S_7  and  C_8
REMARK    7  A    between atoms: C_8  and  C_9
REMARK                            x       y       z     vdW  Elec       q    Type
REMARK                         _______ _______ _______ _____ _____    ______ ____
ROOT
ATOM      1  N   UNL     1       4.241   5.285  18.420  0.00  0.00    +0.000 N 
ATOM      2  C   UNL     1       3.255   6.225  18.216  0.00  0.00    +0.000 A 
ATOM      3  N   UNL     1       2.059   5.684  18.177  0.00  0.00    +0.000 NA
ATOM      4  C   UNL     1       2.270   4.332  18.316  0.00  0.00    +0.000 A 
ATOM      5  C   UNL     1       1.347   3.272  18.270  0.00  0.00    +0.000 A 
ATOM      6  C   UNL     1       1.809   1.959  18.417  0.00  0.00    +0.000 A 
ATOM      7  C   UNL     1       3.163   1.700  18.630  0.00  0.00    +0.000 A 
ATOM      8  C   UNL     1       4.098   2.741  18.677  0.00  0.00    +0.000 A 
ATOM      9  C   UNL     1       3.621   4.051  18.499  0.00  0.00    +0.000 A 
ENDROOT
BRANCH   1  10
ATOM     10  C   UNL     1       5.681   5.482  18.386  0.00  0.00    +0.000 C 
BRANCH  10  11
ATOM     11  C   UNL     1       6.341   5.295  17.023  0.00  0.00    +0.000 C 
BRANCH  11  13
ATOM     12  C   UNL     1       7.468   7.299  17.515  0.00  0.00    +0.000 C 
ATOM     13  O   UNL     1       7.587   5.989  16.973  0.00  0.00    +0.000 OA
ENDBRANCH  11  13
ENDBRANCH  10  11
ENDBRANCH   1  10
BRANCH   2  14
ATOM     14  S   UNL     1       3.577   7.903  17.913  0.00  0.00    +0.000 S 
BRANCH  14  15
ATOM     15  C   UNL     1       1.903   8.540  17.581  0.00  0.00    +0.000 C 
BRANCH  15  16
ATOM     16  C   UNL     1       1.270   9.062  18.847  0.00  0.00    +0.000 A 
ATOM     17  N   UNL     1       1.439   8.538  20.046  0.00  0.00    +0.000 NA
ATOM     18  C   UNL     1       0.714   9.258  20.990  0.00  0.00    +0.000 A 
ATOM     19  C   UNL     1       0.658   8.992  22.376  0.00  0.00    +0.000 A 
ATOM     20  C   UNL     1      -0.113   9.806  23.215  0.00  0.00    +0.000 A 
ATOM     21  C   UNL     1      -0.829  10.877  22.692  0.00  0.00    +0.000 A 
ATOM     22  C   UNL     1      -0.794  11.159  21.322  0.00  0.00    +0.000 A 
ATOM     23  C   UNL     1      -0.017  10.336  20.487  0.00  0.00    +0.000 A 
ATOM     24  S   UNL     1       0.220  10.426  18.785  0.00  0.00    +0.000 S 
ENDBRANCH  15  16
ENDBRANCH  14  15
ENDBRANCH   2  14
TORSDOF 6
ENDMDL
MODEL 7
REMARK VINA RESULT:      -6.8      2.596      8.205
REMARK  Name = 
REMARK  7 active torsions:
REMARK  status: ('A' for Active; 'I' for Inactive)
REMARK    1  A    between atoms: C_1  and  O_2
REMARK    2  A    between atoms: O_2  and  C_3
REMARK    3  A    between atoms: C_3  and  C_4
REMARK    4  A    between atoms: C_4  and  N_5
REMARK    5  A    between atoms: C_6  and  S_7
REMARK    6  A    between atoms: S_7  and  C_8
REMARK    7  A    between atoms: C_8  and  C_9
REMARK                            x       y       z     vdW  Elec       q    Type
REMARK                         _______ _______ _______ _____ _____    ______ ____
ROOT
ATOM      1  N   UNL     1       3.637   4.770  17.421  0.00  0.00    +0.000 N 
ATOM      2  C   UNL     1       3.757   5.989  18.051  0.00  0.00    +0.000 A 
ATOM      3  N   UNL     1       4.813   6.653  17.642  0.00  0.00    +0.000 NA
ATOM      4  C   UNL     1       5.436   5.821  16.741  0.00  0.00    +0.000 A 
ATOM      5  C   UNL     1       6.649   5.994  16.052  0.00  0.00    +0.000 A 
ATOM      6  C   UNL     1       7.096   4.984  15.192  0.00  0.00    +0.000 A 
ATOM      7  C   UNL     1       6.339   3.828  14.999  0.00  0.00    +0.000 A 
ATOM      8  C   UNL     1       5.129   3.635  15.676  0.00  0.00    +0.000 A 
ATOM      9  C   UNL     1       4.710   4.647  16.557  0.00  0.00    +0.000 A 
ENDROOT
BRANCH   1  10
ATOM     10  C   UNL     1       2.684   3.710  17.705  0.00  0.00    +0.000 C 
BRANCH  10  11
ATOM     11  C   UNL     1       3.170   2.625  18.662  0.00  0.00    +0.000 C 
BRANCH  11  13
ATOM     12  C   UNL     1       0.828   2.514  18.842  0.00  0.00    +0.000 C 
ATOM     13  O   UNL     1       2.068   2.047  19.361  0.00  0.00    +0.000 OA
ENDBRANCH  11  13
ENDBRANCH  10  11
ENDBRANCH   1  10
BRANCH   2  14
ATOM     14  S   UNL     1       2.709   6.515  19.330  0.00  0.00    +0.000 S 
BRANCH  14  15
ATOM     15  C   UNL     1       2.091   8.095  18.665  0.00  0.00    +0.000 C 
BRANCH  15  16
ATOM     16  C   UNL     1       1.284   8.832  19.705  0.00  0.00    +0.000 A 
ATOM     17  N   UNL     1       0.717  10.009  19.524  0.00  0.00    +0.000 NA
ATOM     18  C   UNL     1       0.053  10.405  20.680  0.00  0.00    +0.000 A 
ATOM     19  C   UNL     1      -0.672  11.604  20.855  0.00  0.00    +0.000 A 
ATOM     20  C   UNL     1      -1.298  11.872  22.078  0.00  0.00    +0.000 A 
ATOM     21  C   UNL     1      -1.209  10.964  23.128  0.00  0.00    +0.000 A 
ATOM     22  C   UNL     1      -0.494   9.771  22.982  0.00  0.00    +0.000 A 
ATOM     23  C   UNL     1       0.131   9.509  21.749  0.00  0.00    +0.000 A 
ATOM     24  S   UNL     1       1.072   8.149  21.272  0.00  0.00    +0.000 S 
ENDBRANCH  15  16
ENDBRANCH  14  15
ENDBRANCH   2  14
TORSDOF 6
ENDMDL
MODEL 8
REMARK VINA RESULT:      -6.8      2.640      8.153
REMARK  Name = 
REMARK  7 active torsions:
REMARK  status: ('A' for Active; 'I' for Inactive)
REMARK    1  A    between atoms: C_1  and  O_2
REMARK    2  A    between atoms: O_2  and  C_3
REMARK    3  A    between atoms: C_3  and  C_4
REMARK    4  A    between atoms: C_4  and  N_5
REMARK    5  A    between atoms: C_6  and  S_7
REMARK    6  A    between atoms: S_7  and  C_8
REMARK    7  A    between atoms: C_8  and  C_9
REMARK                            x       y       z     vdW  Elec       q    Type
REMARK                         _______ _______ _______ _____ _____    ______ ____
ROOT
ATOM      1  N   UNL     1       3.564   4.869  17.432  0.00  0.00    +0.000 N 
ATOM      2  C   UNL     1       3.708   6.078  18.078  0.00  0.00    +0.000 A 
ATOM      3  N   UNL     1       4.829   6.679  17.754  0.00  0.00    +0.000 NA
ATOM      4  C   UNL     1       5.468   5.815  16.896  0.00  0.00    +0.000 A 
ATOM      5  C   UNL     1       6.738   5.918  16.301  0.00  0.00    +0.000 A 
ATOM      6  C   UNL     1       7.187   4.886  15.469  0.00  0.00    +0.000 A 
ATOM      7  C   UNL     1       6.381   3.777  15.211  0.00  0.00    +0.000 A 
ATOM      8  C   UNL     1       5.114   3.654  15.795  0.00  0.00    +0.000 A 
ATOM      9  C   UNL     1       4.690   4.686  16.650  0.00  0.00    +0.000 A 
ENDROOT
BRANCH   1  10
ATOM     10  C   UNL     1       2.532   3.866  17.636  0.00  0.00    +0.000 C 
BRANCH  10  11
ATOM     11  C   UNL     1       2.718   2.969  18.856  0.00  0.00    +0.000 C 
BRANCH  11  13
ATOM     12  C   UNL     1       1.445   2.886  20.832  0.00  0.00    +0.000 C 
ATOM     13  O   UNL     1       1.453   2.641  19.430  0.00  0.00    +0.000 OA
ENDBRANCH  11  13
ENDBRANCH  10  11
ENDBRANCH   1  10
BRANCH   2  14
ATOM     14  S   UNL     1       2.600   6.661  19.279  0.00  0.00    +0.000 S 
BRANCH  14  15
ATOM     15  C   UNL     1       2.144   8.286  18.592  0.00  0.00    +0.000 C 
BRANCH  15  16
ATOM     16  C   UNL     1       1.334   9.078  19.589  0.00  0.00    +0.000 A 
ATOM     17  N   UNL     1       0.902   8.616  20.746  0.00  0.00    +0.000 NA
ATOM     18  C   UNL     1       0.186   9.601  21.418  0.00  0.00    +0.000 A 
ATOM     19  C   UNL     1      -0.421   9.470  22.686  0.00  0.00    +0.000 A 
ATOM     20  C   UNL     1      -1.110  10.551  23.249  0.00  0.00    +0.000 A 
ATOM     21  C   UNL     1      -1.204  11.758  22.564  0.00  0.00    +0.000 A 
ATOM     22  C   UNL     1      -0.616  11.913  21.305  0.00  0.00    +0.000 A 
ATOM     23  C   UNL     1       0.075  10.821  20.748  0.00  0.00    +0.000 A 
ATOM     24  S   UNL     1       0.889  10.705  19.236  0.00  0.00    +0.000 S 
ENDBRANCH  15  16
ENDBRANCH  14  15
ENDBRANCH   2  14
TORSDOF 6
ENDMDL
MODEL 9
REMARK VINA RESULT:      -6.7      2.161      4.118
REMARK  Name = 
REMARK  7 active torsions:
REMARK  status: ('A' for Active; 'I' for Inactive)
REMARK    1  A    between atoms: C_1  and  O_2
REMARK    2  A    between atoms: O_2  and  C_3
REMARK    3  A    between atoms: C_3  and  C_4
REMARK    4  A    between atoms: C_4  and  N_5
REMARK    5  A    between atoms: C_6  and  S_7
REMARK    6  A    between atoms: S_7  and  C_8
REMARK    7  A    between atoms: C_8  and  C_9
REMARK                            x       y       z     vdW  Elec       q    Type
REMARK                         _______ _______ _______ _____ _____    ______ ____
ROOT
ATOM      1  N   UNL     1       3.877   5.220  19.121  0.00  0.00    +0.000 N 
ATOM      2  C   UNL     1       5.082   4.566  18.984  0.00  0.00    +0.000 A 
ATOM      3  N   UNL     1       4.937   3.261  18.995  0.00  0.00    +0.000 NA
ATOM      4  C   UNL     1       3.593   3.047  19.193  0.00  0.00    +0.000 A 
ATOM      5  C   UNL     1       2.892   1.841  19.362  0.00  0.00    +0.000 A 
ATOM      6  C   UNL     1       1.509   1.878  19.573  0.00  0.00    +0.000 A 
ATOM      7  C   UNL     1       0.825   3.093  19.593  0.00  0.00    +0.000 A 
ATOM      8  C   UNL     1       1.504   4.307  19.428  0.00  0.00    +0.000 A 
ATOM      9  C   UNL     1       2.896   4.252  19.246  0.00  0.00    +0.000 A 
ENDROOT
BRANCH   1  10
ATOM     10  C   UNL     1       3.651   6.646  19.287  0.00  0.00    +0.000 C 
BRANCH  10  11
ATOM     11  C   UNL     1       2.805   7.310  18.204  0.00  0.00    +0.000 C 
BRANCH  11  13
ATOM     12  C   UNL     1       1.834   9.426  17.867  0.00  0.00    +0.000 C 
ATOM     13  O   UNL     1       1.988   8.335  18.769  0.00  0.00    +0.000 OA
ENDBRANCH  11  13
ENDBRANCH  10  11
ENDBRANCH   1  10
BRANCH   2  14
ATOM     14  S   UNL     1       6.614   5.378  18.938  0.00  0.00    +0.000 S 
BRANCH  14  15
ATOM     15  C   UNL     1       6.374   6.528  17.545  0.00  0.00    +0.000 C 
BRANCH  15  16
ATOM     16  C   UNL     1       6.334   5.779  16.236  0.00  0.00    +0.000 A 
ATOM     17  N   UNL     1       7.305   5.769  15.344  0.00  0.00    +0.000 NA
ATOM     18  C   UNL     1       6.946   4.985  14.252  0.00  0.00    +0.000 A 
ATOM     19  C   UNL     1       7.736   4.739  13.108  0.00  0.00    +0.000 A 
ATOM     20  C   UNL     1       7.247   3.922  12.082  0.00  0.00    +0.000 A 
ATOM     21  C   UNL     1       5.983   3.351  12.179  0.00  0.00    +0.000 A 
ATOM     22  C   UNL     1       5.178   3.583  13.300  0.00  0.00    +0.000 A 
ATOM     23  C   UNL     1       5.678   4.405  14.326  0.00  0.00    +0.000 A 
ATOM     24  S   UNL     1       4.934   4.872  15.806  0.00  0.00    +0.000 S 
ENDBRANCH  15  16
ENDBRANCH  14  15
ENDBRANCH   2  14
TORSDOF 6
ENDMDL
