MODEL 1
REMARK VINA RESULT:      -8.4      0.000      0.000
REMARK  Name = 
REMARK  14 active torsions:
REMARK  status: ('A' for Active; 'I' for Inactive)
REMARK    1  A    between atoms: C_1  and  O_2
REMARK    2  A    between atoms: O_2  and  C_3
REMARK    3  A    between atoms: C_3  and  C_5
REMARK    4  A    between atoms: C_5  and  C_6
REMARK    5  A    between atoms: C_5  and  N_21
REMARK    6  A    between atoms: C_6  and  C_7
REMARK    7  A    between atoms: C_10  and  O_11
REMARK    8  A    between atoms: O_11  and  C_12
REMARK    9  A    between atoms: C_12  and  C_13
REMARK   10  A    between atoms: N_21  and  C_22
REMARK   11  A    between atoms: C_27  and  C_28
REMARK   12  A    between atoms: C_28  and  O_30
REMARK   13  A    between atoms: O_30  and  C_31
REMARK   14  A    between atoms: C_31  and  C_32
REMARK                            x       y       z     vdW  Elec       q    Type
REMARK                         _______ _______ _______ _____ _____    ______ ____
ROOT
ATOM      1  C   UNL     1       3.475   4.842  18.709  0.00  0.00    +0.000 C 
ENDROOT
BRANCH   1   2
ATOM      2  C   UNL     1       2.062   4.294  18.473  0.00  0.00    +0.000 C 
ATOM      3  O   UNL     1       1.494   4.215  17.390  0.00  0.00    +0.000 OA
BRANCH   2   5
ATOM      4  C   UNL     1       0.643   2.869  19.708  0.00  0.00    +0.000 C 
ATOM      5  O   UNL     1       1.506   3.998  19.680  0.00  0.00    +0.000 OA
ENDBRANCH   2   5
ENDBRANCH   1   2
BRANCH   1   6
ATOM      6  N   UNL     1       4.525   3.908  18.225  0.00  0.00    +0.000 N 
ATOM      7  H   UNL     1       5.008   3.541  19.052  0.00  0.00    +0.000 HD
BRANCH   6   8
ATOM      8  C   UNL     1       5.470   4.307  17.251  0.00  0.00    +0.000 A 
ATOM      9  C   UNL     1       5.014   3.955  15.942  0.00  0.00    +0.000 A 
ATOM     10  C   UNL     1       5.766   4.175  14.789  0.00  0.00    +0.000 A 
ATOM     11  C   UNL     1       6.999   4.776  14.913  0.00  0.00    +0.000 A 
ATOM     12  C   UNL     1       7.448   5.213  16.169  0.00  0.00    +0.000 A 
ATOM     13  C   UNL     1       6.706   5.040  17.366  0.00  0.00    +0.000 A 
BRANCH  13  14
ATOM     14  C   UNL     1       7.294   5.795  18.593  0.00  0.00    +0.000 C 
ATOM     15  O   UNL     1       6.983   5.551  19.748  0.00  0.00    +0.000 OA
BRANCH  14  16
ATOM     16  O   UNL     1       8.142   6.844  18.246  0.00  0.00    +0.000 OA
BRANCH  16  17
ATOM     17  C   UNL     1       7.604   8.111  17.696  0.00  0.00    +0.000 C 
BRANCH  17  18
ATOM     18  C   UNL     1       8.284   9.423  18.126  0.00  0.00    +0.000 A 
ATOM     19  C   UNL     1       9.190   9.494  19.198  0.00  0.00    +0.000 A 
ATOM     20  C   UNL     1       9.787  10.711  19.582  0.00  0.00    +0.000 A 
ATOM     21  C   UNL     1       9.498  11.903  18.912  0.00  0.00    +0.000 A 
ATOM     22  C   UNL     1       8.606  11.869  17.842  0.00  0.00    +0.000 A 
ATOM     23  C   UNL     1       8.011  10.654  17.452  0.00  0.00    +0.000 A 
ENDBRANCH  17  18
ENDBRANCH  16  17
ENDBRANCH  14  16
ENDBRANCH  13  14
ENDBRANCH   6   8
ENDBRANCH   1   6
BRANCH   1  24
ATOM     24  C   UNL     1       3.496   6.211  17.956  0.00  0.00    +0.000 C 
BRANCH  24  25
ATOM     25  C   UNL     1       2.588   7.336  18.414  0.00  0.00    +0.000 A 
ATOM     26  C   UNL     1       2.144   8.340  17.555  0.00  0.00    +0.000 A 
ATOM     27  C   UNL     1       1.406   9.416  18.043  0.00  0.00    +0.000 A 
ATOM     28  C   UNL     1       1.068   9.506  19.394  0.00  0.00    +0.000 A 
ATOM     29  C   UNL     1       1.438   8.478  20.254  0.00  0.00    +0.000 A 
ATOM     30  C   UNL     1       2.188   7.396  19.763  0.00  0.00    +0.000 A 
BRANCH  28  31
ATOM     31  O   UNL     1       0.461  10.676  19.733  0.00  0.00    +0.000 OA
BRANCH  31  32
ATOM     32  C   UNL     1       1.154  11.576  20.591  0.00  0.00    +0.000 C 
BRANCH  32  33
ATOM     33  C   UNL     1       1.262  12.929  19.910  0.00  0.00    +0.000 A 
ATOM     34  C   UNL     1       0.191  13.838  19.897  0.00  0.00    +0.000 A 
ATOM     35  C   UNL     1       0.313  15.080  19.272  0.00  0.00    +0.000 A 
ATOM     36  C   UNL     1       1.512  15.439  18.664  0.00  0.00    +0.000 A 
ATOM     37  C   UNL     1       2.591  14.556  18.683  0.00  0.00    +0.000 A 
ATOM     38  C   UNL     1       2.469  13.312  19.306  0.00  0.00    +0.000 A 
ENDBRANCH  32  33
ENDBRANCH  31  32
ENDBRANCH  28  31
ENDBRANCH  24  25
ENDBRANCH   1  24
TORSDOF 13
ENDMDL
MODEL 2
REMARK VINA RESULT:      -8.4      1.978      2.670
REMARK  Name = 
REMARK  14 active torsions:
REMARK  status: ('A' for Active; 'I' for Inactive)
REMARK    1  A    between atoms: C_1  and  O_2
REMARK    2  A    between atoms: O_2  and  C_3
REMARK    3  A    between atoms: C_3  and  C_5
REMARK    4  A    between atoms: C_5  and  C_6
REMARK    5  A    between atoms: C_5  and  N_21
REMARK    6  A    between atoms: C_6  and  C_7
REMARK    7  A    between atoms: C_10  and  O_11
REMARK    8  A    between atoms: O_11  and  C_12
REMARK    9  A    between atoms: C_12  and  C_13
REMARK   10  A    between atoms: N_21  and  C_22
REMARK   11  A    between atoms: C_27  and  C_28
REMARK   12  A    between atoms: C_28  and  O_30
REMARK   13  A    between atoms: O_30  and  C_31
REMARK   14  A    between atoms: C_31  and  C_32
REMARK                            x       y       z     vdW  Elec       q    Type
REMARK                         _______ _______ _______ _____ _____    ______ ____
ROOT
ATOM      1  C   UNL     1       3.644   5.083  19.105  0.00  0.00    +0.000 C 
ENDROOT
BRANCH   1   2
ATOM      2  C   UNL     1       2.566   4.116  18.598  0.00  0.00    +0.000 C 
ATOM      3  O   UNL     1       1.679   4.386  17.798  0.00  0.00    +0.000 OA
BRANCH   2   5
ATOM      4  C   UNL     1       1.559   2.484  19.974  0.00  0.00    +0.000 C 
ATOM      5  O   UNL     1       2.702   2.933  19.259  0.00  0.00    +0.000 OA
ENDBRANCH   2   5
ENDBRANCH   1   2
BRANCH   1   6
ATOM      6  N   UNL     1       4.197   5.926  18.012  0.00  0.00    +0.000 N 
ATOM      7  H   UNL     1       3.414   6.174  17.397  0.00  0.00    +0.000 HD
BRANCH   6   8
ATOM      8  C   UNL     1       5.302   5.497  17.242  0.00  0.00    +0.000 A 
ATOM      9  C   UNL     1       4.886   5.165  15.914  0.00  0.00    +0.000 A 
ATOM     10  C   UNL     1       5.753   4.659  14.948  0.00  0.00    +0.000 A 
ATOM     11  C   UNL     1       7.079   4.485  15.281  0.00  0.00    +0.000 A 
ATOM     12  C   UNL     1       7.546   4.877  16.545  0.00  0.00    +0.000 A 
ATOM     13  C   UNL     1       6.709   5.426  17.551  0.00  0.00    +0.000 A 
BRANCH  13  14
ATOM     14  C   UNL     1       7.478   5.987  18.781  0.00  0.00    +0.000 C 
ATOM     15  O   UNL     1       7.298   5.598  19.924  0.00  0.00    +0.000 OA
BRANCH  14  16
ATOM     16  O   UNL     1       8.328   7.046  18.470  0.00  0.00    +0.000 OA
BRANCH  16  17
ATOM     17  C   UNL     1       7.794   8.320  17.931  0.00  0.00    +0.000 C 
BRANCH  17  18
ATOM     18  C   UNL     1       8.506   9.622  18.339  0.00  0.00    +0.000 A 
ATOM     19  C   UNL     1       8.555  10.755  17.508  0.00  0.00    +0.000 A 
ATOM     20  C   UNL     1       9.228  11.929  17.897  0.00  0.00    +0.000 A 
ATOM     21  C   UNL     1       9.880  12.016  19.129  0.00  0.00    +0.000 A 
ATOM     22  C   UNL     1       9.849  10.913  19.981  0.00  0.00    +0.000 A 
ATOM     23  C   UNL     1       9.174   9.739  19.597  0.00  0.00    +0.000 A 
ENDBRANCH  17  18
ENDBRANCH  16  17
ENDBRANCH  14  16
ENDBRANCH  13  14
ENDBRANCH   6   8
ENDBRANCH   1   6
BRANCH   1  24
ATOM     24  C   UNL     1       2.929   5.925  20.209  0.00  0.00    +0.000 C 
BRANCH  24  25
ATOM     25  C   UNL     1       2.185   7.191  19.827  0.00  0.00    +0.000 A 
ATOM     26  C   UNL     1       2.259   7.750  18.552  0.00  0.00    +0.000 A 
ATOM     27  C   UNL     1       1.652   8.974  18.279  0.00  0.00    +0.000 A 
ATOM     28  C   UNL     1       0.934   9.659  19.260  0.00  0.00    +0.000 A 
ATOM     29  C   UNL     1       0.787   9.084  20.517  0.00  0.00    +0.000 A 
ATOM     30  C   UNL     1       1.404   7.852  20.795  0.00  0.00    +0.000 A 
BRANCH  28  31
ATOM     31  O   UNL     1       0.516  10.895  18.873  0.00  0.00    +0.000 OA
BRANCH  31  32
ATOM     32  C   UNL     1      -0.713  11.389  19.396  0.00  0.00    +0.000 C 
BRANCH  32  33
ATOM     33  C   UNL     1      -1.829  11.092  18.410  0.00  0.00    +0.000 A 
ATOM     34  C   UNL     1      -3.091  11.699  18.517  0.00  0.00    +0.000 A 
ATOM     35  C   UNL     1      -4.102  11.417  17.595  0.00  0.00    +0.000 A 
ATOM     36  C   UNL     1      -3.861  10.537  16.544  0.00  0.00    +0.000 A 
ATOM     37  C   UNL     1      -2.608   9.941  16.412  0.00  0.00    +0.000 A 
ATOM     38  C   UNL     1      -1.597  10.219  17.336  0.00  0.00    +0.000 A 
ENDBRANCH  32  33
ENDBRANCH  31  32
ENDBRANCH  28  31
ENDBRANCH  24  25
ENDBRANCH   1  24
TORSDOF 13
ENDMDL
MODEL 3
REMARK VINA RESULT:      -8.3      1.899      2.507
REMARK  Name = 
REMARK  14 active torsions:
REMARK  status: ('A' for Active; 'I' for Inactive)
REMARK    1  A    between atoms: C_1  and  O_2
REMARK    2  A    between atoms: O_2  and  C_3
REMARK    3  A    between atoms: C_3  and  C_5
REMARK    4  A    between atoms: C_5  and  C_6
REMARK    5  A    between atoms: C_5  and  N_21
REMARK    6  A    between atoms: C_6  and  C_7
REMARK    7  A    between atoms: C_10  and  O_11
REMARK    8  A    between atoms: O_11  and  C_12
REMARK    9  A    between atoms: C_12  and  C_13
REMARK   10  A    between atoms: N_21  and  C_22
REMARK   11  A    between atoms: C_27  and  C_28
REMARK   12  A    between atoms: C_28  and  O_30
REMARK   13  A    between atoms: O_30  and  C_31
REMARK   14  A    between atoms: C_31  and  C_32
REMARK                            x       y       z     vdW  Elec       q    Type
REMARK                         _______ _______ _______ _____ _____    ______ ____
ROOT
ATOM      1  C   UNL     1       3.391   5.276  19.519  0.00  0.00    +0.000 C 
ENDROOT
BRANCH   1   2
ATOM      2  C   UNL     1       2.082   4.476  19.543  0.00  0.00    +0.000 C 
ATOM      3  O   UNL     1       1.181   4.600  20.363  0.00  0.00    +0.000 OA
BRANCH   2   5
ATOM      4  C   UNL     1       1.635   2.250  18.898  0.00  0.00    +0.000 C 
ATOM      5  O   UNL     1       2.131   3.538  18.558  0.00  0.00    +0.000 OA
ENDBRANCH   2   5
ENDBRANCH   1   2
BRANCH   1   6
ATOM      6  N   UNL     1       4.564   4.421  19.195  0.00  0.00    +0.000 N 
ATOM      7  H   UNL     1       5.128   4.347  20.048  0.00  0.00    +0.000 HD
BRANCH   6   8
ATOM      8  C   UNL     1       5.396   4.706  18.087  0.00  0.00    +0.000 A 
ATOM      9  C   UNL     1       4.705   4.438  16.864  0.00  0.00    +0.000 A 
ATOM     10  C   UNL     1       5.297   4.574  15.609  0.00  0.00    +0.000 A 
ATOM     11  C   UNL     1       6.604   5.003  15.543  0.00  0.00    +0.000 A 
ATOM     12  C   UNL     1       7.292   5.357  16.714  0.00  0.00    +0.000 A 
ATOM     13  C   UNL     1       6.722   5.266  18.011  0.00  0.00    +0.000 A 
BRANCH  13  14
ATOM     14  C   UNL     1       7.584   5.916  19.130  0.00  0.00    +0.000 C 
ATOM     15  O   UNL     1       7.504   5.607  20.309  0.00  0.00    +0.000 OA
BRANCH  14  16
ATOM     16  O   UNL     1       8.393   6.954  18.677  0.00  0.00    +0.000 OA
BRANCH  16  17
ATOM     17  C   UNL     1       7.812   8.126  17.979  0.00  0.00    +0.000 C 
BRANCH  17  18
ATOM     18  C   UNL     1       8.423   9.508  18.271  0.00  0.00    +0.000 A 
ATOM     19  C   UNL     1       8.158  10.640  17.481  0.00  0.00    +0.000 A 
ATOM     20  C   UNL     1       8.743  11.890  17.759  0.00  0.00    +0.000 A 
ATOM     21  C   UNL     1       9.617  12.057  18.836  0.00  0.00    +0.000 A 
ATOM     22  C   UNL     1       9.901  10.957  19.644  0.00  0.00    +0.000 A 
ATOM     23  C   UNL     1       9.314   9.706  19.371  0.00  0.00    +0.000 A 
ENDBRANCH  17  18
ENDBRANCH  16  17
ENDBRANCH  14  16
ENDBRANCH  13  14
ENDBRANCH   6   8
ENDBRANCH   1   6
BRANCH   1  24
ATOM     24  C   UNL     1       3.150   6.392  18.453  0.00  0.00    +0.000 C 
BRANCH  24  25
ATOM     25  C   UNL     1       2.282   7.587  18.798  0.00  0.00    +0.000 A 
ATOM     26  C   UNL     1       1.904   8.539  17.852  0.00  0.00    +0.000 A 
ATOM     27  C   UNL     1       1.203   9.681  18.235  0.00  0.00    +0.000 A 
ATOM     28  C   UNL     1       0.837   9.890  19.565  0.00  0.00    +0.000 A 
ATOM     29  C   UNL     1       1.140   8.918  20.512  0.00  0.00    +0.000 A 
ATOM     30  C   UNL     1       1.852   7.770  20.127  0.00  0.00    +0.000 A 
BRANCH  28  31
ATOM     31  O   UNL     1       0.275  11.108  19.796  0.00  0.00    +0.000 OA
BRANCH  31  32
ATOM     32  C   UNL     1      -0.134  11.889  18.677  0.00  0.00    +0.000 C 
BRANCH  32  33
ATOM     33  C   UNL     1      -1.641  11.791  18.526  0.00  0.00    +0.000 A 
ATOM     34  C   UNL     1      -2.517  12.299  19.501  0.00  0.00    +0.000 A 
ATOM     35  C   UNL     1      -3.901  12.205  19.339  0.00  0.00    +0.000 A 
ATOM     36  C   UNL     1      -4.431  11.616  18.195  0.00  0.00    +0.000 A 
ATOM     37  C   UNL     1      -3.576  11.124  17.210  0.00  0.00    +0.000 A 
ATOM     38  C   UNL     1      -2.191  11.214  17.371  0.00  0.00    +0.000 A 
ENDBRANCH  32  33
ENDBRANCH  31  32
ENDBRANCH  28  31
ENDBRANCH  24  25
ENDBRANCH   1  24
TORSDOF 13
ENDMDL
MODEL 4
REMARK VINA RESULT:      -8.3      2.340      5.214
REMARK  Name = 
REMARK  14 active torsions:
REMARK  status: ('A' for Active; 'I' for Inactive)
REMARK    1  A    between atoms: C_1  and  O_2
REMARK    2  A    between atoms: O_2  and  C_3
REMARK    3  A    between atoms: C_3  and  C_5
REMARK    4  A    between atoms: C_5  and  C_6
REMARK    5  A    between atoms: C_5  and  N_21
REMARK    6  A    between atoms: C_6  and  C_7
REMARK    7  A    between atoms: C_10  and  O_11
REMARK    8  A    between atoms: O_11  and  C_12
REMARK    9  A    between atoms: C_12  and  C_13
REMARK   10  A    between atoms: N_21  and  C_22
REMARK   11  A    between atoms: C_27  and  C_28
REMARK   12  A    between atoms: C_28  and  O_30
REMARK   13  A    between atoms: O_30  and  C_31
REMARK   14  A    between atoms: C_31  and  C_32
REMARK                            x       y       z     vdW  Elec       q    Type
REMARK                         _______ _______ _______ _____ _____    ______ ____
ROOT
ATOM      1  C   UNL     1       3.747   4.232  18.600  0.00  0.00    +0.000 C 
ENDROOT
BRANCH   1   2
ATOM      2  C   UNL     1       2.880   3.043  18.168  0.00  0.00    +0.000 C 
ATOM      3  O   UNL     1       2.272   2.945  17.109  0.00  0.00    +0.000 OA
BRANCH   2   5
ATOM      4  C   UNL     1       2.501   2.698  20.472  0.00  0.00    +0.000 C 
ATOM      5  O   UNL     1       2.820   2.155  19.198  0.00  0.00    +0.000 OA
ENDBRANCH   2   5
ENDBRANCH   1   2
BRANCH   1   6
ATOM      6  N   UNL     1       5.188   4.007  18.312  0.00  0.00    +0.000 N 
ATOM      7  H   UNL     1       5.549   3.387  19.045  0.00  0.00    +0.000 HD
BRANCH   6   8
ATOM      8  C   UNL     1       6.076   5.091  18.114  0.00  0.00    +0.000 A 
ATOM      9  C   UNL     1       7.007   5.176  19.197  0.00  0.00    +0.000 A 
ATOM     10  C   UNL     1       7.966   6.182  19.299  0.00  0.00    +0.000 A 
ATOM     11  C   UNL     1       8.032   7.131  18.302  0.00  0.00    +0.000 A 
ATOM     12  C   UNL     1       7.192   7.036  17.181  0.00  0.00    +0.000 A 
ATOM     13  C   UNL     1       6.223   6.013  17.016  0.00  0.00    +0.000 A 
BRANCH  13  14
ATOM     14  C   UNL     1       5.567   5.980  15.606  0.00  0.00    +0.000 C 
ATOM     15  O   UNL     1       5.090   6.963  15.061  0.00  0.00    +0.000 OA
BRANCH  14  16
ATOM     16  O   UNL     1       5.488   4.703  15.058  0.00  0.00    +0.000 OA
BRANCH  16  17
ATOM     17  C   UNL     1       6.426   4.269  13.995  0.00  0.00    +0.000 C 
BRANCH  17  18
ATOM     18  C   UNL     1       5.846   3.480  12.807  0.00  0.00    +0.000 A 
ATOM     19  C   UNL     1       6.558   2.464  12.148  0.00  0.00    +0.000 A 
ATOM     20  C   UNL     1       6.011   1.769  11.052  0.00  0.00    +0.000 A 
ATOM     21  C   UNL     1       4.733   2.064  10.572  0.00  0.00    +0.000 A 
ATOM     22  C   UNL     1       3.995   3.065  11.204  0.00  0.00    +0.000 A 
ATOM     23  C   UNL     1       4.538   3.758  12.303  0.00  0.00    +0.000 A 
ENDBRANCH  17  18
ENDBRANCH  16  17
ENDBRANCH  14  16
ENDBRANCH  13  14
ENDBRANCH   6   8
ENDBRANCH   1   6
BRANCH   1  24
ATOM     24  C   UNL     1       3.162   5.450  17.815  0.00  0.00    +0.000 C 
BRANCH  24  25
ATOM     25  C   UNL     1       2.608   6.639  18.575  0.00  0.00    +0.000 A 
ATOM     26  C   UNL     1       2.289   6.582  19.931  0.00  0.00    +0.000 A 
ATOM     27  C   UNL     1       1.676   7.663  20.561  0.00  0.00    +0.000 A 
ATOM     28  C   UNL     1       1.390   8.838  19.865  0.00  0.00    +0.000 A 
ATOM     29  C   UNL     1       1.767   8.943  18.531  0.00  0.00    +0.000 A 
ATOM     30  C   UNL     1       2.380   7.850  17.894  0.00  0.00    +0.000 A 
BRANCH  28  31
ATOM     31  O   UNL     1       0.677   9.745  20.586  0.00  0.00    +0.000 OA
BRANCH  31  32
ATOM     32  C   UNL     1      -0.559  10.213  20.055  0.00  0.00    +0.000 C 
BRANCH  32  33
ATOM     33  C   UNL     1      -0.480  11.716  19.861  0.00  0.00    +0.000 A 
ATOM     34  C   UNL     1      -0.583  12.607  20.942  0.00  0.00    +0.000 A 
ATOM     35  C   UNL     1      -0.501  13.987  20.743  0.00  0.00    +0.000 A 
ATOM     36  C   UNL     1      -0.299  14.496  19.464  0.00  0.00    +0.000 A 
ATOM     37  C   UNL     1      -0.175  13.625  18.383  0.00  0.00    +0.000 A 
ATOM     38  C   UNL     1      -0.261  12.244  18.580  0.00  0.00    +0.000 A 
ENDBRANCH  32  33
ENDBRANCH  31  32
ENDBRANCH  28  31
ENDBRANCH  24  25
ENDBRANCH   1  24
TORSDOF 13
ENDMDL
MODEL 5
REMARK VINA RESULT:      -8.3      2.683      5.502
REMARK  Name = 
REMARK  14 active torsions:
REMARK  status: ('A' for Active; 'I' for Inactive)
REMARK    1  A    between atoms: C_1  and  O_2
REMARK    2  A    between atoms: O_2  and  C_3
REMARK    3  A    between atoms: C_3  and  C_5
REMARK    4  A    between atoms: C_5  and  C_6
REMARK    5  A    between atoms: C_5  and  N_21
REMARK    6  A    between atoms: C_6  and  C_7
REMARK    7  A    between atoms: C_10  and  O_11
REMARK    8  A    between atoms: O_11  and  C_12
REMARK    9  A    between atoms: C_12  and  C_13
REMARK   10  A    between atoms: N_21  and  C_22
REMARK   11  A    between atoms: C_27  and  C_28
REMARK   12  A    between atoms: C_28  and  O_30
REMARK   13  A    between atoms: O_30  and  C_31
REMARK   14  A    between atoms: C_31  and  C_32
REMARK                            x       y       z     vdW  Elec       q    Type
REMARK                         _______ _______ _______ _____ _____    ______ ____
ROOT
ATOM      1  C   UNL     1       4.336   3.677  18.860  0.00  0.00    +0.000 C 
ENDROOT
BRANCH   1   2
ATOM      2  C   UNL     1       3.656   2.312  18.693  0.00  0.00    +0.000 C 
ATOM      3  O   UNL     1       3.294   1.817  17.631  0.00  0.00    +0.000 OA
BRANCH   2   5
ATOM      4  C   UNL     1       3.307   2.719  20.990  0.00  0.00    +0.000 C 
ATOM      5  O   UNL     1       3.433   1.785  19.927  0.00  0.00    +0.000 OA
ENDBRANCH   2   5
ENDBRANCH   1   2
BRANCH   1   6
ATOM      6  N   UNL     1       5.779   3.630  18.505  0.00  0.00    +0.000 N 
ATOM      7  H   UNL     1       6.270   3.197  19.294  0.00  0.00    +0.000 HD
BRANCH   6   8
ATOM      8  C   UNL     1       6.469   4.791  18.082  0.00  0.00    +0.000 A 
ATOM      9  C   UNL     1       7.056   5.457  19.204  0.00  0.00    +0.000 A 
ATOM     10  C   UNL     1       7.751   6.660  19.096  0.00  0.00    +0.000 A 
ATOM     11  C   UNL     1       7.894   7.227  17.849  0.00  0.00    +0.000 A 
ATOM     12  C   UNL     1       7.406   6.565  16.712  0.00  0.00    +0.000 A 
ATOM     13  C   UNL     1       6.720   5.323  16.767  0.00  0.00    +0.000 A 
BRANCH  13  14
ATOM     14  C   UNL     1       6.469   4.675  15.375  0.00  0.00    +0.000 C 
ATOM     15  O   UNL     1       5.534   3.926  15.139  0.00  0.00    +0.000 OA
BRANCH  14  16
ATOM     16  O   UNL     1       7.466   4.953  14.444  0.00  0.00    +0.000 OA
BRANCH  16  17
ATOM     17  C   UNL     1       7.152   5.061  12.999  0.00  0.00    +0.000 C 
BRANCH  17  18
ATOM     18  C   UNL     1       6.675   3.789  12.274  0.00  0.00    +0.000 A 
ATOM     19  C   UNL     1       5.315   3.480  12.096  0.00  0.00    +0.000 A 
ATOM     20  C   UNL     1       4.904   2.301  11.444  0.00  0.00    +0.000 A 
ATOM     21  C   UNL     1       5.836   1.386  10.947  0.00  0.00    +0.000 A 
ATOM     22  C   UNL     1       7.193   1.662  11.103  0.00  0.00    +0.000 A 
ATOM     23  C   UNL     1       7.607   2.841  11.750  0.00  0.00    +0.000 A 
ENDBRANCH  17  18
ENDBRANCH  16  17
ENDBRANCH  14  16
ENDBRANCH  13  14
ENDBRANCH   6   8
ENDBRANCH   1   6
BRANCH   1  24
ATOM     24  C   UNL     1       3.522   4.639  17.937  0.00  0.00    +0.000 C 
BRANCH  24  25
ATOM     25  C   UNL     1       2.823   5.844  18.536  0.00  0.00    +0.000 A 
ATOM     26  C   UNL     1       2.795   7.087  17.903  0.00  0.00    +0.000 A 
ATOM     27  C   UNL     1       2.241   8.194  18.541  0.00  0.00    +0.000 A 
ATOM     28  C   UNL     1       1.676   8.088  19.813  0.00  0.00    +0.000 A 
ATOM     29  C   UNL     1       1.628   6.843  20.430  0.00  0.00    +0.000 A 
ATOM     30  C   UNL     1       2.192   5.727  19.790  0.00  0.00    +0.000 A 
BRANCH  28  31
ATOM     31  O   UNL     1       1.297   9.280  20.349  0.00  0.00    +0.000 OA
BRANCH  31  32
ATOM     32  C   UNL     1       1.118   9.364  21.759  0.00  0.00    +0.000 C 
BRANCH  32  33
ATOM     33  C   UNL     1       0.131  10.474  22.070  0.00  0.00    +0.000 A 
ATOM     34  C   UNL     1      -0.886  10.312  23.025  0.00  0.00    +0.000 A 
ATOM     35  C   UNL     1      -1.781  11.349  23.302  0.00  0.00    +0.000 A 
ATOM     36  C   UNL     1      -1.662  12.567  22.640  0.00  0.00    +0.000 A 
ATOM     37  C   UNL     1      -0.647  12.751  21.702  0.00  0.00    +0.000 A 
ATOM     38  C   UNL     1       0.246  11.713  21.422  0.00  0.00    +0.000 A 
ENDBRANCH  32  33
ENDBRANCH  31  32
ENDBRANCH  28  31
ENDBRANCH  24  25
ENDBRANCH   1  24
TORSDOF 13
ENDMDL
MODEL 6
REMARK VINA RESULT:      -8.3      2.611      5.439
REMARK  Name = 
REMARK  14 active torsions:
REMARK  status: ('A' for Active; 'I' for Inactive)
REMARK    1  A    between atoms: C_1  and  O_2
REMARK    2  A    between atoms: O_2  and  C_3
REMARK    3  A    between atoms: C_3  and  C_5
REMARK    4  A    between atoms: C_5  and  C_6
REMARK    5  A    between atoms: C_5  and  N_21
REMARK    6  A    between atoms: C_6  and  C_7
REMARK    7  A    between atoms: C_10  and  O_11
REMARK    8  A    between atoms: O_11  and  C_12
REMARK    9  A    between atoms: C_12  and  C_13
REMARK   10  A    between atoms: N_21  and  C_22
REMARK   11  A    between atoms: C_27  and  C_28
REMARK   12  A    between atoms: C_28  and  O_30
REMARK   13  A    between atoms: O_30  and  C_31
REMARK   14  A    between atoms: C_31  and  C_32
REMARK                            x       y       z     vdW  Elec       q    Type
REMARK                         _______ _______ _______ _____ _____    ______ ____
ROOT
ATOM      1  C   UNL     1       3.335   5.267  19.307  0.00  0.00    +0.000 C 
ENDROOT
BRANCH   1   2
ATOM      2  C   UNL     1       2.322   4.219  19.785  0.00  0.00    +0.000 C 
ATOM      3  O   UNL     1       1.344   4.437  20.491  0.00  0.00    +0.000 OA
BRANCH   2   5
ATOM      4  C   UNL     1       1.820   2.246  18.592  0.00  0.00    +0.000 C 
ATOM      5  O   UNL     1       2.743   2.991  19.375  0.00  0.00    +0.000 OA
ENDBRANCH   2   5
ENDBRANCH   1   2
BRANCH   1   6
ATOM      6  N   UNL     1       4.523   4.645  18.666  0.00  0.00    +0.000 N 
ATOM      7  H   UNL     1       4.762   3.813  19.217  0.00  0.00    +0.000 HD
BRANCH   6   8
ATOM      8  C   UNL     1       5.690   5.397  18.395  0.00  0.00    +0.000 A 
ATOM      9  C   UNL     1       6.608   5.305  19.489  0.00  0.00    +0.000 A 
ATOM     10  C   UNL     1       7.820   5.990  19.525  0.00  0.00    +0.000 A 
ATOM     11  C   UNL     1       8.161   6.782  18.450  0.00  0.00    +0.000 A 
ATOM     12  C   UNL     1       7.328   6.835  17.321  0.00  0.00    +0.000 A 
ATOM     13  C   UNL     1       6.100   6.130  17.224  0.00  0.00    +0.000 A 
BRANCH  13  14
ATOM     14  C   UNL     1       5.460   6.162  15.806  0.00  0.00    +0.000 C 
ATOM     15  O   UNL     1       4.848   7.121  15.364  0.00  0.00    +0.000 OA
BRANCH  14  16
ATOM     16  O   UNL     1       5.570   4.956  15.119  0.00  0.00    +0.000 OA
BRANCH  16  17
ATOM     17  C   UNL     1       6.522   4.803  13.993  0.00  0.00    +0.000 C 
BRANCH  17  18
ATOM     18  C   UNL     1       6.179   3.772  12.902  0.00  0.00    +0.000 A 
ATOM     19  C   UNL     1       7.143   2.931  12.320  0.00  0.00    +0.000 A 
ATOM     20  C   UNL     1       6.807   2.007  11.312  0.00  0.00    +0.000 A 
ATOM     21  C   UNL     1       5.496   1.890  10.845  0.00  0.00    +0.000 A 
ATOM     22  C   UNL     1       4.512   2.706  11.402  0.00  0.00    +0.000 A 
ATOM     23  C   UNL     1       4.844   3.627  12.413  0.00  0.00    +0.000 A 
ENDBRANCH  17  18
ENDBRANCH  16  17
ENDBRANCH  14  16
ENDBRANCH  13  14
ENDBRANCH   6   8
ENDBRANCH   1   6
BRANCH   1  24
ATOM     24  C   UNL     1       2.529   6.173  18.322  0.00  0.00    +0.000 C 
BRANCH  24  25
ATOM     25  C   UNL     1       2.054   7.540  18.775  0.00  0.00    +0.000 A 
ATOM     26  C   UNL     1       1.762   7.832  20.107  0.00  0.00    +0.000 A 
ATOM     27  C   UNL     1       1.221   9.066  20.460  0.00  0.00    +0.000 A 
ATOM     28  C   UNL     1       0.981  10.050  19.500  0.00  0.00    +0.000 A 
ATOM     29  C   UNL     1       1.333   9.807  18.178  0.00  0.00    +0.000 A 
ATOM     30  C   UNL     1       1.874   8.560  17.820  0.00  0.00    +0.000 A 
BRANCH  28  31
ATOM     31  O   UNL     1       0.332  11.144  19.985  0.00  0.00    +0.000 OA
BRANCH  31  32
ATOM     32  C   UNL     1      -0.101  12.140  19.063  0.00  0.00    +0.000 C 
BRANCH  32  33
ATOM     33  C   UNL     1      -1.590  11.975  18.817  0.00  0.00    +0.000 A 
ATOM     34  C   UNL     1      -2.547  12.435  19.737  0.00  0.00    +0.000 A 
ATOM     35  C   UNL     1      -3.912  12.280  19.488  0.00  0.00    +0.000 A 
ATOM     36  C   UNL     1      -4.342  11.678  18.310  0.00  0.00    +0.000 A 
ATOM     37  C   UNL     1      -3.406  11.232  17.377  0.00  0.00    +0.000 A 
ATOM     38  C   UNL     1      -2.040  11.384  17.627  0.00  0.00    +0.000 A 
ENDBRANCH  32  33
ENDBRANCH  31  32
ENDBRANCH  28  31
ENDBRANCH  24  25
ENDBRANCH   1  24
TORSDOF 13
ENDMDL
MODEL 7
REMARK VINA RESULT:      -8.2      3.279      9.110
REMARK  Name = 
REMARK  14 active torsions:
REMARK  status: ('A' for Active; 'I' for Inactive)
REMARK    1  A    between atoms: C_1  and  O_2
REMARK    2  A    between atoms: O_2  and  C_3
REMARK    3  A    between atoms: C_3  and  C_5
REMARK    4  A    between atoms: C_5  and  C_6
REMARK    5  A    between atoms: C_5  and  N_21
REMARK    6  A    between atoms: C_6  and  C_7
REMARK    7  A    between atoms: C_10  and  O_11
REMARK    8  A    between atoms: O_11  and  C_12
REMARK    9  A    between atoms: C_12  and  C_13
REMARK   10  A    between atoms: N_21  and  C_22
REMARK   11  A    between atoms: C_27  and  C_28
REMARK   12  A    between atoms: C_28  and  O_30
REMARK   13  A    between atoms: O_30  and  C_31
REMARK   14  A    between atoms: C_31  and  C_32
REMARK                            x       y       z     vdW  Elec       q    Type
REMARK                         _______ _______ _______ _____ _____    ______ ____
ROOT
ATOM      1  C   UNL     1       2.345   5.558  19.893  0.00  0.00    +0.000 C 
ENDROOT
BRANCH   1   2
ATOM      2  C   UNL     1       1.830   4.317  20.632  0.00  0.00    +0.000 C 
ATOM      3  O   UNL     1       2.339   3.811  21.626  0.00  0.00    +0.000 OA
BRANCH   2   5
ATOM      4  C   UNL     1       1.081   2.927  18.879  0.00  0.00    +0.000 C 
ATOM      5  O   UNL     1       0.769   3.813  19.945  0.00  0.00    +0.000 OA
ENDBRANCH   2   5
ENDBRANCH   1   2
BRANCH   1   6
ATOM      6  N   UNL     1       2.183   6.797  20.699  0.00  0.00    +0.000 N 
ATOM      7  H   UNL     1       1.628   6.549  21.525  0.00  0.00    +0.000 HD
BRANCH   6   8
ATOM      8  C   UNL     1       1.686   7.988  20.122  0.00  0.00    +0.000 A 
ATOM      9  C   UNL     1       2.104   8.093  18.758  0.00  0.00    +0.000 A 
ATOM     10  C   UNL     1       1.809   9.192  17.953  0.00  0.00    +0.000 A 
ATOM     11  C   UNL     1       1.065  10.220  18.491  0.00  0.00    +0.000 A 
ATOM     12  C   UNL     1       0.563  10.119  19.798  0.00  0.00    +0.000 A 
ATOM     13  C   UNL     1       0.810   9.007  20.644  0.00  0.00    +0.000 A 
BRANCH  13  14
ATOM     14  C   UNL     1      -0.023   9.012  21.958  0.00  0.00    +0.000 C 
ATOM     15  O   UNL     1      -0.877   8.180  22.219  0.00  0.00    +0.000 OA
BRANCH  14  16
ATOM     16  O   UNL     1       0.229  10.114  22.772  0.00  0.00    +0.000 OA
BRANCH  16  17
ATOM     17  C   UNL     1      -0.847  11.077  23.109  0.00  0.00    +0.000 C 
BRANCH  17  18
ATOM     18  C   UNL     1      -1.085  12.250  22.141  0.00  0.00    +0.000 A 
ATOM     19  C   UNL     1      -0.171  13.306  21.986  0.00  0.00    +0.000 A 
ATOM     20  C   UNL     1      -0.420  14.377  21.106  0.00  0.00    +0.000 A 
ATOM     21  C   UNL     1      -1.594  14.435  20.350  0.00  0.00    +0.000 A 
ATOM     22  C   UNL     1      -2.522  13.402  20.476  0.00  0.00    +0.000 A 
ATOM     23  C   UNL     1      -2.274  12.328  21.351  0.00  0.00    +0.000 A 
ENDBRANCH  17  18
ENDBRANCH  16  17
ENDBRANCH  14  16
ENDBRANCH  13  14
ENDBRANCH   6   8
ENDBRANCH   1   6
BRANCH   1  24
ATOM     24  C   UNL     1       3.842   5.238  19.581  0.00  0.00    +0.000 C 
BRANCH  24  25
ATOM     25  C   UNL     1       4.347   5.320  18.153  0.00  0.00    +0.000 A 
ATOM     26  C   UNL     1       4.544   4.190  17.360  0.00  0.00    +0.000 A 
ATOM     27  C   UNL     1       5.118   4.304  16.095  0.00  0.00    +0.000 A 
ATOM     28  C   UNL     1       5.485   5.547  15.578  0.00  0.00    +0.000 A 
ATOM     29  C   UNL     1       5.230   6.692  16.322  0.00  0.00    +0.000 A 
ATOM     30  C   UNL     1       4.657   6.578  17.600  0.00  0.00    +0.000 A 
BRANCH  28  31
ATOM     31  O   UNL     1       6.148   5.475  14.391  0.00  0.00    +0.000 OA
BRANCH  31  32
ATOM     32  C   UNL     1       6.836   4.270  14.071  0.00  0.00    +0.000 C 
BRANCH  32  33
ATOM     33  C   UNL     1       6.111   3.569  12.936  0.00  0.00    +0.000 A 
ATOM     34  C   UNL     1       4.812   3.938  12.549  0.00  0.00    +0.000 A 
ATOM     35  C   UNL     1       4.165   3.286  11.498  0.00  0.00    +0.000 A 
ATOM     36  C   UNL     1       4.812   2.266  10.807  0.00  0.00    +0.000 A 
ATOM     37  C   UNL     1       6.108   1.899  11.166  0.00  0.00    +0.000 A 
ATOM     38  C   UNL     1       6.756   2.549  12.220  0.00  0.00    +0.000 A 
ENDBRANCH  32  33
ENDBRANCH  31  32
ENDBRANCH  28  31
ENDBRANCH  24  25
ENDBRANCH   1  24
TORSDOF 13
ENDMDL
MODEL 8
REMARK VINA RESULT:      -8.2      1.408      2.232
REMARK  Name = 
REMARK  14 active torsions:
REMARK  status: ('A' for Active; 'I' for Inactive)
REMARK    1  A    between atoms: C_1  and  O_2
REMARK    2  A    between atoms: O_2  and  C_3
REMARK    3  A    between atoms: C_3  and  C_5
REMARK    4  A    between atoms: C_5  and  C_6
REMARK    5  A    between atoms: C_5  and  N_21
REMARK    6  A    between atoms: C_6  and  C_7
REMARK    7  A    between atoms: C_10  and  O_11
REMARK    8  A    between atoms: O_11  and  C_12
REMARK    9  A    between atoms: C_12  and  C_13
REMARK   10  A    between atoms: N_21  and  C_22
REMARK   11  A    between atoms: C_27  and  C_28
REMARK   12  A    between atoms: C_28  and  O_30
REMARK   13  A    between atoms: O_30  and  C_31
REMARK   14  A    between atoms: C_31  and  C_32
REMARK                            x       y       z     vdW  Elec       q    Type
REMARK                         _______ _______ _______ _____ _____    ______ ____
ROOT
ATOM      1  C   UNL     1       3.892   4.611  19.052  0.00  0.00    +0.000 C 
ENDROOT
BRANCH   1   2
ATOM      2  C   UNL     1       2.707   3.732  19.473  0.00  0.00    +0.000 C 
ATOM      3  O   UNL     1       1.681   3.553  18.827  0.00  0.00    +0.000 OA
BRANCH   2   5
ATOM      4  C   UNL     1       1.801   2.843  21.462  0.00  0.00    +0.000 C 
ATOM      5  O   UNL     1       2.943   3.259  20.728  0.00  0.00    +0.000 OA
ENDBRANCH   2   5
ENDBRANCH   1   2
BRANCH   1   6
ATOM      6  N   UNL     1       4.973   3.820  18.406  0.00  0.00    +0.000 N 
ATOM      7  H   UNL     1       5.616   3.525  19.148  0.00  0.00    +0.000 HD
BRANCH   6   8
ATOM      8  C   UNL     1       5.703   4.335  17.309  0.00  0.00    +0.000 A 
ATOM      9  C   UNL     1       5.126   3.893  16.077  0.00  0.00    +0.000 A 
ATOM     10  C   UNL     1       5.669   4.198  14.830  0.00  0.00    +0.000 A 
ATOM     11  C   UNL     1       6.804   4.977  14.780  0.00  0.00    +0.000 A 
ATOM     12  C   UNL     1       7.354   5.500  15.961  0.00  0.00    +0.000 A 
ATOM     13  C   UNL     1       6.819   5.244  17.250  0.00  0.00    +0.000 A 
BRANCH  13  14
ATOM     14  C   UNL     1       7.454   6.101  18.382  0.00  0.00    +0.000 C 
ATOM     15  O   UNL     1       7.233   5.922  19.569  0.00  0.00    +0.000 OA
BRANCH  14  16
ATOM     16  O   UNL     1       8.229   7.159  17.912  0.00  0.00    +0.000 OA
BRANCH  16  17
ATOM     17  C   UNL     1       7.696   8.542  17.884  0.00  0.00    +0.000 C 
BRANCH  17  18
ATOM     18  C   UNL     1       8.629   9.677  18.345  0.00  0.00    +0.000 A 
ATOM     19  C   UNL     1       9.142  10.644  17.464  0.00  0.00    +0.000 A 
ATOM     20  C   UNL     1      10.007  11.663  17.907  0.00  0.00    +0.000 A 
ATOM     21  C   UNL     1      10.395  11.752  19.247  0.00  0.00    +0.000 A 
ATOM     22  C   UNL     1       9.903  10.810  20.150  0.00  0.00    +0.000 A 
ATOM     23  C   UNL     1       9.034   9.794  19.710  0.00  0.00    +0.000 A 
ENDBRANCH  17  18
ENDBRANCH  16  17
ENDBRANCH  14  16
ENDBRANCH  13  14
ENDBRANCH   6   8
ENDBRANCH   1   6
BRANCH   1  24
ATOM     24  C   UNL     1       3.271   5.674  18.092  0.00  0.00    +0.000 C 
BRANCH  24  25
ATOM     25  C   UNL     1       2.607   6.911  18.667  0.00  0.00    +0.000 A 
ATOM     26  C   UNL     1       2.228   7.006  20.006  0.00  0.00    +0.000 A 
ATOM     27  C   UNL     1       1.518   8.114  20.464  0.00  0.00    +0.000 A 
ATOM     28  C   UNL     1       1.191   9.167  19.608  0.00  0.00    +0.000 A 
ATOM     29  C   UNL     1       1.623   9.125  18.288  0.00  0.00    +0.000 A 
ATOM     30  C   UNL     1       2.333   8.005  17.824  0.00  0.00    +0.000 A 
BRANCH  28  31
ATOM     31  O   UNL     1       0.388  10.108  20.176  0.00  0.00    +0.000 OA
BRANCH  31  32
ATOM     32  C   UNL     1       0.966  11.351  20.559  0.00  0.00    +0.000 C 
BRANCH  32  33
ATOM     33  C   UNL     1       0.034  12.056  21.528  0.00  0.00    +0.000 A 
ATOM     34  C   UNL     1      -0.927  11.353  22.273  0.00  0.00    +0.000 A 
ATOM     35  C   UNL     1      -1.772  12.019  23.164  0.00  0.00    +0.000 A 
ATOM     36  C   UNL     1      -1.657  13.395  23.336  0.00  0.00    +0.000 A 
ATOM     37  C   UNL     1      -0.695  14.106  22.619  0.00  0.00    +0.000 A 
ATOM     38  C   UNL     1       0.147  13.440  21.724  0.00  0.00    +0.000 A 
ENDBRANCH  32  33
ENDBRANCH  31  32
ENDBRANCH  28  31
ENDBRANCH  24  25
ENDBRANCH   1  24
TORSDOF 13
ENDMDL
MODEL 9
REMARK VINA RESULT:      -8.2      2.695      5.694
REMARK  Name = 
REMARK  14 active torsions:
REMARK  status: ('A' for Active; 'I' for Inactive)
REMARK    1  A    between atoms: C_1  and  O_2
REMARK    2  A    between atoms: O_2  and  C_3
REMARK    3  A    between atoms: C_3  and  C_5
REMARK    4  A    between atoms: C_5  and  C_6
REMARK    5  A    between atoms: C_5  and  N_21
REMARK    6  A    between atoms: C_6  and  C_7
REMARK    7  A    between atoms: C_10  and  O_11
REMARK    8  A    between atoms: O_11  and  C_12
REMARK    9  A    between atoms: C_12  and  C_13
REMARK   10  A    between atoms: N_21  and  C_22
REMARK   11  A    between atoms: C_27  and  C_28
REMARK   12  A    between atoms: C_28  and  O_30
REMARK   13  A    between atoms: O_30  and  C_31
REMARK   14  A    between atoms: C_31  and  C_32
REMARK                            x       y       z     vdW  Elec       q    Type
REMARK                         _______ _______ _______ _____ _____    ______ ____
ROOT
ATOM      1  C   UNL     1       4.051   4.492  19.697  0.00  0.00    +0.000 C 
ENDROOT
BRANCH   1   2
ATOM      2  C   UNL     1       3.234   3.193  19.708  0.00  0.00    +0.000 C 
ATOM      3  O   UNL     1       2.055   3.089  20.025  0.00  0.00    +0.000 OA
BRANCH   2   5
ATOM      4  C   UNL     1       3.590   1.253  18.412  0.00  0.00    +0.000 C 
ATOM      5  O   UNL     1       4.063   2.158  19.400  0.00  0.00    +0.000 OA
ENDBRANCH   2   5
ENDBRANCH   1   2
BRANCH   1   6
ATOM      6  N   UNL     1       5.493   4.243  19.437  0.00  0.00    +0.000 N 
ATOM      7  H   UNL     1       5.941   4.085  20.346  0.00  0.00    +0.000 HD
BRANCH   6   8
ATOM      8  C   UNL     1       6.266   5.144  18.666  0.00  0.00    +0.000 A 
ATOM      9  C   UNL     1       7.155   5.882  19.508  0.00  0.00    +0.000 A 
ATOM     10  C   UNL     1       8.000   6.883  19.031  0.00  0.00    +0.000 A 
ATOM     11  C   UNL     1       7.990   7.163  17.682  0.00  0.00    +0.000 A 
ATOM     12  C   UNL     1       7.194   6.405  16.809  0.00  0.00    +0.000 A 
ATOM     13  C   UNL     1       6.343   5.356  17.243  0.00  0.00    +0.000 A 
BRANCH  13  14
ATOM     14  C   UNL     1       5.729   4.517  16.085  0.00  0.00    +0.000 C 
ATOM     15  O   UNL     1       4.614   4.021  16.129  0.00  0.00    +0.000 OA
BRANCH  14  16
ATOM     16  O   UNL     1       6.609   4.301  15.028  0.00  0.00    +0.000 OA
BRANCH  16  17
ATOM     17  C   UNL     1       6.224   4.631  13.635  0.00  0.00    +0.000 C 
BRANCH  17  18
ATOM     18  C   UNL     1       6.266   3.499  12.593  0.00  0.00    +0.000 A 
ATOM     19  C   UNL     1       5.117   2.806  12.175  0.00  0.00    +0.000 A 
ATOM     20  C   UNL     1       5.185   1.762  11.233  0.00  0.00    +0.000 A 
ATOM     21  C   UNL     1       6.404   1.368  10.675  0.00  0.00    +0.000 A 
ATOM     22  C   UNL     1       7.564   2.035  11.064  0.00  0.00    +0.000 A 
ATOM     23  C   UNL     1       7.499   3.083  12.002  0.00  0.00    +0.000 A 
ENDBRANCH  17  18
ENDBRANCH  16  17
ENDBRANCH  14  16
ENDBRANCH  13  14
ENDBRANCH   6   8
ENDBRANCH   1   6
BRANCH   1  24
ATOM     24  C   UNL     1       3.383   5.365  18.588  0.00  0.00    +0.000 C 
BRANCH  24  25
ATOM     25  C   UNL     1       2.702   6.668  18.963  0.00  0.00    +0.000 A 
ATOM     26  C   UNL     1       2.121   6.879  20.213  0.00  0.00    +0.000 A 
ATOM     27  C   UNL     1       1.408   8.047  20.474  0.00  0.00    +0.000 A 
ATOM     28  C   UNL     1       1.278   9.045  19.508  0.00  0.00    +0.000 A 
ATOM     29  C   UNL     1       1.911   8.887  18.281  0.00  0.00    +0.000 A 
ATOM     30  C   UNL     1       2.626   7.707  18.015  0.00  0.00    +0.000 A 
BRANCH  28  31
ATOM     31  O   UNL     1       0.446  10.059  19.874  0.00  0.00    +0.000 OA
BRANCH  31  32
ATOM     32  C   UNL     1       0.188  11.096  18.933  0.00  0.00    +0.000 C 
BRANCH  32  33
ATOM     33  C   UNL     1      -1.209  10.917  18.366  0.00  0.00    +0.000 A 
ATOM     34  C   UNL     1      -1.491   9.950  17.387  0.00  0.00    +0.000 A 
ATOM     35  C   UNL     1      -2.784   9.796  16.883  0.00  0.00    +0.000 A 
ATOM     36  C   UNL     1      -3.818  10.596  17.361  0.00  0.00    +0.000 A 
ATOM     37  C   UNL     1      -3.559  11.548  18.345  0.00  0.00    +0.000 A 
ATOM     38  C   UNL     1      -2.265  11.705  18.848  0.00  0.00    +0.000 A 
ENDBRANCH  32  33
ENDBRANCH  31  32
ENDBRANCH  28  31
ENDBRANCH  24  25
ENDBRANCH   1  24
TORSDOF 13
ENDMDL
