MODEL 1
REMARK VINA RESULT:      -8.2      0.000      0.000
REMARK  Name = 
REMARK  8 active torsions:
REMARK  status: ('A' for Active; 'I' for Inactive)
REMARK    1  A    between atoms: C_1  and  C_2
REMARK    2  A    between atoms: C_5  and  C_6
REMARK    3  A    between atoms: C_6  and  C_7
REMARK    4  A    between atoms: C_6  and  N_8
REMARK    5  A    between atoms: N_8  and  C_9
REMARK    6  A    between atoms: N_15  and  C_16
REMARK    7  A    between atoms: C_19  and  C_20
REMARK    8  A    between atoms: N_23  and  C_24
REMARK                            x       y       z     vdW  Elec       q    Type
REMARK                         _______ _______ _______ _____ _____    ______ ____
ROOT
ATOM      1  C   UNL     1       1.785   8.163  19.361  0.00  0.00    +0.000 A 
ATOM      2  C   UNL     1       1.379   7.474  20.501  0.00  0.00    +0.000 A 
ATOM      3  C   UNL     1       1.805   6.168  20.750  0.00  0.00    +0.000 A 
ATOM      4  C   UNL     1       2.665   5.511  19.865  0.00  0.00    +0.000 A 
ATOM      5  C   UNL     1       3.158   6.207  18.733  0.00  0.00    +0.000 A 
ATOM      6  C   UNL     1       2.703   7.526  18.508  0.00  0.00    +0.000 A 
ATOM      7  N   UNL     1       4.060   5.569  17.842  0.00  0.00    +0.000 N 
ATOM      8  C   UNL     1       4.800   4.430  18.409  0.00  0.00    +0.000 C 
ATOM      9  C   UNL     1       5.917   4.889  19.350  0.00  0.00    +0.000 C 
ATOM     10  C   UNL     1       3.880   3.496  19.191  0.00  0.00    +0.000 C 
ATOM     11  O   UNL     1       4.029   2.272  19.150  0.00  0.00    +0.000 OA
ATOM     12  N   UNL     1       3.006   4.137  20.065  0.00  0.00    +0.000 N 
ATOM     13  C   UNL     1       2.416   3.372  21.146  0.00  0.00    +0.000 C 
ENDROOT
BRANCH   7  14
ATOM     14  C   UNL     1       4.589   6.224  16.637  0.00  0.00    +0.000 C 
ATOM     15  C   UNL     1       5.996   6.759  16.547  0.00  0.00    +0.000 C 
ATOM     16  C   UNL     1       5.625   5.513  15.805  0.00  0.00    +0.000 C 
ENDBRANCH   7  14
BRANCH   1  17
ATOM     17  N   UNL     1       1.383   9.470  19.060  0.00  0.00    +0.000 N 
ATOM     18  H   UNL     1       2.190  10.075  18.939  0.00  0.00    +0.000 HD
BRANCH  17  19
ATOM     19  C   UNL     1       0.304  10.107  19.829  0.00  0.00    +0.000 C 
ATOM     20  C   UNL     1       0.793  11.361  20.565  0.00  0.00    +0.000 C 
BRANCH  19  25
ATOM     21  C   UNL     1      -4.362  11.241  16.495  0.00  0.00    +0.000 C 
ATOM     22  C   UNL     1      -3.131  11.003  17.317  0.00  0.00    +0.000 A 
ATOM     23  C   UNL     1      -2.157  10.089  16.904  0.00  0.00    +0.000 A 
ATOM     24  C   UNL     1      -1.033   9.847  17.696  0.00  0.00    +0.000 A 
ATOM     25  C   UNL     1      -0.850  10.519  18.919  0.00  0.00    +0.000 A 
ATOM     26  C   UNL     1      -1.811  11.465  19.304  0.00  0.00    +0.000 A 
ATOM     27  C   UNL     1      -2.936  11.707  18.509  0.00  0.00    +0.000 A 
ENDBRANCH  19  25
ENDBRANCH  17  19
ENDBRANCH   1  17
TORSDOF 4
ENDMDL
MODEL 2
REMARK VINA RESULT:      -8.2      0.770      1.222
REMARK  Name = 
REMARK  8 active torsions:
REMARK  status: ('A' for Active; 'I' for Inactive)
REMARK    1  A    between atoms: C_1  and  C_2
REMARK    2  A    between atoms: C_5  and  C_6
REMARK    3  A    between atoms: C_6  and  C_7
REMARK    4  A    between atoms: C_6  and  N_8
REMARK    5  A    between atoms: N_8  and  C_9
REMARK    6  A    between atoms: N_15  and  C_16
REMARK    7  A    between atoms: C_19  and  C_20
REMARK    8  A    between atoms: N_23  and  C_24
REMARK                            x       y       z     vdW  Elec       q    Type
REMARK                         _______ _______ _______ _____ _____    ______ ____
ROOT
ATOM      1  C   UNL     1       2.015   8.569  18.594  0.00  0.00    +0.000 A 
ATOM      2  C   UNL     1       1.544   8.126  19.827  0.00  0.00    +0.000 A 
ATOM      3  C   UNL     1       1.893   6.871  20.329  0.00  0.00    +0.000 A 
ATOM      4  C   UNL     1       2.737   6.020  19.611  0.00  0.00    +0.000 A 
ATOM      5  C   UNL     1       3.295   6.466  18.388  0.00  0.00    +0.000 A 
ATOM      6  C   UNL     1       2.918   7.740  17.906  0.00  0.00    +0.000 A 
ATOM      7  N   UNL     1       4.183   5.629  17.662  0.00  0.00    +0.000 N 
ATOM      8  C   UNL     1       4.846   4.583  18.456  0.00  0.00    +0.000 C 
ATOM      9  C   UNL     1       5.963   5.155  19.334  0.00  0.00    +0.000 C 
ATOM     10  C   UNL     1       3.859   3.857  19.366  0.00  0.00    +0.000 C 
ATOM     11  O   UNL     1       3.942   2.642  19.558  0.00  0.00    +0.000 OA
ATOM     12  N   UNL     1       2.999   4.692  20.075  0.00  0.00    +0.000 N 
ATOM     13  C   UNL     1       2.342   4.172  21.257  0.00  0.00    +0.000 C 
ENDROOT
BRANCH   7  14
ATOM     14  C   UNL     1       4.777   6.021  16.376  0.00  0.00    +0.000 C 
ATOM     15  C   UNL     1       6.243   6.333  16.212  0.00  0.00    +0.000 C 
ATOM     16  C   UNL     1       5.688   5.058  15.660  0.00  0.00    +0.000 C 
ENDBRANCH   7  14
BRANCH   1  17
ATOM     17  N   UNL     1       1.692   9.815  18.042  0.00  0.00    +0.000 N 
ATOM     18  H   UNL     1       2.490  10.209  17.552  0.00  0.00    +0.000 HD
BRANCH  17  19
ATOM     19  C   UNL     1       0.965  10.812  18.842  0.00  0.00    +0.000 C 
ATOM     20  C   UNL     1       1.472  12.235  18.575  0.00  0.00    +0.000 C 
BRANCH  19  25
ATOM     21  C   UNL     1      -4.683  11.130  17.368  0.00  0.00    +0.000 C 
ATOM     22  C   UNL     1      -3.252  10.999  17.794  0.00  0.00    +0.000 A 
ATOM     23  C   UNL     1      -2.725  11.812  18.802  0.00  0.00    +0.000 A 
ATOM     24  C   UNL     1      -1.380  11.707  19.164  0.00  0.00    +0.000 A 
ATOM     25  C   UNL     1      -0.529  10.781  18.532  0.00  0.00    +0.000 A 
ATOM     26  C   UNL     1      -1.077   9.941  17.553  0.00  0.00    +0.000 A 
ATOM     27  C   UNL     1      -2.425  10.046  17.191  0.00  0.00    +0.000 A 
ENDBRANCH  19  25
ENDBRANCH  17  19
ENDBRANCH   1  17
TORSDOF 4
ENDMDL
MODEL 3
REMARK VINA RESULT:      -8.2      1.911      4.041
REMARK  Name = 
REMARK  8 active torsions:
REMARK  status: ('A' for Active; 'I' for Inactive)
REMARK    1  A    between atoms: C_1  and  C_2
REMARK    2  A    between atoms: C_5  and  C_6
REMARK    3  A    between atoms: C_6  and  C_7
REMARK    4  A    between atoms: C_6  and  N_8
REMARK    5  A    between atoms: N_8  and  C_9
REMARK    6  A    between atoms: N_15  and  C_16
REMARK    7  A    between atoms: C_19  and  C_20
REMARK    8  A    between atoms: N_23  and  C_24
REMARK                            x       y       z     vdW  Elec       q    Type
REMARK                         _______ _______ _______ _____ _____    ______ ____
ROOT
ATOM      1  C   UNL     1       1.582   8.468  19.657  0.00  0.00    +0.000 A 
ATOM      2  C   UNL     1       2.143   8.917  18.464  0.00  0.00    +0.000 A 
ATOM      3  C   UNL     1       2.984   8.101  17.705  0.00  0.00    +0.000 A 
ATOM      4  C   UNL     1       3.281   6.798  18.114  0.00  0.00    +0.000 A 
ATOM      5  C   UNL     1       2.669   6.281  19.283  0.00  0.00    +0.000 A 
ATOM      6  C   UNL     1       1.827   7.135  20.030  0.00  0.00    +0.000 A 
ATOM      7  N   UNL     1       2.931   4.947  19.693  0.00  0.00    +0.000 N 
ATOM      8  C   UNL     1       3.411   4.048  18.632  0.00  0.00    +0.000 C 
ATOM      9  C   UNL     1       2.281   3.628  17.688  0.00  0.00    +0.000 C 
ATOM     10  C   UNL     1       4.505   4.702  17.794  0.00  0.00    +0.000 C 
ATOM     11  O   UNL     1       5.472   4.052  17.387  0.00  0.00    +0.000 OA
ATOM     12  N   UNL     1       4.231   6.007  17.394  0.00  0.00    +0.000 N 
ATOM     13  C   UNL     1       4.960   6.559  16.269  0.00  0.00    +0.000 C 
ENDROOT
BRANCH   7  14
ATOM     14  C   UNL     1       2.348   4.358  20.908  0.00  0.00    +0.000 C 
ATOM     15  C   UNL     1       1.177   3.410  20.877  0.00  0.00    +0.000 C 
ATOM     16  C   UNL     1       2.546   2.890  21.183  0.00  0.00    +0.000 C 
ENDBRANCH   7  14
BRANCH   1  17
ATOM     17  N   UNL     1       0.739   9.246  20.459  0.00  0.00    +0.000 N 
ATOM     18  H   UNL     1       0.090   8.658  20.976  0.00  0.00    +0.000 HD
BRANCH  17  19
ATOM     19  C   UNL     1       0.100  10.451  19.910  0.00  0.00    +0.000 C 
ATOM     20  C   UNL     1      -0.805  10.122  18.716  0.00  0.00    +0.000 C 
BRANCH  19  25
ATOM     21  C   UNL     1      -3.565  12.821  23.799  0.00  0.00    +0.000 C 
ATOM     22  C   UNL     1      -2.579  12.266  22.816  0.00  0.00    +0.000 A 
ATOM     23  C   UNL     1      -2.616  12.643  21.470  0.00  0.00    +0.000 A 
ATOM     24  C   UNL     1      -1.717  12.090  20.556  0.00  0.00    +0.000 A 
ATOM     25  C   UNL     1      -0.752  11.151  20.964  0.00  0.00    +0.000 A 
ATOM     26  C   UNL     1      -0.696  10.811  22.324  0.00  0.00    +0.000 A 
ATOM     27  C   UNL     1      -1.596  11.366  23.240  0.00  0.00    +0.000 A 
ENDBRANCH  19  25
ENDBRANCH  17  19
ENDBRANCH   1  17
TORSDOF 4
ENDMDL
MODEL 4
REMARK VINA RESULT:      -8.0      2.041      3.970
REMARK  Name = 
REMARK  8 active torsions:
REMARK  status: ('A' for Active; 'I' for Inactive)
REMARK    1  A    between atoms: C_1  and  C_2
REMARK    2  A    between atoms: C_5  and  C_6
REMARK    3  A    between atoms: C_6  and  C_7
REMARK    4  A    between atoms: C_6  and  N_8
REMARK    5  A    between atoms: N_8  and  C_9
REMARK    6  A    between atoms: N_15  and  C_16
REMARK    7  A    between atoms: C_19  and  C_20
REMARK    8  A    between atoms: N_23  and  C_24
REMARK                            x       y       z     vdW  Elec       q    Type
REMARK                         _______ _______ _______ _____ _____    ______ ____
ROOT
ATOM      1  C   UNL     1       1.750   8.416  18.876  0.00  0.00    +0.000 A 
ATOM      2  C   UNL     1       2.601   8.702  17.811  0.00  0.00    +0.000 A 
ATOM      3  C   UNL     1       3.636   7.835  17.457  0.00  0.00    +0.000 A 
ATOM      4  C   UNL     1       3.846   6.643  18.155  0.00  0.00    +0.000 A 
ATOM      5  C   UNL     1       2.954   6.283  19.196  0.00  0.00    +0.000 A 
ATOM      6  C   UNL     1       1.920   7.184  19.532  0.00  0.00    +0.000 A 
ATOM      7  N   UNL     1       3.130   5.058  19.892  0.00  0.00    +0.000 N 
ATOM      8  C   UNL     1       3.903   4.033  19.172  0.00  0.00    +0.000 C 
ATOM      9  C   UNL     1       3.082   3.382  18.056  0.00  0.00    +0.000 C 
ATOM     10  C   UNL     1       5.165   4.618  18.547  0.00  0.00    +0.000 C 
ATOM     11  O   UNL     1       6.222   3.983  18.529  0.00  0.00    +0.000 OA
ATOM     12  N   UNL     1       4.976   5.816  17.862  0.00  0.00    +0.000 N 
ATOM     13  C   UNL     1       5.967   6.226  16.888  0.00  0.00    +0.000 C 
ENDROOT
BRANCH   7  14
ATOM     14  C   UNL     1       2.257   4.637  20.998  0.00  0.00    +0.000 C 
ATOM     15  C   UNL     1       1.096   3.694  20.809  0.00  0.00    +0.000 C 
ATOM     16  C   UNL     1       2.335   3.218  21.500  0.00  0.00    +0.000 C 
ENDBRANCH   7  14
BRANCH   1  17
ATOM     17  N   UNL     1       0.701   9.253  19.277  0.00  0.00    +0.000 N 
ATOM     18  H   UNL     1       0.022   9.361  18.529  0.00  0.00    +0.000 HD
BRANCH  17  19
ATOM     19  C   UNL     1       0.988  10.516  19.974  0.00  0.00    +0.000 C 
ATOM     20  C   UNL     1       1.237  11.665  18.990  0.00  0.00    +0.000 C 
BRANCH  19  25
ATOM     21  C   UNL     1      -3.115  12.367  23.704  0.00  0.00    +0.000 C 
ATOM     22  C   UNL     1      -2.109  11.842  22.725  0.00  0.00    +0.000 A 
ATOM     23  C   UNL     1      -1.193  10.853  23.096  0.00  0.00    +0.000 A 
ATOM     24  C   UNL     1      -0.235  10.400  22.187  0.00  0.00    +0.000 A 
ATOM     25  C   UNL     1      -0.172  10.918  20.880  0.00  0.00    +0.000 A 
ATOM     26  C   UNL     1      -1.122  11.879  20.504  0.00  0.00    +0.000 A 
ATOM     27  C   UNL     1      -2.082  12.332  21.415  0.00  0.00    +0.000 A 
ENDBRANCH  19  25
ENDBRANCH  17  19
ENDBRANCH   1  17
TORSDOF 4
ENDMDL
MODEL 5
REMARK VINA RESULT:      -7.7      1.839      4.026
REMARK  Name = 
REMARK  8 active torsions:
REMARK  status: ('A' for Active; 'I' for Inactive)
REMARK    1  A    between atoms: C_1  and  C_2
REMARK    2  A    between atoms: C_5  and  C_6
REMARK    3  A    between atoms: C_6  and  C_7
REMARK    4  A    between atoms: C_6  and  N_8
REMARK    5  A    between atoms: N_8  and  C_9
REMARK    6  A    between atoms: N_15  and  C_16
REMARK    7  A    between atoms: C_19  and  C_20
REMARK    8  A    between atoms: N_23  and  C_24
REMARK                            x       y       z     vdW  Elec       q    Type
REMARK                         _______ _______ _______ _____ _____    ______ ____
ROOT
ATOM      1  C   UNL     1       1.745   8.522  18.927  0.00  0.00    +0.000 A 
ATOM      2  C   UNL     1       2.564   8.801  17.835  0.00  0.00    +0.000 A 
ATOM      3  C   UNL     1       3.563   7.914  17.432  0.00  0.00    +0.000 A 
ATOM      4  C   UNL     1       3.767   6.707  18.107  0.00  0.00    +0.000 A 
ATOM      5  C   UNL     1       2.905   6.355  19.175  0.00  0.00    +0.000 A 
ATOM      6  C   UNL     1       1.907   7.278  19.560  0.00  0.00    +0.000 A 
ATOM      7  N   UNL     1       3.074   5.117  19.849  0.00  0.00    +0.000 N 
ATOM      8  C   UNL     1       3.794   4.083  19.087  0.00  0.00    +0.000 C 
ATOM      9  C   UNL     1       2.917   3.468  17.994  0.00  0.00    +0.000 C 
ATOM     10  C   UNL     1       5.048   4.644  18.424  0.00  0.00    +0.000 C 
ATOM     11  O   UNL     1       6.087   3.983  18.360  0.00  0.00    +0.000 OA
ATOM     12  N   UNL     1       4.864   5.856  17.762  0.00  0.00    +0.000 N 
ATOM     13  C   UNL     1       5.830   6.254  16.757  0.00  0.00    +0.000 C 
ENDROOT
BRANCH   7  14
ATOM     14  C   UNL     1       2.231   4.702  20.979  0.00  0.00    +0.000 C 
ATOM     15  C   UNL     1       1.079   3.741  20.832  0.00  0.00    +0.000 C 
ATOM     16  C   UNL     1       2.340   3.293  21.503  0.00  0.00    +0.000 C 
ENDBRANCH   7  14
BRANCH   1  17
ATOM     17  N   UNL     1       0.733   9.379  19.377  0.00  0.00    +0.000 N 
ATOM     18  H   UNL     1       0.091   8.886  19.990  0.00  0.00    +0.000 HD
BRANCH  17  19
ATOM     19  C   UNL     1       0.046  10.272  18.432  0.00  0.00    +0.000 C 
ATOM     20  C   UNL     1      -1.475  10.086  18.476  0.00  0.00    +0.000 C 
BRANCH  19  25
ATOM     21  C   UNL     1       1.465  15.897  19.159  0.00  0.00    +0.000 C 
ATOM     22  C   UNL     1       1.079  14.453  19.041  0.00  0.00    +0.000 A 
ATOM     23  C   UNL     1       2.003  13.438  19.310  0.00  0.00    +0.000 A 
ATOM     24  C   UNL     1       1.643  12.097  19.159  0.00  0.00    +0.000 A 
ATOM     25  C   UNL     1       0.348  11.736  18.741  0.00  0.00    +0.000 A 
ATOM     26  C   UNL     1      -0.583  12.760  18.515  0.00  0.00    +0.000 A 
ATOM     27  C   UNL     1      -0.222  14.103  18.668  0.00  0.00    +0.000 A 
ENDBRANCH  19  25
ENDBRANCH  17  19
ENDBRANCH   1  17
TORSDOF 4
ENDMDL
MODEL 6
REMARK VINA RESULT:      -7.6      2.044      4.000
REMARK  Name = 
REMARK  8 active torsions:
REMARK  status: ('A' for Active; 'I' for Inactive)
REMARK    1  A    between atoms: C_1  and  C_2
REMARK    2  A    between atoms: C_5  and  C_6
REMARK    3  A    between atoms: C_6  and  C_7
REMARK    4  A    between atoms: C_6  and  N_8
REMARK    5  A    between atoms: N_8  and  C_9
REMARK    6  A    between atoms: N_15  and  C_16
REMARK    7  A    between atoms: C_19  and  C_20
REMARK    8  A    between atoms: N_23  and  C_24
REMARK                            x       y       z     vdW  Elec       q    Type
REMARK                         _______ _______ _______ _____ _____    ______ ____
ROOT
ATOM      1  C   UNL     1       1.805   8.368  19.155  0.00  0.00    +0.000 A 
ATOM      2  C   UNL     1       2.581   8.672  18.039  0.00  0.00    +0.000 A 
ATOM      3  C   UNL     1       3.546   7.784  17.561  0.00  0.00    +0.000 A 
ATOM      4  C   UNL     1       3.758   6.551  18.184  0.00  0.00    +0.000 A 
ATOM      5  C   UNL     1       2.936   6.175  19.276  0.00  0.00    +0.000 A 
ATOM      6  C   UNL     1       1.972   7.100  19.737  0.00  0.00    +0.000 A 
ATOM      7  N   UNL     1       3.113   4.911  19.899  0.00  0.00    +0.000 N 
ATOM      8  C   UNL     1       3.780   3.893  19.071  0.00  0.00    +0.000 C 
ATOM      9  C   UNL     1       2.845   3.332  17.996  0.00  0.00    +0.000 C 
ATOM     10  C   UNL     1       5.014   4.458  18.373  0.00  0.00    +0.000 C 
ATOM     11  O   UNL     1       6.037   3.782  18.240  0.00  0.00    +0.000 OA
ATOM     12  N   UNL     1       4.823   5.694  17.762  0.00  0.00    +0.000 N 
ATOM     13  C   UNL     1       5.751   6.112  16.730  0.00  0.00    +0.000 C 
ENDROOT
BRANCH   7  14
ATOM     14  C   UNL     1       2.313   4.470  21.050  0.00  0.00    +0.000 C 
ATOM     15  C   UNL     1       1.136   3.537  20.920  0.00  0.00    +0.000 C 
ATOM     16  C   UNL     1       2.416   3.042  21.517  0.00  0.00    +0.000 C 
ENDBRANCH   7  14
BRANCH   1  17
ATOM     17  N   UNL     1       0.829   9.225  19.679  0.00  0.00    +0.000 N 
ATOM     18  H   UNL     1       1.010  10.187  19.403  0.00  0.00    +0.000 HD
BRANCH  17  19
ATOM     19  C   UNL     1       0.417   9.104  21.084  0.00  0.00    +0.000 C 
ATOM     20  C   UNL     1       1.617   9.152  22.037  0.00  0.00    +0.000 C 
BRANCH  19  25
ATOM     21  C   UNL     1      -2.817  13.670  22.778  0.00  0.00    +0.000 C 
ATOM     22  C   UNL     1      -2.049  12.463  22.332  0.00  0.00    +0.000 A 
ATOM     23  C   UNL     1      -1.641  11.490  23.250  0.00  0.00    +0.000 A 
ATOM     24  C   UNL     1      -0.892  10.389  22.828  0.00  0.00    +0.000 A 
ATOM     25  C   UNL     1      -0.537  10.229  21.476  0.00  0.00    +0.000 A 
ATOM     26  C   UNL     1      -0.987  11.188  20.556  0.00  0.00    +0.000 A 
ATOM     27  C   UNL     1      -1.738  12.290  20.979  0.00  0.00    +0.000 A 
ENDBRANCH  19  25
ENDBRANCH  17  19
ENDBRANCH   1  17
TORSDOF 4
ENDMDL
MODEL 7
REMARK VINA RESULT:      -7.6      1.134      1.773
REMARK  Name = 
REMARK  8 active torsions:
REMARK  status: ('A' for Active; 'I' for Inactive)
REMARK    1  A    between atoms: C_1  and  C_2
REMARK    2  A    between atoms: C_5  and  C_6
REMARK    3  A    between atoms: C_6  and  C_7
REMARK    4  A    between atoms: C_6  and  N_8
REMARK    5  A    between atoms: N_8  and  C_9
REMARK    6  A    between atoms: N_15  and  C_16
REMARK    7  A    between atoms: C_19  and  C_20
REMARK    8  A    between atoms: N_23  and  C_24
REMARK                            x       y       z     vdW  Elec       q    Type
REMARK                         _______ _______ _______ _____ _____    ______ ____
ROOT
ATOM      1  C   UNL     1       2.056   8.686  18.526  0.00  0.00    +0.000 A 
ATOM      2  C   UNL     1       1.571   8.266  19.762  0.00  0.00    +0.000 A 
ATOM      3  C   UNL     1       1.892   7.010  20.279  0.00  0.00    +0.000 A 
ATOM      4  C   UNL     1       2.722   6.134  19.575  0.00  0.00    +0.000 A 
ATOM      5  C   UNL     1       3.295   6.556  18.350  0.00  0.00    +0.000 A 
ATOM      6  C   UNL     1       2.947   7.831  17.852  0.00  0.00    +0.000 A 
ATOM      7  N   UNL     1       4.170   5.693  17.638  0.00  0.00    +0.000 N 
ATOM      8  C   UNL     1       4.808   4.642  18.447  0.00  0.00    +0.000 C 
ATOM      9  C   UNL     1       5.931   5.202  19.324  0.00  0.00    +0.000 C 
ATOM     10  C   UNL     1       3.802   3.947  19.359  0.00  0.00    +0.000 C 
ATOM     11  O   UNL     1       3.860   2.732  19.565  0.00  0.00    +0.000 OA
ATOM     12  N   UNL     1       2.955   4.806  20.055  0.00  0.00    +0.000 N 
ATOM     13  C   UNL     1       2.282   4.313  21.240  0.00  0.00    +0.000 C 
ENDROOT
BRANCH   7  14
ATOM     14  C   UNL     1       4.778   6.059  16.350  0.00  0.00    +0.000 C 
ATOM     15  C   UNL     1       6.268   6.183  16.155  0.00  0.00    +0.000 C 
ATOM     16  C   UNL     1       5.535   5.016  15.570  0.00  0.00    +0.000 C 
ENDBRANCH   7  14
BRANCH   1  17
ATOM     17  N   UNL     1       1.761   9.932  17.959  0.00  0.00    +0.000 N 
ATOM     18  H   UNL     1       2.337  10.098  17.138  0.00  0.00    +0.000 HD
BRANCH  17  19
ATOM     19  C   UNL     1       1.630  11.121  18.813  0.00  0.00    +0.000 C 
ATOM     20  C   UNL     1       2.192  12.375  18.134  0.00  0.00    +0.000 C 
BRANCH  19  25
ATOM     21  C   UNL     1      -3.882  12.659  20.010  0.00  0.00    +0.000 C 
ATOM     22  C   UNL     1      -2.481  12.202  19.734  0.00  0.00    +0.000 A 
ATOM     23  C   UNL     1      -1.450  12.453  20.645  0.00  0.00    +0.000 A 
ATOM     24  C   UNL     1      -0.142  12.056  20.359  0.00  0.00    +0.000 A 
ATOM     25  C   UNL     1       0.169  11.391  19.159  0.00  0.00    +0.000 A 
ATOM     26  C   UNL     1      -0.880  11.105  18.272  0.00  0.00    +0.000 A 
ATOM     27  C   UNL     1      -2.190  11.502  18.559  0.00  0.00    +0.000 A 
ENDBRANCH  19  25
ENDBRANCH  17  19
ENDBRANCH   1  17
TORSDOF 4
ENDMDL
MODEL 8
REMARK VINA RESULT:      -7.6      1.894      4.501
REMARK  Name = 
REMARK  8 active torsions:
REMARK  status: ('A' for Active; 'I' for Inactive)
REMARK    1  A    between atoms: C_1  and  C_2
REMARK    2  A    between atoms: C_5  and  C_6
REMARK    3  A    between atoms: C_6  and  C_7
REMARK    4  A    between atoms: C_6  and  N_8
REMARK    5  A    between atoms: N_8  and  C_9
REMARK    6  A    between atoms: N_15  and  C_16
REMARK    7  A    between atoms: C_19  and  C_20
REMARK    8  A    between atoms: N_23  and  C_24
REMARK                            x       y       z     vdW  Elec       q    Type
REMARK                         _______ _______ _______ _____ _____    ______ ____
ROOT
ATOM      1  C   UNL     1       1.849   8.513  19.138  0.00  0.00    +0.000 A 
ATOM      2  C   UNL     1       2.457   8.798  17.918  0.00  0.00    +0.000 A 
ATOM      3  C   UNL     1       3.272   7.862  17.278  0.00  0.00    +0.000 A 
ATOM      4  C   UNL     1       3.495   6.601  17.838  0.00  0.00    +0.000 A 
ATOM      5  C   UNL     1       2.833   6.249  19.040  0.00  0.00    +0.000 A 
ATOM      6  C   UNL     1       2.019   7.221  19.665  0.00  0.00    +0.000 A 
ATOM      7  N   UNL     1       3.020   4.960  19.605  0.00  0.00    +0.000 N 
ATOM      8  C   UNL     1       3.477   3.925  18.664  0.00  0.00    +0.000 C 
ATOM      9  C   UNL     1       2.349   3.454  17.743  0.00  0.00    +0.000 C 
ATOM     10  C   UNL     1       4.621   4.428  17.788  0.00  0.00    +0.000 C 
ATOM     11  O   UNL     1       5.562   3.691  17.482  0.00  0.00    +0.000 OA
ATOM     12  N   UNL     1       4.420   5.691  17.236  0.00  0.00    +0.000 N 
ATOM     13  C   UNL     1       5.199   6.076  16.077  0.00  0.00    +0.000 C 
ENDROOT
BRANCH   7  14
ATOM     14  C   UNL     1       2.384   4.540  20.862  0.00  0.00    +0.000 C 
ATOM     15  C   UNL     1       1.160   3.660  20.905  0.00  0.00    +0.000 C 
ATOM     16  C   UNL     1       2.492   3.102  21.299  0.00  0.00    +0.000 C 
ENDBRANCH   7  14
BRANCH   1  17
ATOM     17  N   UNL     1       1.028   9.416  19.825  0.00  0.00    +0.000 N 
ATOM     18  H   UNL     1       0.366   8.922  20.417  0.00  0.00    +0.000 HD
BRANCH  17  19
ATOM     19  C   UNL     1       0.420  10.551  19.115  0.00  0.00    +0.000 C 
ATOM     20  C   UNL     1      -1.006  10.830  19.604  0.00  0.00    +0.000 C 
BRANCH  19  25
ATOM     21  C   UNL     1       3.927  15.125  20.089  0.00  0.00    +0.000 C 
ATOM     22  C   UNL     1       2.976  13.998  19.822  0.00  0.00    +0.000 A 
ATOM     23  C   UNL     1       2.181  13.470  20.844  0.00  0.00    +0.000 A 
ATOM     24  C   UNL     1       1.327  12.395  20.592  0.00  0.00    +0.000 A 
ATOM     25  C   UNL     1       1.239  11.823  19.309  0.00  0.00    +0.000 A 
ATOM     26  C   UNL     1       2.009  12.387  18.281  0.00  0.00    +0.000 A 
ATOM     27  C   UNL     1       2.863  13.465  18.534  0.00  0.00    +0.000 A 
ENDBRANCH  19  25
ENDBRANCH  17  19
ENDBRANCH   1  17
TORSDOF 4
ENDMDL
MODEL 9
REMARK VINA RESULT:      -7.6      3.164      7.873
REMARK  Name = 
REMARK  8 active torsions:
REMARK  status: ('A' for Active; 'I' for Inactive)
REMARK    1  A    between atoms: C_1  and  C_2
REMARK    2  A    between atoms: C_5  and  C_6
REMARK    3  A    between atoms: C_6  and  C_7
REMARK    4  A    between atoms: C_6  and  N_8
REMARK    5  A    between atoms: N_8  and  C_9
REMARK    6  A    between atoms: N_15  and  C_16
REMARK    7  A    between atoms: C_19  and  C_20
REMARK    8  A    between atoms: N_23  and  C_24
REMARK                            x       y       z     vdW  Elec       q    Type
REMARK                         _______ _______ _______ _____ _____    ______ ____
ROOT
ATOM      1  C   UNL     1       2.013   8.093  19.086  0.00  0.00    +0.000 A 
ATOM      2  C   UNL     1       1.562   7.481  20.253  0.00  0.00    +0.000 A 
ATOM      3  C   UNL     1       0.887   8.204  21.238  0.00  0.00    +0.000 A 
ATOM      4  C   UNL     1       0.632   9.569  21.078  0.00  0.00    +0.000 A 
ATOM      5  C   UNL     1       1.009  10.209  19.872  0.00  0.00    +0.000 A 
ATOM      6  C   UNL     1       1.695   9.449  18.898  0.00  0.00    +0.000 A 
ATOM      7  N   UNL     1       0.726  11.587  19.677  0.00  0.00    +0.000 N 
ATOM      8  C   UNL     1      -0.362  12.125  20.509  0.00  0.00    +0.000 C 
ATOM      9  C   UNL     1      -1.738  11.681  20.005  0.00  0.00    +0.000 C 
ATOM     10  C   UNL     1      -0.230  11.683  21.963  0.00  0.00    +0.000 C 
ATOM     11  O   UNL     1      -0.502  12.449  22.891  0.00  0.00    +0.000 OA
ATOM     12  N   UNL     1       0.042  10.329  22.138  0.00  0.00    +0.000 N 
ATOM     13  C   UNL     1      -0.238   9.722  23.423  0.00  0.00    +0.000 C 
ENDROOT
BRANCH   7  14
ATOM     14  C   UNL     1       1.112  12.317  18.461  0.00  0.00    +0.000 C 
ATOM     15  C   UNL     1       1.451  13.786  18.462  0.00  0.00    +0.000 C 
ATOM     16  C   UNL     1       2.539  12.772  18.296  0.00  0.00    +0.000 C 
ENDBRANCH   7  14
BRANCH   1  17
ATOM     17  N   UNL     1       2.700   7.416  18.071  0.00  0.00    +0.000 N 
ATOM     18  H   UNL     1       2.248   7.562  17.172  0.00  0.00    +0.000 HD
BRANCH  17  19
ATOM     19  C   UNL     1       3.135   6.026  18.271  0.00  0.00    +0.000 C 
ATOM     20  C   UNL     1       1.962   5.043  18.168  0.00  0.00    +0.000 C 
BRANCH  19  25
ATOM     21  C   UNL     1       6.729   4.328  13.984  0.00  0.00    +0.000 C 
ATOM     22  C   UNL     1       5.864   4.769  15.127  0.00  0.00    +0.000 A 
ATOM     23  C   UNL     1       5.286   3.835  15.993  0.00  0.00    +0.000 A 
ATOM     24  C   UNL     1       4.452   4.256  17.031  0.00  0.00    +0.000 A 
ATOM     25  C   UNL     1       4.177   5.622  17.233  0.00  0.00    +0.000 A 
ATOM     26  C   UNL     1       4.795   6.552  16.384  0.00  0.00    +0.000 A 
ATOM     27  C   UNL     1       5.632   6.130  15.346  0.00  0.00    +0.000 A 
ENDBRANCH  19  25
ENDBRANCH  17  19
ENDBRANCH   1  17
TORSDOF 4
ENDMDL
