MODEL 1
REMARK VINA RESULT:      -8.7      0.000      0.000
REMARK  Name = 
REMARK  6 active torsions:
REMARK  status: ('A' for Active; 'I' for Inactive)
REMARK    1  A    between atoms: C_1  and  S_2
REMARK    2  A    between atoms: S_2  and  N_5
REMARK    3  A    between atoms: N_5  and  C_6
REMARK    4  A    between atoms: C_9  and  C_10
REMARK    5  A    between atoms: C_12  and  C_13
REMARK    6  A    between atoms: N_17  and  C_18
REMARK                            x       y       z     vdW  Elec       q    Type
REMARK                         _______ _______ _______ _____ _____    ______ ____
ROOT
ATOM      1  C   UNL     1       3.493   6.581  18.027  0.00  0.00    +0.000 A 
ATOM      2  C   UNL     1       4.472   6.844  17.083  0.00  0.00    +0.000 A 
ATOM      3  C   UNL     1       5.242   5.669  16.966  0.00  0.00    +0.000 A 
ATOM      4  N   UNL     1       4.796   4.721  17.807  0.00  0.00    +0.000 NA
ATOM      5  N   UNL     1       3.643   5.226  18.326  0.00  0.00    +0.000 N 
ENDROOT
BRANCH   5   6
ATOM      6  C   UNL     1       2.822   4.373  19.109  0.00  0.00    +0.000 A 
ATOM      7  C   UNL     1       3.295   3.914  20.346  0.00  0.00    +0.000 A 
ATOM      8  C   UNL     1       2.446   3.194  21.190  0.00  0.00    +0.000 A 
ATOM      9  C   UNL     1       1.141   2.903  20.789  0.00  0.00    +0.000 A 
ATOM     10  C   UNL     1       0.694   3.297  19.528  0.00  0.00    +0.000 A 
ATOM     11  C   UNL     1       1.541   4.014  18.686  0.00  0.00    +0.000 A 
ATOM     12  F   UNL     1       1.104   4.307  17.455  0.00  0.00    +0.000 F 
ENDBRANCH   5   6
BRANCH   1  16
ATOM     13  C   UNL     1       0.683   9.334  19.731  0.00  0.00    +0.000 A 
ATOM     14  C   UNL     1       1.062   9.452  18.399  0.00  0.00    +0.000 A 
ATOM     15  C   UNL     1       1.984   8.554  17.853  0.00  0.00    +0.000 A 
ATOM     16  C   UNL     1       2.538   7.526  18.633  0.00  0.00    +0.000 A 
ATOM     17  C   UNL     1       2.172   7.455  19.987  0.00  0.00    +0.000 A 
ATOM     18  C   UNL     1       1.220   8.327  20.526  0.00  0.00    +0.000 A 
BRANCH  13  19
ATOM     19  N   UNL     1      -0.274  10.244  20.260  0.00  0.00    +0.000 N 
ATOM     20  H   UNL     1      -0.815  10.769  19.571  0.00  0.00    +0.000 HD
BRANCH  19  22
ATOM     21  C   UNL     1      -1.029  12.525  21.431  0.00  0.00    +0.000 C 
ATOM     22  S   UNL     1       0.218  11.262  21.514  0.00  0.00    +0.000 S 
ATOM     23  O   UNL     1       1.463  11.850  21.063  0.00  0.00    +0.000 OA
ATOM     24  O   UNL     1       0.131  10.582  22.787  0.00  0.00    +0.000 OA
ENDBRANCH  19  22
ENDBRANCH  13  19
ENDBRANCH   1  16
BRANCH   3  25
ATOM     25  C   UNL     1       6.426   5.449  16.078  0.00  0.00    +0.000 C 
ATOM     26  F   UNL     1       7.235   4.469  16.577  0.00  0.00    +0.000 F 
ATOM     27  F   UNL     1       6.042   5.018  14.844  0.00  0.00    +0.000 F 
ENDBRANCH   3  25
TORSDOF 5
ENDMDL
MODEL 2
REMARK VINA RESULT:      -8.7      0.963      1.390
REMARK  Name = 
REMARK  6 active torsions:
REMARK  status: ('A' for Active; 'I' for Inactive)
REMARK    1  A    between atoms: C_1  and  S_2
REMARK    2  A    between atoms: S_2  and  N_5
REMARK    3  A    between atoms: N_5  and  C_6
REMARK    4  A    between atoms: C_9  and  C_10
REMARK    5  A    between atoms: C_12  and  C_13
REMARK    6  A    between atoms: N_17  and  C_18
REMARK                            x       y       z     vdW  Elec       q    Type
REMARK                         _______ _______ _______ _____ _____    ______ ____
ROOT
ATOM      1  C   UNL     1       3.656   6.181  17.794  0.00  0.00    +0.000 A 
ATOM      2  C   UNL     1       4.570   6.406  16.778  0.00  0.00    +0.000 A 
ATOM      3  C   UNL     1       5.267   5.195  16.590  0.00  0.00    +0.000 A 
ATOM      4  N   UNL     1       4.840   4.260  17.455  0.00  0.00    +0.000 NA
ATOM      5  N   UNL     1       3.758   4.816  18.067  0.00  0.00    +0.000 N 
ENDROOT
BRANCH   5   6
ATOM      6  C   UNL     1       2.958   3.995  18.904  0.00  0.00    +0.000 A 
ATOM      7  C   UNL     1       3.527   3.427  20.052  0.00  0.00    +0.000 A 
ATOM      8  C   UNL     1       2.720   2.737  20.959  0.00  0.00    +0.000 A 
ATOM      9  C   UNL     1       1.354   2.585  20.708  0.00  0.00    +0.000 A 
ATOM     10  C   UNL     1       0.803   3.089  19.530  0.00  0.00    +0.000 A 
ATOM     11  C   UNL     1       1.608   3.776  18.625  0.00  0.00    +0.000 A 
ATOM     12  F   UNL     1       1.060   4.176  17.471  0.00  0.00    +0.000 F 
ENDBRANCH   5   6
BRANCH   1  16
ATOM     13  C   UNL     1       1.202   9.030  19.853  0.00  0.00    +0.000 A 
ATOM     14  C   UNL     1       1.617   7.868  20.493  0.00  0.00    +0.000 A 
ATOM     15  C   UNL     1       2.412   6.942  19.813  0.00  0.00    +0.000 A 
ATOM     16  C   UNL     1       2.801   7.165  18.482  0.00  0.00    +0.000 A 
ATOM     17  C   UNL     1       2.332   8.325  17.843  0.00  0.00    +0.000 A 
ATOM     18  C   UNL     1       1.571   9.273  18.534  0.00  0.00    +0.000 A 
BRANCH  13  19
ATOM     19  N   UNL     1       0.413   9.970  20.572  0.00  0.00    +0.000 N 
ATOM     20  H   UNL     1       0.682  10.949  20.465  0.00  0.00    +0.000 HD
BRANCH  19  22
ATOM     21  C   UNL     1      -0.810  11.105  22.660  0.00  0.00    +0.000 C 
ATOM     22  S   UNL     1       0.066   9.633  22.190  0.00  0.00    +0.000 S 
ATOM     23  O   UNL     1       1.347   9.653  22.867  0.00  0.00    +0.000 OA
ATOM     24  O   UNL     1      -0.816   8.492  22.295  0.00  0.00    +0.000 OA
ENDBRANCH  19  22
ENDBRANCH  13  19
ENDBRANCH   1  16
BRANCH   3  25
ATOM     25  C   UNL     1       6.366   4.927  15.610  0.00  0.00    +0.000 C 
ATOM     26  F   UNL     1       7.481   4.462  16.243  0.00  0.00    +0.000 F 
ATOM     27  F   UNL     1       6.009   3.954  14.726  0.00  0.00    +0.000 F 
ENDBRANCH   3  25
TORSDOF 5
ENDMDL
MODEL 3
REMARK VINA RESULT:      -8.5      1.293      1.714
REMARK  Name = 
REMARK  6 active torsions:
REMARK  status: ('A' for Active; 'I' for Inactive)
REMARK    1  A    between atoms: C_1  and  S_2
REMARK    2  A    between atoms: S_2  and  N_5
REMARK    3  A    between atoms: N_5  and  C_6
REMARK    4  A    between atoms: C_9  and  C_10
REMARK    5  A    between atoms: C_12  and  C_13
REMARK    6  A    between atoms: N_17  and  C_18
REMARK                            x       y       z     vdW  Elec       q    Type
REMARK                         _______ _______ _______ _____ _____    ______ ____
ROOT
ATOM      1  C   UNL     1       3.663   6.146  17.807  0.00  0.00    +0.000 A 
ATOM      2  C   UNL     1       4.599   6.265  16.793  0.00  0.00    +0.000 A 
ATOM      3  C   UNL     1       5.264   5.024  16.713  0.00  0.00    +0.000 A 
ATOM      4  N   UNL     1       4.796   4.173  17.641  0.00  0.00    +0.000 NA
ATOM      5  N   UNL     1       3.722   4.805  18.189  0.00  0.00    +0.000 N 
ENDROOT
BRANCH   5   6
ATOM      6  C   UNL     1       2.886   4.075  19.073  0.00  0.00    +0.000 A 
ATOM      7  C   UNL     1       3.411   3.614  20.289  0.00  0.00    +0.000 A 
ATOM      8  C   UNL     1       2.566   3.021  21.229  0.00  0.00    +0.000 A 
ATOM      9  C   UNL     1       1.208   2.858  20.948  0.00  0.00    +0.000 A 
ATOM     10  C   UNL     1       0.701   3.250  19.710  0.00  0.00    +0.000 A 
ATOM     11  C   UNL     1       1.543   3.840  18.771  0.00  0.00    +0.000 A 
ATOM     12  F   UNL     1       1.037   4.132  17.566  0.00  0.00    +0.000 F 
ENDBRANCH   5   6
BRANCH   1  16
ATOM     13  C   UNL     1       1.261   9.214  19.594  0.00  0.00    +0.000 A 
ATOM     14  C   UNL     1       1.620   8.088  20.326  0.00  0.00    +0.000 A 
ATOM     15  C   UNL     1       2.398   7.090  19.734  0.00  0.00    +0.000 A 
ATOM     16  C   UNL     1       2.827   7.204  18.401  0.00  0.00    +0.000 A 
ATOM     17  C   UNL     1       2.413   8.330  17.669  0.00  0.00    +0.000 A 
ATOM     18  C   UNL     1       1.669   9.350  18.271  0.00  0.00    +0.000 A 
BRANCH  13  19
ATOM     19  N   UNL     1       0.488  10.229  20.223  0.00  0.00    +0.000 N 
ATOM     20  H   UNL     1       0.071   9.977  21.121  0.00  0.00    +0.000 HD
BRANCH  19  22
ATOM     21  C   UNL     1      -1.590  11.882  20.531  0.00  0.00    +0.000 C 
ATOM     22  S   UNL     1      -0.631  11.069  19.276  0.00  0.00    +0.000 S 
ATOM     23  O   UNL     1      -1.468  10.048  18.680  0.00  0.00    +0.000 OA
ATOM     24  O   UNL     1       0.035  12.059  18.460  0.00  0.00    +0.000 OA
ENDBRANCH  19  22
ENDBRANCH  13  19
ENDBRANCH   1  16
BRANCH   3  25
ATOM     25  C   UNL     1       6.369   4.650  15.776  0.00  0.00    +0.000 C 
ATOM     26  F   UNL     1       7.511   4.354  16.462  0.00  0.00    +0.000 F 
ATOM     27  F   UNL     1       6.057   3.525  15.073  0.00  0.00    +0.000 F 
ENDBRANCH   3  25
TORSDOF 5
ENDMDL
MODEL 4
REMARK VINA RESULT:      -8.5      0.784      1.357
REMARK  Name = 
REMARK  6 active torsions:
REMARK  status: ('A' for Active; 'I' for Inactive)
REMARK    1  A    between atoms: C_1  and  S_2
REMARK    2  A    between atoms: S_2  and  N_5
REMARK    3  A    between atoms: N_5  and  C_6
REMARK    4  A    between atoms: C_9  and  C_10
REMARK    5  A    between atoms: C_12  and  C_13
REMARK    6  A    between atoms: N_17  and  C_18
REMARK                            x       y       z     vdW  Elec       q    Type
REMARK                         _______ _______ _______ _____ _____    ______ ____
ROOT
ATOM      1  C   UNL     1       3.663   6.532  18.105  0.00  0.00    +0.000 A 
ATOM      2  C   UNL     1       4.745   6.737  17.265  0.00  0.00    +0.000 A 
ATOM      3  C   UNL     1       5.513   5.555  17.305  0.00  0.00    +0.000 A 
ATOM      4  N   UNL     1       4.965   4.659  18.143  0.00  0.00    +0.000 NA
ATOM      5  N   UNL     1       3.765   5.196  18.496  0.00  0.00    +0.000 N 
ENDROOT
BRANCH   5   6
ATOM      6  C   UNL     1       2.853   4.393  19.228  0.00  0.00    +0.000 A 
ATOM      7  C   UNL     1       3.167   4.023  20.543  0.00  0.00    +0.000 A 
ATOM      8  C   UNL     1       2.220   3.355  21.322  0.00  0.00    +0.000 A 
ATOM      9  C   UNL     1       0.974   3.028  20.784  0.00  0.00    +0.000 A 
ATOM     10  C   UNL     1       0.689   3.331  19.453  0.00  0.00    +0.000 A 
ATOM     11  C   UNL     1       1.634   3.996  18.675  0.00  0.00    +0.000 A 
ATOM     12  F   UNL     1       1.354   4.200  17.382  0.00  0.00    +0.000 F 
ENDBRANCH   5   6
BRANCH   1  16
ATOM     13  C   UNL     1       0.758   9.389  19.437  0.00  0.00    +0.000 A 
ATOM     14  C   UNL     1       1.268   8.443  20.319  0.00  0.00    +0.000 A 
ATOM     15  C   UNL     1       2.210   7.511  19.874  0.00  0.00    +0.000 A 
ATOM     16  C   UNL     1       2.654   7.514  18.542  0.00  0.00    +0.000 A 
ATOM     17  C   UNL     1       2.091   8.451  17.661  0.00  0.00    +0.000 A 
ATOM     18  C   UNL     1       1.179   9.411  18.112  0.00  0.00    +0.000 A 
BRANCH  13  19
ATOM     19  N   UNL     1      -0.182  10.342  19.917  0.00  0.00    +0.000 N 
ATOM     20  H   UNL     1      -1.028  10.453  19.355  0.00  0.00    +0.000 HD
BRANCH  19  22
ATOM     21  C   UNL     1      -1.079  12.600  21.033  0.00  0.00    +0.000 C 
ATOM     22  S   UNL     1       0.402  11.853  20.396  0.00  0.00    +0.000 S 
ATOM     23  O   UNL     1       0.741  12.539  19.166  0.00  0.00    +0.000 OA
ATOM     24  O   UNL     1       1.368  11.711  21.463  0.00  0.00    +0.000 OA
ENDBRANCH  19  22
ENDBRANCH  13  19
ENDBRANCH   1  16
BRANCH   3  25
ATOM     25  C   UNL     1       6.789   5.280  16.572  0.00  0.00    +0.000 C 
ATOM     26  F   UNL     1       7.588   6.386  16.555  0.00  0.00    +0.000 F 
ATOM     27  F   UNL     1       7.514   4.310  17.195  0.00  0.00    +0.000 F 
ENDBRANCH   3  25
TORSDOF 5
ENDMDL
MODEL 5
REMARK VINA RESULT:      -8.4      1.483      1.801
REMARK  Name = 
REMARK  6 active torsions:
REMARK  status: ('A' for Active; 'I' for Inactive)
REMARK    1  A    between atoms: C_1  and  S_2
REMARK    2  A    between atoms: S_2  and  N_5
REMARK    3  A    between atoms: N_5  and  C_6
REMARK    4  A    between atoms: C_9  and  C_10
REMARK    5  A    between atoms: C_12  and  C_13
REMARK    6  A    between atoms: N_17  and  C_18
REMARK                            x       y       z     vdW  Elec       q    Type
REMARK                         _______ _______ _______ _____ _____    ______ ____
ROOT
ATOM      1  C   UNL     1       3.732   6.242  17.441  0.00  0.00    +0.000 A 
ATOM      2  C   UNL     1       4.649   6.552  16.451  0.00  0.00    +0.000 A 
ATOM      3  C   UNL     1       5.297   5.346  16.113  0.00  0.00    +0.000 A 
ATOM      4  N   UNL     1       4.837   4.331  16.864  0.00  0.00    +0.000 NA
ATOM      5  N   UNL     1       3.782   4.852  17.549  0.00  0.00    +0.000 N 
ENDROOT
BRANCH   5   6
ATOM      6  C   UNL     1       2.954   3.968  18.290  0.00  0.00    +0.000 A 
ATOM      7  C   UNL     1       1.619   3.792  17.900  0.00  0.00    +0.000 A 
ATOM      8  C   UNL     1       0.834   2.822  18.528  0.00  0.00    +0.000 A 
ATOM      9  C   UNL     1       1.367   2.051  19.563  0.00  0.00    +0.000 A 
ATOM     10  C   UNL     1       2.673   2.277  19.999  0.00  0.00    +0.000 A 
ATOM     11  C   UNL     1       3.455   3.245  19.374  0.00  0.00    +0.000 A 
ATOM     12  F   UNL     1       4.675   3.486  19.870  0.00  0.00    +0.000 F 
ENDBRANCH   5   6
BRANCH   1  16
ATOM     13  C   UNL     1       1.338   8.956  19.740  0.00  0.00    +0.000 A 
ATOM     14  C   UNL     1       1.671   9.255  18.424  0.00  0.00    +0.000 A 
ATOM     15  C   UNL     1       2.457   8.368  17.684  0.00  0.00    +0.000 A 
ATOM     16  C   UNL     1       2.921   7.169  18.250  0.00  0.00    +0.000 A 
ATOM     17  C   UNL     1       2.607   6.911  19.595  0.00  0.00    +0.000 A 
ATOM     18  C   UNL     1       1.788   7.777  20.326  0.00  0.00    +0.000 A 
BRANCH  13  19
ATOM     19  N   UNL     1       0.518   9.862  20.467  0.00  0.00    +0.000 N 
ATOM     20  H   UNL     1       0.792  10.845  20.420  0.00  0.00    +0.000 HD
BRANCH  19  22
ATOM     21  C   UNL     1      -0.859  10.867  22.526  0.00  0.00    +0.000 C 
ATOM     22  S   UNL     1       0.100   9.449  22.051  0.00  0.00    +0.000 S 
ATOM     23  O   UNL     1       1.341   9.492  22.797  0.00  0.00    +0.000 OA
ATOM     24  O   UNL     1      -0.740   8.272  22.065  0.00  0.00    +0.000 OA
ENDBRANCH  19  22
ENDBRANCH  13  19
ENDBRANCH   1  16
BRANCH   3  25
ATOM     25  C   UNL     1       6.378   5.155  15.097  0.00  0.00    +0.000 C 
ATOM     26  F   UNL     1       7.546   4.777  15.693  0.00  0.00    +0.000 F 
ATOM     27  F   UNL     1       6.066   4.152  14.228  0.00  0.00    +0.000 F 
ENDBRANCH   3  25
TORSDOF 5
ENDMDL
MODEL 6
REMARK VINA RESULT:      -8.4      1.329      1.463
REMARK  Name = 
REMARK  6 active torsions:
REMARK  status: ('A' for Active; 'I' for Inactive)
REMARK    1  A    between atoms: C_1  and  S_2
REMARK    2  A    between atoms: S_2  and  N_5
REMARK    3  A    between atoms: N_5  and  C_6
REMARK    4  A    between atoms: C_9  and  C_10
REMARK    5  A    between atoms: C_12  and  C_13
REMARK    6  A    between atoms: N_17  and  C_18
REMARK                            x       y       z     vdW  Elec       q    Type
REMARK                         _______ _______ _______ _____ _____    ______ ____
ROOT
ATOM      1  C   UNL     1       3.588   6.195  17.836  0.00  0.00    +0.000 A 
ATOM      2  C   UNL     1       4.499   6.339  16.802  0.00  0.00    +0.000 A 
ATOM      3  C   UNL     1       5.152   5.097  16.666  0.00  0.00    +0.000 A 
ATOM      4  N   UNL     1       4.702   4.220  17.578  0.00  0.00    +0.000 NA
ATOM      5  N   UNL     1       3.647   4.842  18.173  0.00  0.00    +0.000 N 
ENDROOT
BRANCH   5   6
ATOM      6  C   UNL     1       2.828   4.090  19.056  0.00  0.00    +0.000 A 
ATOM      7  C   UNL     1       3.367   3.627  20.264  0.00  0.00    +0.000 A 
ATOM      8  C   UNL     1       2.538   3.012  21.204  0.00  0.00    +0.000 A 
ATOM      9  C   UNL     1       1.181   2.829  20.929  0.00  0.00    +0.000 A 
ATOM     10  C   UNL     1       0.660   3.224  19.697  0.00  0.00    +0.000 A 
ATOM     11  C   UNL     1       1.488   3.837  18.759  0.00  0.00    +0.000 A 
ATOM     12  F   UNL     1       0.970   4.131  17.560  0.00  0.00    +0.000 F 
ENDBRANCH   5   6
BRANCH   1  16
ATOM     13  C   UNL     1       1.195   9.247  19.662  0.00  0.00    +0.000 A 
ATOM     14  C   UNL     1       1.636   9.391  18.351  0.00  0.00    +0.000 A 
ATOM     15  C   UNL     1       2.421   8.394  17.766  0.00  0.00    +0.000 A 
ATOM     16  C   UNL     1       2.776   7.240  18.484  0.00  0.00    +0.000 A 
ATOM     17  C   UNL     1       2.355   7.139  19.820  0.00  0.00    +0.000 A 
ATOM     18  C   UNL     1       1.536   8.116  20.396  0.00  0.00    +0.000 A 
BRANCH  13  19
ATOM     19  N   UNL     1       0.378  10.263  20.230  0.00  0.00    +0.000 N 
ATOM     20  H   UNL     1      -0.105  10.013  21.094  0.00  0.00    +0.000 HD
BRANCH  19  22
ATOM     21  C   UNL     1      -1.692  11.948  20.378  0.00  0.00    +0.000 C 
ATOM     22  S   UNL     1      -0.665  11.102  19.200  0.00  0.00    +0.000 S 
ATOM     23  O   UNL     1      -1.477  10.083  18.567  0.00  0.00    +0.000 OA
ATOM     24  O   UNL     1       0.065  12.071  18.414  0.00  0.00    +0.000 OA
ENDBRANCH  19  22
ENDBRANCH  13  19
ENDBRANCH   1  16
BRANCH   3  25
ATOM     25  C   UNL     1       6.230   4.745  15.690  0.00  0.00    +0.000 C 
ATOM     26  F   UNL     1       6.172   3.423  15.355  0.00  0.00    +0.000 F 
ATOM     27  F   UNL     1       6.078   5.429  14.522  0.00  0.00    +0.000 F 
ENDBRANCH   3  25
TORSDOF 5
ENDMDL
MODEL 7
REMARK VINA RESULT:      -8.3      1.421      1.877
REMARK  Name = 
REMARK  6 active torsions:
REMARK  status: ('A' for Active; 'I' for Inactive)
REMARK    1  A    between atoms: C_1  and  S_2
REMARK    2  A    between atoms: S_2  and  N_5
REMARK    3  A    between atoms: N_5  and  C_6
REMARK    4  A    between atoms: C_9  and  C_10
REMARK    5  A    between atoms: C_12  and  C_13
REMARK    6  A    between atoms: N_17  and  C_18
REMARK                            x       y       z     vdW  Elec       q    Type
REMARK                         _______ _______ _______ _____ _____    ______ ____
ROOT
ATOM      1  C   UNL     1       3.725   5.957  17.769  0.00  0.00    +0.000 A 
ATOM      2  C   UNL     1       4.665   6.028  16.754  0.00  0.00    +0.000 A 
ATOM      3  C   UNL     1       5.290   4.766  16.697  0.00  0.00    +0.000 A 
ATOM      4  N   UNL     1       4.795   3.946  17.639  0.00  0.00    +0.000 NA
ATOM      5  N   UNL     1       3.741   4.622  18.175  0.00  0.00    +0.000 N 
ENDROOT
BRANCH   5   6
ATOM      6  C   UNL     1       2.882   3.935  19.071  0.00  0.00    +0.000 A 
ATOM      7  C   UNL     1       3.398   3.455  20.283  0.00  0.00    +0.000 A 
ATOM      8  C   UNL     1       2.537   2.906  21.235  0.00  0.00    +0.000 A 
ATOM      9  C   UNL     1       1.170   2.805  20.970  0.00  0.00    +0.000 A 
ATOM     10  C   UNL     1       0.668   3.217  19.736  0.00  0.00    +0.000 A 
ATOM     11  C   UNL     1       1.526   3.763  18.785  0.00  0.00    +0.000 A 
ATOM     12  F   UNL     1       1.021   4.075  17.585  0.00  0.00    +0.000 F 
ENDBRANCH   5   6
BRANCH   1  16
ATOM     13  C   UNL     1       1.419   9.131  19.497  0.00  0.00    +0.000 A 
ATOM     14  C   UNL     1       1.693   7.982  20.231  0.00  0.00    +0.000 A 
ATOM     15  C   UNL     1       2.441   6.950  19.657  0.00  0.00    +0.000 A 
ATOM     16  C   UNL     1       2.923   7.053  18.342  0.00  0.00    +0.000 A 
ATOM     17  C   UNL     1       2.594   8.204  17.607  0.00  0.00    +0.000 A 
ATOM     18  C   UNL     1       1.881   9.256  18.191  0.00  0.00    +0.000 A 
BRANCH  13  19
ATOM     19  N   UNL     1       0.676  10.179  20.108  0.00  0.00    +0.000 N 
ATOM     20  H   UNL     1       0.344   9.994  21.056  0.00  0.00    +0.000 HD
BRANCH  19  22
ATOM     21  C   UNL     1       0.300  12.377  18.634  0.00  0.00    +0.000 C 
ATOM     22  S   UNL     1      -0.541  10.916  19.197  0.00  0.00    +0.000 S 
ATOM     23  O   UNL     1      -1.539  11.333  20.161  0.00  0.00    +0.000 OA
ATOM     24  O   UNL     1      -0.895  10.095  18.061  0.00  0.00    +0.000 OA
ENDBRANCH  19  22
ENDBRANCH  13  19
ENDBRANCH   1  16
BRANCH   3  25
ATOM     25  C   UNL     1       6.383   4.339  15.768  0.00  0.00    +0.000 C 
ATOM     26  F   UNL     1       6.506   5.212  14.726  0.00  0.00    +0.000 F 
ATOM     27  F   UNL     1       7.592   4.343  16.397  0.00  0.00    +0.000 F 
ENDBRANCH   3  25
TORSDOF 5
ENDMDL
MODEL 8
REMARK VINA RESULT:      -8.3      2.138      4.013
REMARK  Name = 
REMARK  6 active torsions:
REMARK  status: ('A' for Active; 'I' for Inactive)
REMARK    1  A    between atoms: C_1  and  S_2
REMARK    2  A    between atoms: S_2  and  N_5
REMARK    3  A    between atoms: N_5  and  C_6
REMARK    4  A    between atoms: C_9  and  C_10
REMARK    5  A    between atoms: C_12  and  C_13
REMARK    6  A    between atoms: N_17  and  C_18
REMARK                            x       y       z     vdW  Elec       q    Type
REMARK                         _______ _______ _______ _____ _____    ______ ____
ROOT
ATOM      1  C   UNL     1       2.817   5.496  18.454  0.00  0.00    +0.000 A 
ATOM      2  C   UNL     1       2.026   4.359  18.415  0.00  0.00    +0.000 A 
ATOM      3  C   UNL     1       2.856   3.308  17.975  0.00  0.00    +0.000 A 
ATOM      4  N   UNL     1       4.098   3.754  17.723  0.00  0.00    +0.000 NA
ATOM      5  N   UNL     1       4.105   5.041  18.167  0.00  0.00    +0.000 N 
ENDROOT
BRANCH   5   6
ATOM      6  C   UNL     1       5.344   5.732  18.220  0.00  0.00    +0.000 A 
ATOM      7  C   UNL     1       6.216   5.493  19.292  0.00  0.00    +0.000 A 
ATOM      8  C   UNL     1       7.495   6.054  19.284  0.00  0.00    +0.000 A 
ATOM      9  C   UNL     1       7.894   6.876  18.228  0.00  0.00    +0.000 A 
ATOM     10  C   UNL     1       7.001   7.171  17.198  0.00  0.00    +0.000 A 
ATOM     11  C   UNL     1       5.725   6.613  17.206  0.00  0.00    +0.000 A 
ATOM     12  F   UNL     1       4.871   6.980  16.243  0.00  0.00    +0.000 F 
ENDBRANCH   5   6
BRANCH   1  16
ATOM     13  C   UNL     1       1.562   9.549  19.068  0.00  0.00    +0.000 A 
ATOM     14  C   UNL     1       1.938   9.114  17.802  0.00  0.00    +0.000 A 
ATOM     15  C   UNL     1       2.352   7.793  17.612  0.00  0.00    +0.000 A 
ATOM     16  C   UNL     1       2.396   6.889  18.686  0.00  0.00    +0.000 A 
ATOM     17  C   UNL     1       2.054   7.365  19.963  0.00  0.00    +0.000 A 
ATOM     18  C   UNL     1       1.601   8.674  20.149  0.00  0.00    +0.000 A 
BRANCH  13  19
ATOM     19  N   UNL     1       1.123  10.891  19.234  0.00  0.00    +0.000 N 
ATOM     20  H   UNL     1       1.634  11.444  19.924  0.00  0.00    +0.000 HD
BRANCH  19  22
ATOM     21  C   UNL     1      -0.689  12.752  18.601  0.00  0.00    +0.000 C 
ATOM     22  S   UNL     1      -0.538  11.163  19.382  0.00  0.00    +0.000 S 
ATOM     23  O   UNL     1      -0.768  11.352  20.801  0.00  0.00    +0.000 OA
ATOM     24  O   UNL     1      -1.285  10.182  18.628  0.00  0.00    +0.000 OA
ENDBRANCH  19  22
ENDBRANCH  13  19
ENDBRANCH   1  16
BRANCH   3  25
ATOM     25  C   UNL     1       2.467   1.879  17.762  0.00  0.00    +0.000 C 
ATOM     26  F   UNL     1       3.405   1.035  18.283  0.00  0.00    +0.000 F 
ATOM     27  F   UNL     1       1.305   1.584  18.409  0.00  0.00    +0.000 F 
ENDBRANCH   3  25
TORSDOF 5
ENDMDL
MODEL 9
REMARK VINA RESULT:      -8.3      1.020      1.435
REMARK  Name = 
REMARK  6 active torsions:
REMARK  status: ('A' for Active; 'I' for Inactive)
REMARK    1  A    between atoms: C_1  and  S_2
REMARK    2  A    between atoms: S_2  and  N_5
REMARK    3  A    between atoms: N_5  and  C_6
REMARK    4  A    between atoms: C_9  and  C_10
REMARK    5  A    between atoms: C_12  and  C_13
REMARK    6  A    between atoms: N_17  and  C_18
REMARK                            x       y       z     vdW  Elec       q    Type
REMARK                         _______ _______ _______ _____ _____    ______ ____
ROOT
ATOM      1  C   UNL     1       3.472   6.664  18.061  0.00  0.00    +0.000 A 
ATOM      2  C   UNL     1       4.586   6.934  17.283  0.00  0.00    +0.000 A 
ATOM      3  C   UNL     1       5.277   5.714  17.136  0.00  0.00    +0.000 A 
ATOM      4  N   UNL     1       4.653   4.729  17.803  0.00  0.00    +0.000 NA
ATOM      5  N   UNL     1       3.481   5.278  18.224  0.00  0.00    +0.000 N 
ENDROOT
BRANCH   5   6
ATOM      6  C   UNL     1       2.501   4.426  18.797  0.00  0.00    +0.000 A 
ATOM      7  C   UNL     1       1.554   3.814  17.964  0.00  0.00    +0.000 A 
ATOM      8  C   UNL     1       0.676   2.864  18.492  0.00  0.00    +0.000 A 
ATOM      9  C   UNL     1       0.720   2.547  19.851  0.00  0.00    +0.000 A 
ATOM     10  C   UNL     1       1.614   3.208  20.692  0.00  0.00    +0.000 A 
ATOM     11  C   UNL     1       2.488   4.157  20.167  0.00  0.00    +0.000 A 
ATOM     12  F   UNL     1       3.277   4.826  21.018  0.00  0.00    +0.000 F 
ENDBRANCH   5   6
BRANCH   1  16
ATOM     13  C   UNL     1       0.658   9.456  19.693  0.00  0.00    +0.000 A 
ATOM     14  C   UNL     1       1.036   9.540  18.358  0.00  0.00    +0.000 A 
ATOM     15  C   UNL     1       1.959   8.629  17.836  0.00  0.00    +0.000 A 
ATOM     16  C   UNL     1       2.516   7.623  18.642  0.00  0.00    +0.000 A 
ATOM     17  C   UNL     1       2.151   7.588  19.999  0.00  0.00    +0.000 A 
ATOM     18  C   UNL     1       1.198   8.471  20.515  0.00  0.00    +0.000 A 
BRANCH  13  19
ATOM     19  N   UNL     1      -0.299  10.378  20.198  0.00  0.00    +0.000 N 
ATOM     20  H   UNL     1      -0.817  10.910  19.497  0.00  0.00    +0.000 HD
BRANCH  19  22
ATOM     21  C   UNL     1      -1.059  12.665  21.355  0.00  0.00    +0.000 C 
ATOM     22  S   UNL     1       0.174  11.390  21.466  0.00  0.00    +0.000 S 
ATOM     23  O   UNL     1       1.435  11.966  21.044  0.00  0.00    +0.000 OA
ATOM     24  O   UNL     1       0.051  10.709  22.735  0.00  0.00    +0.000 OA
ENDBRANCH  19  22
ENDBRANCH  13  19
ENDBRANCH   1  16
BRANCH   3  25
ATOM     25  C   UNL     1       6.551   5.481  16.386  0.00  0.00    +0.000 C 
ATOM     26  F   UNL     1       7.462   6.460  16.658  0.00  0.00    +0.000 F 
ATOM     27  F   UNL     1       7.139   4.313  16.767  0.00  0.00    +0.000 F 
ENDBRANCH   3  25
TORSDOF 5
ENDMDL
