MODEL 1
REMARK VINA RESULT:      -7.8      0.000      0.000
REMARK  Name = 
REMARK  6 active torsions:
REMARK  status: ('A' for Active; 'I' for Inactive)
REMARK    1  A    between atoms: S_2  and  C_4
REMARK    2  A    between atoms: S_2  and  N_10
REMARK    3  A    between atoms: N_10  and  C_11
REMARK    4  A    between atoms: N_10  and  C_19
REMARK    5  A    between atoms: C_11  and  C_12
REMARK    6  A    between atoms: C_12  and  C_13
REMARK                            x       y       z     vdW  Elec       q    Type
REMARK                         _______ _______ _______ _____ _____    ______ ____
ROOT
ATOM      1  N   UNL     1       4.583   5.685  17.483  0.00  0.00    +0.000 N 
ENDROOT
BRANCH   1   2
ATOM      2  C   UNL     1       5.257   5.318  16.268  0.00  0.00    +0.000 A 
ATOM      3  C   UNL     1       4.681   4.460  15.365  0.00  0.00    +0.000 A 
ATOM      4  C   UNL     1       5.484   4.266  14.193  0.00  0.00    +0.000 A 
ATOM      5  C   UNL     1       5.241   3.499  13.028  0.00  0.00    +0.000 A 
ATOM      6  C   UNL     1       6.215   3.401  12.030  0.00  0.00    +0.000 A 
ATOM      7  C   UNL     1       7.437   4.043  12.180  0.00  0.00    +0.000 A 
ATOM      8  C   UNL     1       7.692   4.836  13.302  0.00  0.00    +0.000 A 
ATOM      9  C   UNL     1       6.694   4.960  14.290  0.00  0.00    +0.000 A 
ATOM     10  S   UNL     1       6.731   5.945  15.707  0.00  0.00    +0.000 S 
ENDBRANCH   1   2
BRANCH   1  12
ATOM     11  O   UNL     1       5.332   5.409  19.930  0.00  0.00    +0.000 OA
ATOM     12  S   UNL     1       4.881   4.620  18.798  0.00  0.00    +0.000 S 
ATOM     13  O   UNL     1       5.697   3.526  18.316  0.00  0.00    +0.000 OA
BRANCH  12  14
ATOM     14  C   UNL     1       3.294   3.926  19.238  0.00  0.00    +0.000 A 
ATOM     15  C   UNL     1       2.987   3.673  20.579  0.00  0.00    +0.000 A 
ATOM     16  C   UNL     1       1.720   3.186  20.916  0.00  0.00    +0.000 A 
ATOM     17  C   UNL     1       0.762   2.973  19.923  0.00  0.00    +0.000 A 
ATOM     18  C   UNL     1       1.054   3.268  18.594  0.00  0.00    +0.000 A 
ATOM     19  C   UNL     1       2.315   3.758  18.248  0.00  0.00    +0.000 A 
ENDBRANCH  12  14
ENDBRANCH   1  12
BRANCH   1  20
ATOM     20  C   UNL     1       4.422   7.126  17.818  0.00  0.00    +0.000 C 
BRANCH  20  21
ATOM     21  C   UNL     1       3.022   7.617  17.396  0.00  0.00    +0.000 C 
BRANCH  21  22
ATOM     22  C   UNL     1       2.207   8.054  18.591  0.00  0.00    +0.000 A 
ATOM     23  C   UNL     1       1.479   9.250  18.554  0.00  0.00    +0.000 A 
ATOM     24  C   UNL     1       0.774   9.684  19.677  0.00  0.00    +0.000 A 
ATOM     25  C   UNL     1       0.785   8.924  20.846  0.00  0.00    +0.000 A 
ATOM     26  C   UNL     1       1.494   7.725  20.889  0.00  0.00    +0.000 A 
ATOM     27  C   UNL     1       2.202   7.290  19.767  0.00  0.00    +0.000 A 
ENDBRANCH  21  22
ENDBRANCH  20  21
ENDBRANCH   1  20
TORSDOF 6
ENDMDL
MODEL 2
REMARK VINA RESULT:      -7.6      1.365      6.513
REMARK  Name = 
REMARK  6 active torsions:
REMARK  status: ('A' for Active; 'I' for Inactive)
REMARK    1  A    between atoms: S_2  and  C_4
REMARK    2  A    between atoms: S_2  and  N_10
REMARK    3  A    between atoms: N_10  and  C_11
REMARK    4  A    between atoms: N_10  and  C_19
REMARK    5  A    between atoms: C_11  and  C_12
REMARK    6  A    between atoms: C_12  and  C_13
REMARK                            x       y       z     vdW  Elec       q    Type
REMARK                         _______ _______ _______ _____ _____    ______ ____
ROOT
ATOM      1  N   UNL     1       4.954   5.059  17.441  0.00  0.00    +0.000 N 
ENDROOT
BRANCH   1   2
ATOM      2  C   UNL     1       4.053   6.023  18.010  0.00  0.00    +0.000 A 
ATOM      3  C   UNL     1       3.502   7.021  17.245  0.00  0.00    +0.000 A 
ATOM      4  C   UNL     1       2.585   7.841  17.981  0.00  0.00    +0.000 A 
ATOM      5  C   UNL     1       1.792   8.937  17.563  0.00  0.00    +0.000 A 
ATOM      6  C   UNL     1       1.015   9.642  18.488  0.00  0.00    +0.000 A 
ATOM      7  C   UNL     1       1.026   9.282  19.828  0.00  0.00    +0.000 A 
ATOM      8  C   UNL     1       1.771   8.183  20.264  0.00  0.00    +0.000 A 
ATOM      9  C   UNL     1       2.527   7.455  19.323  0.00  0.00    +0.000 A 
ATOM     10  S   UNL     1       3.445   6.018  19.594  0.00  0.00    +0.000 S 
ENDBRANCH   1   2
BRANCH   1  12
ATOM     11  O   UNL     1       7.518   5.269  17.360  0.00  0.00    +0.000 OA
ATOM     12  S   UNL     1       6.329   5.752  16.679  0.00  0.00    +0.000 S 
ATOM     13  O   UNL     1       6.105   7.176  16.552  0.00  0.00    +0.000 OA
BRANCH  12  14
ATOM     14  C   UNL     1       6.363   5.083  15.023  0.00  0.00    +0.000 A 
ATOM     15  C   UNL     1       7.479   5.292  14.204  0.00  0.00    +0.000 A 
ATOM     16  C   UNL     1       7.518   4.713  12.932  0.00  0.00    +0.000 A 
ATOM     17  C   UNL     1       6.459   3.916  12.489  0.00  0.00    +0.000 A 
ATOM     18  C   UNL     1       5.371   3.673  13.322  0.00  0.00    +0.000 A 
ATOM     19  C   UNL     1       5.324   4.244  14.595  0.00  0.00    +0.000 A 
ENDBRANCH  12  14
ENDBRANCH   1  12
BRANCH   1  20
ATOM     20  C   UNL     1       5.163   3.760  18.137  0.00  0.00    +0.000 C 
BRANCH  20  21
ATOM     21  C   UNL     1       3.990   2.803  17.840  0.00  0.00    +0.000 C 
BRANCH  21  22
ATOM     22  C   UNL     1       3.016   2.750  18.994  0.00  0.00    +0.000 A 
ATOM     23  C   UNL     1       1.645   2.936  18.775  0.00  0.00    +0.000 A 
ATOM     24  C   UNL     1       0.751   2.946  19.846  0.00  0.00    +0.000 A 
ATOM     25  C   UNL     1       1.219   2.766  21.147  0.00  0.00    +0.000 A 
ATOM     26  C   UNL     1       2.579   2.567  21.376  0.00  0.00    +0.000 A 
ATOM     27  C   UNL     1       3.475   2.558  20.306  0.00  0.00    +0.000 A 
ENDBRANCH  21  22
ENDBRANCH  20  21
ENDBRANCH   1  20
TORSDOF 6
ENDMDL
MODEL 3
REMARK VINA RESULT:      -7.5      2.652      6.488
REMARK  Name = 
REMARK  6 active torsions:
REMARK  status: ('A' for Active; 'I' for Inactive)
REMARK    1  A    between atoms: S_2  and  C_4
REMARK    2  A    between atoms: S_2  and  N_10
REMARK    3  A    between atoms: N_10  and  C_11
REMARK    4  A    between atoms: N_10  and  C_19
REMARK    5  A    between atoms: C_11  and  C_12
REMARK    6  A    between atoms: C_12  and  C_13
REMARK                            x       y       z     vdW  Elec       q    Type
REMARK                         _______ _______ _______ _____ _____    ______ ____
ROOT
ATOM      1  N   UNL     1       4.268   5.053  17.011  0.00  0.00    +0.000 N 
ENDROOT
BRANCH   1   2
ATOM      2  C   UNL     1       3.546   6.037  17.769  0.00  0.00    +0.000 A 
ATOM      3  C   UNL     1       2.954   7.114  17.158  0.00  0.00    +0.000 A 
ATOM      4  C   UNL     1       2.233   7.946  18.077  0.00  0.00    +0.000 A 
ATOM      5  C   UNL     1       1.466   9.116  17.852  0.00  0.00    +0.000 A 
ATOM      6  C   UNL     1       0.905   9.811  18.927  0.00  0.00    +0.000 A 
ATOM      7  C   UNL     1       1.107   9.369  20.228  0.00  0.00    +0.000 A 
ATOM      8  C   UNL     1       1.830   8.199  20.478  0.00  0.00    +0.000 A 
ATOM      9  C   UNL     1       2.365   7.482  19.389  0.00  0.00    +0.000 A 
ATOM     10  S   UNL     1       3.206   5.975  19.431  0.00  0.00    +0.000 S 
ENDBRANCH   1   2
BRANCH   1  12
ATOM     11  O   UNL     1       5.017   6.752  15.227  0.00  0.00    +0.000 OA
ATOM     12  S   UNL     1       5.554   5.700  16.072  0.00  0.00    +0.000 S 
ATOM     13  O   UNL     1       6.273   4.597  15.472  0.00  0.00    +0.000 OA
BRANCH  12  14
ATOM     14  C   UNL     1       6.669   6.474  17.233  0.00  0.00    +0.000 A 
ATOM     15  C   UNL     1       7.244   5.721  18.264  0.00  0.00    +0.000 A 
ATOM     16  C   UNL     1       8.161   6.324  19.129  0.00  0.00    +0.000 A 
ATOM     17  C   UNL     1       8.516   7.664  18.955  0.00  0.00    +0.000 A 
ATOM     18  C   UNL     1       7.978   8.399  17.903  0.00  0.00    +0.000 A 
ATOM     19  C   UNL     1       7.064   7.804  17.031  0.00  0.00    +0.000 A 
ENDBRANCH  12  14
ENDBRANCH   1  12
BRANCH   1  20
ATOM     20  C   UNL     1       4.485   3.702  17.594  0.00  0.00    +0.000 C 
BRANCH  20  21
ATOM     21  C   UNL     1       3.178   2.883  17.538  0.00  0.00    +0.000 C 
BRANCH  21  22
ATOM     22  C   UNL     1       2.528   2.789  18.899  0.00  0.00    +0.000 A 
ATOM     23  C   UNL     1       1.146   2.971  19.039  0.00  0.00    +0.000 A 
ATOM     24  C   UNL     1       0.553   2.942  20.301  0.00  0.00    +0.000 A 
ATOM     25  C   UNL     1       1.334   2.727  21.435  0.00  0.00    +0.000 A 
ATOM     26  C   UNL     1       2.708   2.531  21.306  0.00  0.00    +0.000 A 
ATOM     27  C   UNL     1       3.304   2.561  20.044  0.00  0.00    +0.000 A 
ENDBRANCH  21  22
ENDBRANCH  20  21
ENDBRANCH   1  20
TORSDOF 6
ENDMDL
MODEL 4
REMARK VINA RESULT:      -7.5      1.454      6.374
REMARK  Name = 
REMARK  6 active torsions:
REMARK  status: ('A' for Active; 'I' for Inactive)
REMARK    1  A    between atoms: S_2  and  C_4
REMARK    2  A    between atoms: S_2  and  N_10
REMARK    3  A    between atoms: N_10  and  C_11
REMARK    4  A    between atoms: N_10  and  C_19
REMARK    5  A    between atoms: C_11  and  C_12
REMARK    6  A    between atoms: C_12  and  C_13
REMARK                            x       y       z     vdW  Elec       q    Type
REMARK                         _______ _______ _______ _____ _____    ______ ____
ROOT
ATOM      1  N   UNL     1       5.244   4.787  18.319  0.00  0.00    +0.000 N 
ENDROOT
BRANCH   1   2
ATOM      2  C   UNL     1       4.292   5.862  18.368  0.00  0.00    +0.000 A 
ATOM      3  C   UNL     1       3.532   6.089  19.488  0.00  0.00    +0.000 A 
ATOM      4  C   UNL     1       2.687   7.241  19.362  0.00  0.00    +0.000 A 
ATOM      5  C   UNL     1       1.789   7.829  20.285  0.00  0.00    +0.000 A 
ATOM      6  C   UNL     1       1.005   8.924  19.910  0.00  0.00    +0.000 A 
ATOM      7  C   UNL     1       1.090   9.436  18.622  0.00  0.00    +0.000 A 
ATOM      8  C   UNL     1       1.992   8.898  17.700  0.00  0.00    +0.000 A 
ATOM      9  C   UNL     1       2.805   7.816  18.093  0.00  0.00    +0.000 A 
ATOM     10  S   UNL     1       4.049   7.047  17.177  0.00  0.00    +0.000 S 
ENDBRANCH   1   2
BRANCH   1  12
ATOM     11  O   UNL     1       7.773   4.344  18.123  0.00  0.00    +0.000 OA
ATOM     12  S   UNL     1       6.740   5.212  17.585  0.00  0.00    +0.000 S 
ATOM     13  O   UNL     1       6.894   6.648  17.674  0.00  0.00    +0.000 OA
BRANCH  12  14
ATOM     14  C   UNL     1       6.567   4.816  15.852  0.00  0.00    +0.000 A 
ATOM     15  C   UNL     1       7.517   5.271  14.930  0.00  0.00    +0.000 A 
ATOM     16  C   UNL     1       7.404   4.904  13.586  0.00  0.00    +0.000 A 
ATOM     17  C   UNL     1       6.361   4.074  13.169  0.00  0.00    +0.000 A 
ATOM     18  C   UNL     1       5.442   3.586  14.095  0.00  0.00    +0.000 A 
ATOM     19  C   UNL     1       5.550   3.943  15.440  0.00  0.00    +0.000 A 
ENDBRANCH  12  14
ENDBRANCH   1  12
BRANCH   1  20
ATOM     20  C   UNL     1       5.308   3.820  19.447  0.00  0.00    +0.000 C 
BRANCH  20  21
ATOM     21  C   UNL     1       4.525   2.538  19.094  0.00  0.00    +0.000 C 
BRANCH  21  22
ATOM     22  C   UNL     1       3.061   2.674  19.439  0.00  0.00    +0.000 A 
ATOM     23  C   UNL     1       2.659   2.846  20.769  0.00  0.00    +0.000 A 
ATOM     24  C   UNL     1       1.304   2.912  21.097  0.00  0.00    +0.000 A 
ATOM     25  C   UNL     1       0.338   2.811  20.097  0.00  0.00    +0.000 A 
ATOM     26  C   UNL     1       0.727   2.652  18.768  0.00  0.00    +0.000 A 
ATOM     27  C   UNL     1       2.082   2.584  18.438  0.00  0.00    +0.000 A 
ENDBRANCH  21  22
ENDBRANCH  20  21
ENDBRANCH   1  20
TORSDOF 6
ENDMDL
MODEL 5
REMARK VINA RESULT:      -7.5      2.636      6.210
REMARK  Name = 
REMARK  6 active torsions:
REMARK  status: ('A' for Active; 'I' for Inactive)
REMARK    1  A    between atoms: S_2  and  C_4
REMARK    2  A    between atoms: S_2  and  N_10
REMARK    3  A    between atoms: N_10  and  C_11
REMARK    4  A    between atoms: N_10  and  C_19
REMARK    5  A    between atoms: C_11  and  C_12
REMARK    6  A    between atoms: C_12  and  C_13
REMARK                            x       y       z     vdW  Elec       q    Type
REMARK                         _______ _______ _______ _____ _____    ______ ____
ROOT
ATOM      1  N   UNL     1       3.421   5.328  17.699  0.00  0.00    +0.000 N 
ENDROOT
BRANCH   1   2
ATOM      2  C   UNL     1       2.827   6.484  18.312  0.00  0.00    +0.000 A 
ATOM      3  C   UNL     1       2.569   7.621  17.587  0.00  0.00    +0.000 A 
ATOM      4  C   UNL     1       1.922   8.639  18.363  0.00  0.00    +0.000 A 
ATOM      5  C   UNL     1       1.461   9.925  17.992  0.00  0.00    +0.000 A 
ATOM      6  C   UNL     1       0.917  10.786  18.950  0.00  0.00    +0.000 A 
ATOM      7  C   UNL     1       0.837  10.391  20.279  0.00  0.00    +0.000 A 
ATOM      8  C   UNL     1       1.251   9.114  20.669  0.00  0.00    +0.000 A 
ATOM      9  C   UNL     1       1.767   8.238  19.694  0.00  0.00    +0.000 A 
ATOM     10  S   UNL     1       2.252   6.595  19.905  0.00  0.00    +0.000 S 
ENDBRANCH   1   2
BRANCH   1  12
ATOM     11  O   UNL     1       3.000   2.968  16.761  0.00  0.00    +0.000 OA
ATOM     12  S   UNL     1       2.370   3.972  17.601  0.00  0.00    +0.000 S 
ATOM     13  O   UNL     1       1.044   4.451  17.273  0.00  0.00    +0.000 OA
BRANCH  12  14
ATOM     14  C   UNL     1       2.283   3.297  19.253  0.00  0.00    +0.000 A 
ATOM     15  C   UNL     1       3.454   2.921  19.920  0.00  0.00    +0.000 A 
ATOM     16  C   UNL     1       3.378   2.451  21.235  0.00  0.00    +0.000 A 
ATOM     17  C   UNL     1       2.144   2.375  21.884  0.00  0.00    +0.000 A 
ATOM     18  C   UNL     1       0.985   2.791  21.234  0.00  0.00    +0.000 A 
ATOM     19  C   UNL     1       1.051   3.266  19.923  0.00  0.00    +0.000 A 
ENDBRANCH  12  14
ENDBRANCH   1  12
BRANCH   1  20
ATOM     20  C   UNL     1       4.376   5.512  16.574  0.00  0.00    +0.000 C 
BRANCH  20  21
ATOM     21  C   UNL     1       5.724   4.838  16.904  0.00  0.00    +0.000 C 
BRANCH  21  22
ATOM     22  C   UNL     1       6.696   5.818  17.518  0.00  0.00    +0.000 A 
ATOM     23  C   UNL     1       7.414   5.477  18.670  0.00  0.00    +0.000 A 
ATOM     24  C   UNL     1       8.268   6.402  19.272  0.00  0.00    +0.000 A 
ATOM     25  C   UNL     1       8.414   7.676  18.725  0.00  0.00    +0.000 A 
ATOM     26  C   UNL     1       7.715   8.021  17.571  0.00  0.00    +0.000 A 
ATOM     27  C   UNL     1       6.859   7.098  16.968  0.00  0.00    +0.000 A 
ENDBRANCH  21  22
ENDBRANCH  20  21
ENDBRANCH   1  20
TORSDOF 6
ENDMDL
MODEL 6
REMARK VINA RESULT:      -7.5      0.825      1.293
REMARK  Name = 
REMARK  6 active torsions:
REMARK  status: ('A' for Active; 'I' for Inactive)
REMARK    1  A    between atoms: S_2  and  C_4
REMARK    2  A    between atoms: S_2  and  N_10
REMARK    3  A    between atoms: N_10  and  C_11
REMARK    4  A    between atoms: N_10  and  C_19
REMARK    5  A    between atoms: C_11  and  C_12
REMARK    6  A    between atoms: C_12  and  C_13
REMARK                            x       y       z     vdW  Elec       q    Type
REMARK                         _______ _______ _______ _____ _____    ______ ____
ROOT
ATOM      1  N   UNL     1       4.379   4.751  17.606  0.00  0.00    +0.000 N 
ENDROOT
BRANCH   1   2
ATOM      2  C   UNL     1       5.162   4.753  16.401  0.00  0.00    +0.000 A 
ATOM      3  C   UNL     1       4.813   3.979  15.323  0.00  0.00    +0.000 A 
ATOM      4  C   UNL     1       5.684   4.166  14.199  0.00  0.00    +0.000 A 
ATOM      5  C   UNL     1       5.652   3.594  12.904  0.00  0.00    +0.000 A 
ATOM      6  C   UNL     1       6.664   3.874  11.982  0.00  0.00    +0.000 A 
ATOM      7  C   UNL     1       7.719   4.705  12.332  0.00  0.00    +0.000 A 
ATOM      8  C   UNL     1       7.760   5.312  13.591  0.00  0.00    +0.000 A 
ATOM      9  C   UNL     1       6.720   5.054  14.506  0.00  0.00    +0.000 A 
ATOM     10  S   UNL     1       6.496   5.749  16.070  0.00  0.00    +0.000 S 
ENDBRANCH   1   2
BRANCH   1  12
ATOM     11  O   UNL     1       5.655   3.478  19.444  0.00  0.00    +0.000 OA
ATOM     12  S   UNL     1       4.533   3.315  18.537  0.00  0.00    +0.000 S 
ATOM     13  O   UNL     1       4.501   2.185  17.633  0.00  0.00    +0.000 OA
BRANCH  12  14
ATOM     14  C   UNL     1       3.056   3.218  19.538  0.00  0.00    +0.000 A 
ATOM     15  C   UNL     1       3.146   2.854  20.887  0.00  0.00    +0.000 A 
ATOM     16  C   UNL     1       1.991   2.841  21.674  0.00  0.00    +0.000 A 
ATOM     17  C   UNL     1       0.760   3.206  21.125  0.00  0.00    +0.000 A 
ATOM     18  C   UNL     1       0.680   3.610  19.795  0.00  0.00    +0.000 A 
ATOM     19  C   UNL     1       1.829   3.631  19.001  0.00  0.00    +0.000 A 
ENDBRANCH  12  14
ENDBRANCH   1  12
BRANCH   1  20
ATOM     20  C   UNL     1       4.208   6.020  18.363  0.00  0.00    +0.000 C 
BRANCH  20  21
ATOM     21  C   UNL     1       3.239   6.959  17.616  0.00  0.00    +0.000 C 
BRANCH  21  22
ATOM     22  C   UNL     1       2.412   7.779  18.579  0.00  0.00    +0.000 A 
ATOM     23  C   UNL     1       2.191   7.327  19.886  0.00  0.00    +0.000 A 
ATOM     24  C   UNL     1       1.379   8.054  20.758  0.00  0.00    +0.000 A 
ATOM     25  C   UNL     1       0.784   9.241  20.333  0.00  0.00    +0.000 A 
ATOM     26  C   UNL     1       1.009   9.706  19.039  0.00  0.00    +0.000 A 
ATOM     27  C   UNL     1       1.819   8.981  18.164  0.00  0.00    +0.000 A 
ENDBRANCH  21  22
ENDBRANCH  20  21
ENDBRANCH   1  20
TORSDOF 6
ENDMDL
MODEL 7
REMARK VINA RESULT:      -7.5      0.501      1.035
REMARK  Name = 
REMARK  6 active torsions:
REMARK  status: ('A' for Active; 'I' for Inactive)
REMARK    1  A    between atoms: S_2  and  C_4
REMARK    2  A    between atoms: S_2  and  N_10
REMARK    3  A    between atoms: N_10  and  C_11
REMARK    4  A    between atoms: N_10  and  C_19
REMARK    5  A    between atoms: C_11  and  C_12
REMARK    6  A    between atoms: C_12  and  C_13
REMARK                            x       y       z     vdW  Elec       q    Type
REMARK                         _______ _______ _______ _____ _____    ______ ____
ROOT
ATOM      1  N   UNL     1       4.600   5.295  17.660  0.00  0.00    +0.000 N 
ENDROOT
BRANCH   1   2
ATOM      2  C   UNL     1       5.267   5.060  16.410  0.00  0.00    +0.000 A 
ATOM      3  C   UNL     1       4.697   4.281  15.433  0.00  0.00    +0.000 A 
ATOM      4  C   UNL     1       5.491   4.218  14.240  0.00  0.00    +0.000 A 
ATOM      5  C   UNL     1       5.249   3.562  13.009  0.00  0.00    +0.000 A 
ATOM      6  C   UNL     1       6.214   3.580  11.997  0.00  0.00    +0.000 A 
ATOM      7  C   UNL     1       7.425   4.229  12.197  0.00  0.00    +0.000 A 
ATOM      8  C   UNL     1       7.677   4.914  13.388  0.00  0.00    +0.000 A 
ATOM      9  C   UNL     1       6.688   4.922  14.393  0.00  0.00    +0.000 A 
ATOM     10  S   UNL     1       6.723   5.767  15.898  0.00  0.00    +0.000 S 
ENDBRANCH   1   2
BRANCH   1  12
ATOM     11  O   UNL     1       5.765   4.660  19.867  0.00  0.00    +0.000 OA
ATOM     12  S   UNL     1       4.899   4.090  18.849  0.00  0.00    +0.000 S 
ATOM     13  O   UNL     1       5.294   2.875  18.170  0.00  0.00    +0.000 OA
BRANCH  12  14
ATOM     14  C   UNL     1       3.322   3.762  19.622  0.00  0.00    +0.000 A 
ATOM     15  C   UNL     1       2.136   3.941  18.901  0.00  0.00    +0.000 A 
ATOM     16  C   UNL     1       0.912   3.623  19.498  0.00  0.00    +0.000 A 
ATOM     17  C   UNL     1       0.875   3.112  20.798  0.00  0.00    +0.000 A 
ATOM     18  C   UNL     1       2.059   2.893  21.497  0.00  0.00    +0.000 A 
ATOM     19  C   UNL     1       3.286   3.203  20.908  0.00  0.00    +0.000 A 
ENDBRANCH  12  14
ENDBRANCH   1  12
BRANCH   1  20
ATOM     20  C   UNL     1       4.448   6.691  18.152  0.00  0.00    +0.000 C 
BRANCH  20  21
ATOM     21  C   UNL     1       3.239   7.366  17.470  0.00  0.00    +0.000 C 
BRANCH  21  22
ATOM     22  C   UNL     1       2.318   8.002  18.485  0.00  0.00    +0.000 A 
ATOM     23  C   UNL     1       1.604   9.163  18.165  0.00  0.00    +0.000 A 
ATOM     24  C   UNL     1       0.799   9.785  19.120  0.00  0.00    +0.000 A 
ATOM     25  C   UNL     1       0.696   9.249  20.402  0.00  0.00    +0.000 A 
ATOM     26  C   UNL     1       1.391   8.086  20.728  0.00  0.00    +0.000 A 
ATOM     27  C   UNL     1       2.199   7.463  19.775  0.00  0.00    +0.000 A 
ENDBRANCH  21  22
ENDBRANCH  20  21
ENDBRANCH   1  20
TORSDOF 6
ENDMDL
MODEL 8
REMARK VINA RESULT:      -7.5      0.545      1.333
REMARK  Name = 
REMARK  6 active torsions:
REMARK  status: ('A' for Active; 'I' for Inactive)
REMARK    1  A    between atoms: S_2  and  C_4
REMARK    2  A    between atoms: S_2  and  N_10
REMARK    3  A    between atoms: N_10  and  C_11
REMARK    4  A    between atoms: N_10  and  C_19
REMARK    5  A    between atoms: C_11  and  C_12
REMARK    6  A    between atoms: C_12  and  C_13
REMARK                            x       y       z     vdW  Elec       q    Type
REMARK                         _______ _______ _______ _____ _____    ______ ____
ROOT
ATOM      1  N   UNL     1       4.429   5.563  17.511  0.00  0.00    +0.000 N 
ENDROOT
BRANCH   1   2
ATOM      2  C   UNL     1       5.163   5.261  16.313  0.00  0.00    +0.000 A 
ATOM      3  C   UNL     1       4.666   4.394  15.372  0.00  0.00    +0.000 A 
ATOM      4  C   UNL     1       5.518   4.272  14.225  0.00  0.00    +0.000 A 
ATOM      5  C   UNL     1       5.358   3.521  13.035  0.00  0.00    +0.000 A 
ATOM      6  C   UNL     1       6.369   3.499  12.071  0.00  0.00    +0.000 A 
ATOM      7  C   UNL     1       7.547   4.202  12.277  0.00  0.00    +0.000 A 
ATOM      8  C   UNL     1       7.720   4.981  13.425  0.00  0.00    +0.000 A 
ATOM      9  C   UNL     1       6.684   5.028  14.379  0.00  0.00    +0.000 A 
ATOM     10  S   UNL     1       6.619   5.980  15.818  0.00  0.00    +0.000 S 
ENDBRANCH   1   2
BRANCH   1  12
ATOM     11  O   UNL     1       5.395   5.519  19.897  0.00  0.00    +0.000 OA
ATOM     12  S   UNL     1       4.894   4.621  18.871  0.00  0.00    +0.000 S 
ATOM     13  O   UNL     1       5.725   3.532  18.404  0.00  0.00    +0.000 OA
BRANCH  12  14
ATOM     14  C   UNL     1       3.389   3.891  19.500  0.00  0.00    +0.000 A 
ATOM     15  C   UNL     1       2.797   2.814  18.829  0.00  0.00    +0.000 A 
ATOM     16  C   UNL     1       1.654   2.213  19.364  0.00  0.00    +0.000 A 
ATOM     17  C   UNL     1       1.117   2.672  20.569  0.00  0.00    +0.000 A 
ATOM     18  C   UNL     1       1.733   3.713  21.258  0.00  0.00    +0.000 A 
ATOM     19  C   UNL     1       2.877   4.317  20.734  0.00  0.00    +0.000 A 
ENDBRANCH  12  14
ENDBRANCH   1  12
BRANCH   1  20
ATOM     20  C   UNL     1       4.027   6.969  17.782  0.00  0.00    +0.000 C 
BRANCH  20  21
ATOM     21  C   UNL     1       2.494   7.113  17.681  0.00  0.00    +0.000 C 
BRANCH  21  22
ATOM     22  C   UNL     1       1.954   8.032  18.752  0.00  0.00    +0.000 A 
ATOM     23  C   UNL     1       1.905   7.613  20.087  0.00  0.00    +0.000 A 
ATOM     24  C   UNL     1       1.353   8.437  21.068  0.00  0.00    +0.000 A 
ATOM     25  C   UNL     1       0.848   9.690  20.723  0.00  0.00    +0.000 A 
ATOM     26  C   UNL     1       0.904  10.123  19.400  0.00  0.00    +0.000 A 
ATOM     27  C   UNL     1       1.454   9.299  18.417  0.00  0.00    +0.000 A 
ENDBRANCH  21  22
ENDBRANCH  20  21
ENDBRANCH   1  20
TORSDOF 6
ENDMDL
MODEL 9
REMARK VINA RESULT:      -7.4      2.652      6.474
REMARK  Name = 
REMARK  6 active torsions:
REMARK  status: ('A' for Active; 'I' for Inactive)
REMARK    1  A    between atoms: S_2  and  C_4
REMARK    2  A    between atoms: S_2  and  N_10
REMARK    3  A    between atoms: N_10  and  C_11
REMARK    4  A    between atoms: N_10  and  C_19
REMARK    5  A    between atoms: C_11  and  C_12
REMARK    6  A    between atoms: C_12  and  C_13
REMARK                            x       y       z     vdW  Elec       q    Type
REMARK                         _______ _______ _______ _____ _____    ______ ____
ROOT
ATOM      1  N   UNL     1       3.317   5.697  17.807  0.00  0.00    +0.000 N 
ENDROOT
BRANCH   1   2
ATOM      2  C   UNL     1       2.643   6.802  18.431  0.00  0.00    +0.000 A 
ATOM      3  C   UNL     1       2.344   6.789  19.771  0.00  0.00    +0.000 A 
ATOM      4  C   UNL     1       1.727   8.005  20.214  0.00  0.00    +0.000 A 
ATOM      5  C   UNL     1       1.301   8.404  21.504  0.00  0.00    +0.000 A 
ATOM      6  C   UNL     1       0.648   9.626  21.687  0.00  0.00    +0.000 A 
ATOM      7  C   UNL     1       0.398  10.455  20.601  0.00  0.00    +0.000 A 
ATOM      8  C   UNL     1       0.838  10.104  19.322  0.00  0.00    +0.000 A 
ATOM      9  C   UNL     1       1.525   8.886  19.147  0.00  0.00    +0.000 A 
ATOM     10  S   UNL     1       2.243   8.280  17.699  0.00  0.00    +0.000 S 
ENDBRANCH   1   2
BRANCH   1  12
ATOM     11  O   UNL     1       3.074   3.319  16.852  0.00  0.00    +0.000 OA
ATOM     12  S   UNL     1       2.361   4.275  17.681  0.00  0.00    +0.000 S 
ATOM     13  O   UNL     1       1.014   4.667  17.326  0.00  0.00    +0.000 OA
BRANCH  12  14
ATOM     14  C   UNL     1       2.283   3.589  19.329  0.00  0.00    +0.000 A 
ATOM     15  C   UNL     1       1.052   3.478  19.986  0.00  0.00    +0.000 A 
ATOM     16  C   UNL     1       0.997   2.884  21.250  0.00  0.00    +0.000 A 
ATOM     17  C   UNL     1       2.158   2.387  21.846  0.00  0.00    +0.000 A 
ATOM     18  C   UNL     1       3.375   2.458  21.172  0.00  0.00    +0.000 A 
ATOM     19  C   UNL     1       3.440   3.046  19.907  0.00  0.00    +0.000 A 
ENDBRANCH  12  14
ENDBRANCH   1  12
BRANCH   1  20
ATOM     20  C   UNL     1       4.265   5.962  16.691  0.00  0.00    +0.000 C 
BRANCH  20  21
ATOM     21  C   UNL     1       5.587   5.200  16.925  0.00  0.00    +0.000 C 
BRANCH  21  22
ATOM     22  C   UNL     1       6.637   6.094  17.542  0.00  0.00    +0.000 A 
ATOM     23  C   UNL     1       7.388   5.653  18.638  0.00  0.00    +0.000 A 
ATOM     24  C   UNL     1       8.317   6.498  19.247  0.00  0.00    +0.000 A 
ATOM     25  C   UNL     1       8.506   7.792  18.763  0.00  0.00    +0.000 A 
ATOM     26  C   UNL     1       7.773   8.237  17.664  0.00  0.00    +0.000 A 
ATOM     27  C   UNL     1       6.842   7.393  17.055  0.00  0.00    +0.000 A 
ENDBRANCH  21  22
ENDBRANCH  20  21
ENDBRANCH   1  20
TORSDOF 6
ENDMDL
