MODEL 1
REMARK VINA RESULT:      -7.1      0.000      0.000
REMARK  Name = 
REMARK  2 active torsions:
REMARK  status: ('A' for Active; 'I' for Inactive)
REMARK    1  A    between atoms: C_7  and  C_8
REMARK    2  A    between atoms: C_8  and  O_10
REMARK                            x       y       z     vdW  Elec       q    Type
REMARK                         _______ _______ _______ _____ _____    ______ ____
ROOT
ATOM      1  O   UNL     1       7.311   5.506  15.434  0.00  0.00    +0.000 OA
ATOM      2  C   UNL     1       6.552   5.220  16.359  0.00  0.00    +0.000 C 
ATOM      3  C   UNL     1       5.148   4.725  16.111  0.00  0.00    +0.000 C 
ATOM      4  C   UNL     1       4.397   4.266  17.330  0.00  0.00    +0.000 A 
ATOM      5  C   UNL     1       3.141   3.651  17.182  0.00  0.00    +0.000 A 
ATOM      6  C   UNL     1       2.420   3.229  18.302  0.00  0.00    +0.000 A 
ATOM      7  C   UNL     1       2.933   3.436  19.588  0.00  0.00    +0.000 A 
ATOM      8  C   UNL     1       4.188   4.039  19.741  0.00  0.00    +0.000 A 
ATOM      9  C   UNL     1       4.913   4.450  18.617  0.00  0.00    +0.000 A 
ATOM     10  C   UNL     1       6.249   5.061  18.798  0.00  0.00    +0.000 C 
ATOM     11  O   UNL     1       6.713   5.269  19.912  0.00  0.00    +0.000 OA
ATOM     12  N   UNL     1       6.951   5.372  17.659  0.00  0.00    +0.000 N 
ATOM     13  H   UNL     1       7.882   5.741  17.801  0.00  0.00    +0.000 HD
ENDROOT
BRANCH   7  14
ATOM     14  C   UNL     1       2.227   2.982  20.815  0.00  0.00    +0.000 C 
ATOM     15  O   UNL     1       2.821   2.614  21.814  0.00  0.00    +0.000 OA
BRANCH  14  16
ATOM     16  O   UNL     1       0.881   3.037  20.741  0.00  0.00    +0.000 OA
ATOM     17  H   UNL     1       0.492   2.841  19.871  0.00  0.00    +0.000 HD
ENDBRANCH  14  16
ENDBRANCH   7  14
TORSDOF 2
ENDMDL
MODEL 2
REMARK VINA RESULT:      -7.0      2.224      4.968
REMARK  Name = 
REMARK  2 active torsions:
REMARK  status: ('A' for Active; 'I' for Inactive)
REMARK    1  A    between atoms: C_7  and  C_8
REMARK    2  A    between atoms: C_8  and  O_10
REMARK                            x       y       z     vdW  Elec       q    Type
REMARK                         _______ _______ _______ _____ _____    ______ ____
ROOT
ATOM      1  O   UNL     1       0.591   2.532  18.480  0.00  0.00    +0.000 OA
ATOM      2  C   UNL     1       1.741   2.965  18.533  0.00  0.00    +0.000 C 
ATOM      3  C   UNL     1       2.191   4.131  17.686  0.00  0.00    +0.000 C 
ATOM      4  C   UNL     1       3.573   4.648  17.975  0.00  0.00    +0.000 A 
ATOM      5  C   UNL     1       4.021   5.822  17.345  0.00  0.00    +0.000 A 
ATOM      6  C   UNL     1       5.307   6.313  17.588  0.00  0.00    +0.000 A 
ATOM      7  C   UNL     1       6.172   5.624  18.448  0.00  0.00    +0.000 A 
ATOM      8  C   UNL     1       5.727   4.460  19.087  0.00  0.00    +0.000 A 
ATOM      9  C   UNL     1       4.434   3.978  18.850  0.00  0.00    +0.000 A 
ATOM     10  C   UNL     1       3.973   2.760  19.555  0.00  0.00    +0.000 C 
ATOM     11  O   UNL     1       4.715   2.130  20.298  0.00  0.00    +0.000 OA
ATOM     12  N   UNL     1       2.670   2.377  19.348  0.00  0.00    +0.000 N 
ATOM     13  H   UNL     1       2.357   1.574  19.876  0.00  0.00    +0.000 HD
ENDROOT
BRANCH   7  14
ATOM     14  C   UNL     1       7.539   6.113  18.769  0.00  0.00    +0.000 C 
ATOM     15  O   UNL     1       8.034   7.082  18.220  0.00  0.00    +0.000 OA
BRANCH  14  16
ATOM     16  O   UNL     1       8.171   5.414  19.734  0.00  0.00    +0.000 OA
ATOM     17  H   UNL     1       9.113   5.622  19.865  0.00  0.00    +0.000 HD
ENDBRANCH  14  16
ENDBRANCH   7  14
TORSDOF 2
ENDMDL
MODEL 3
REMARK VINA RESULT:      -7.0      2.481      5.364
REMARK  Name = 
REMARK  2 active torsions:
REMARK  status: ('A' for Active; 'I' for Inactive)
REMARK    1  A    between atoms: C_7  and  C_8
REMARK    2  A    between atoms: C_8  and  O_10
REMARK                            x       y       z     vdW  Elec       q    Type
REMARK                         _______ _______ _______ _____ _____    ______ ____
ROOT
ATOM      1  O   UNL     1       0.048   2.507  19.006  0.00  0.00    +0.000 OA
ATOM      2  C   UNL     1       1.166   2.788  18.576  0.00  0.00    +0.000 C 
ATOM      3  C   UNL     1       1.535   4.197  18.181  0.00  0.00    +0.000 C 
ATOM      4  C   UNL     1       2.980   4.415  17.826  0.00  0.00    +0.000 A 
ATOM      5  C   UNL     1       3.448   5.719  17.591  0.00  0.00    +0.000 A 
ATOM      6  C   UNL     1       4.785   5.943  17.247  0.00  0.00    +0.000 A 
ATOM      7  C   UNL     1       5.666   4.864  17.110  0.00  0.00    +0.000 A 
ATOM      8  C   UNL     1       5.207   3.564  17.354  0.00  0.00    +0.000 A 
ATOM      9  C   UNL     1       3.871   3.343  17.710  0.00  0.00    +0.000 A 
ATOM     10  C   UNL     1       3.411   1.964  17.989  0.00  0.00    +0.000 C 
ATOM     11  O   UNL     1       4.158   1.001  17.860  0.00  0.00    +0.000 OA
ATOM     12  N   UNL     1       2.114   1.814  18.412  0.00  0.00    +0.000 N 
ATOM     13  H   UNL     1       1.832   0.872  18.647  0.00  0.00    +0.000 HD
ENDROOT
BRANCH   7  14
ATOM     14  C   UNL     1       7.104   5.041  16.776  0.00  0.00    +0.000 C 
ATOM     15  O   UNL     1       7.980   4.350  17.267  0.00  0.00    +0.000 OA
BRANCH  14  16
ATOM     16  O   UNL     1       7.354   6.008  15.870  0.00  0.00    +0.000 OA
ATOM     17  H   UNL     1       6.620   6.235  15.273  0.00  0.00    +0.000 HD
ENDBRANCH  14  16
ENDBRANCH   7  14
TORSDOF 2
ENDMDL
MODEL 4
REMARK VINA RESULT:      -7.0      2.428      5.580
REMARK  Name = 
REMARK  2 active torsions:
REMARK  status: ('A' for Active; 'I' for Inactive)
REMARK    1  A    between atoms: C_7  and  C_8
REMARK    2  A    between atoms: C_8  and  O_10
REMARK                            x       y       z     vdW  Elec       q    Type
REMARK                         _______ _______ _______ _____ _____    ______ ____
ROOT
ATOM      1  O   UNL     1       1.463   4.830  20.673  0.00  0.00    +0.000 OA
ATOM      2  C   UNL     1       2.177   4.689  19.681  0.00  0.00    +0.000 C 
ATOM      3  C   UNL     1       2.699   5.873  18.903  0.00  0.00    +0.000 C 
ATOM      4  C   UNL     1       3.685   5.551  17.815  0.00  0.00    +0.000 A 
ATOM      5  C   UNL     1       4.338   6.595  17.137  0.00  0.00    +0.000 A 
ATOM      6  C   UNL     1       5.249   6.318  16.114  0.00  0.00    +0.000 A 
ATOM      7  C   UNL     1       5.503   4.994  15.737  0.00  0.00    +0.000 A 
ATOM      8  C   UNL     1       4.863   3.949  16.416  0.00  0.00    +0.000 A 
ATOM      9  C   UNL     1       3.960   4.229  17.449  0.00  0.00    +0.000 A 
ATOM     10  C   UNL     1       3.314   3.111  18.171  0.00  0.00    +0.000 C 
ATOM     11  O   UNL     1       3.505   1.944  17.850  0.00  0.00    +0.000 OA
ATOM     12  N   UNL     1       2.500   3.439  19.227  0.00  0.00    +0.000 N 
ATOM     13  H   UNL     1       2.108   2.662  19.741  0.00  0.00    +0.000 HD
ENDROOT
BRANCH   7  14
ATOM     14  C   UNL     1       6.482   4.636  14.678  0.00  0.00    +0.000 C 
ATOM     15  O   UNL     1       6.285   3.735  13.880  0.00  0.00    +0.000 OA
BRANCH  14  16
ATOM     16  O   UNL     1       7.590   5.405  14.656  0.00  0.00    +0.000 OA
ATOM     17  H   UNL     1       7.777   5.909  15.467  0.00  0.00    +0.000 HD
ENDBRANCH  14  16
ENDBRANCH   7  14
TORSDOF 2
ENDMDL
MODEL 5
REMARK VINA RESULT:      -6.9      2.357      5.517
REMARK  Name = 
REMARK  2 active torsions:
REMARK  status: ('A' for Active; 'I' for Inactive)
REMARK    1  A    between atoms: C_7  and  C_8
REMARK    2  A    between atoms: C_8  and  O_10
REMARK                            x       y       z     vdW  Elec       q    Type
REMARK                         _______ _______ _______ _____ _____    ______ ____
ROOT
ATOM      1  O   UNL     1       0.957   3.495  20.588  0.00  0.00    +0.000 OA
ATOM      2  C   UNL     1       1.783   3.562  19.678  0.00  0.00    +0.000 C 
ATOM      3  C   UNL     1       2.149   4.877  19.033  0.00  0.00    +0.000 C 
ATOM      4  C   UNL     1       3.285   4.822  18.049  0.00  0.00    +0.000 A 
ATOM      5  C   UNL     1       3.795   6.016  17.511  0.00  0.00    +0.000 A 
ATOM      6  C   UNL     1       4.842   5.989  16.584  0.00  0.00    +0.000 A 
ATOM      7  C   UNL     1       5.378   4.765  16.165  0.00  0.00    +0.000 A 
ATOM      8  C   UNL     1       4.880   3.573  16.706  0.00  0.00    +0.000 A 
ATOM      9  C   UNL     1       3.840   3.604  17.643  0.00  0.00    +0.000 A 
ATOM     10  C   UNL     1       3.345   2.335  18.223  0.00  0.00    +0.000 C 
ATOM     11  O   UNL     1       3.786   1.251  17.861  0.00  0.00    +0.000 OA
ATOM     12  N   UNL     1       2.381   2.430  19.195  0.00  0.00    +0.000 N 
ATOM     13  H   UNL     1       2.091   1.557  19.617  0.00  0.00    +0.000 HD
ENDROOT
BRANCH   7  14
ATOM     14  C   UNL     1       6.510   4.672  15.207  0.00  0.00    +0.000 C 
ATOM     15  O   UNL     1       7.455   5.443  15.233  0.00  0.00    +0.000 OA
BRANCH  14  16
ATOM     16  O   UNL     1       6.420   3.653  14.329  0.00  0.00    +0.000 OA
ATOM     17  H   UNL     1       5.979   3.854  13.484  0.00  0.00    +0.000 HD
ENDBRANCH  14  16
ENDBRANCH   7  14
TORSDOF 2
ENDMDL
MODEL 6
REMARK VINA RESULT:      -6.9      1.030      1.046
REMARK  Name = 
REMARK  2 active torsions:
REMARK  status: ('A' for Active; 'I' for Inactive)
REMARK    1  A    between atoms: C_7  and  C_8
REMARK    2  A    between atoms: C_8  and  O_10
REMARK                            x       y       z     vdW  Elec       q    Type
REMARK                         _______ _______ _______ _____ _____    ______ ____
ROOT
ATOM      1  O   UNL     1       7.525   5.152  14.400  0.00  0.00    +0.000 OA
ATOM      2  C   UNL     1       6.911   4.942  15.446  0.00  0.00    +0.000 C 
ATOM      3  C   UNL     1       5.425   4.675  15.456  0.00  0.00    +0.000 C 
ATOM      4  C   UNL     1       4.846   4.279  16.785  0.00  0.00    +0.000 A 
ATOM      5  C   UNL     1       3.504   3.867  16.863  0.00  0.00    +0.000 A 
ATOM      6  C   UNL     1       2.941   3.506  18.091  0.00  0.00    +0.000 A 
ATOM      7  C   UNL     1       3.705   3.576  19.262  0.00  0.00    +0.000 A 
ATOM      8  C   UNL     1       5.046   3.975  19.189  0.00  0.00    +0.000 A 
ATOM      9  C   UNL     1       5.610   4.324  17.956  0.00  0.00    +0.000 A 
ATOM     10  C   UNL     1       7.035   4.719  17.895  0.00  0.00    +0.000 C 
ATOM     11  O   UNL     1       7.721   4.804  18.907  0.00  0.00    +0.000 OA
ATOM     12  N   UNL     1       7.559   4.972  16.651  0.00  0.00    +0.000 N 
ATOM     13  H   UNL     1       8.545   5.191  16.623  0.00  0.00    +0.000 HD
ENDROOT
BRANCH   7  14
ATOM     14  C   UNL     1       3.172   3.177  20.591  0.00  0.00    +0.000 C 
ATOM     15  O   UNL     1       3.677   2.292  21.260  0.00  0.00    +0.000 OA
BRANCH  14  16
ATOM     16  O   UNL     1       2.106   3.891  21.005  0.00  0.00    +0.000 OA
ATOM     17  H   UNL     1       2.096   4.831  20.751  0.00  0.00    +0.000 HD
ENDBRANCH  14  16
ENDBRANCH   7  14
TORSDOF 2
ENDMDL
MODEL 7
REMARK VINA RESULT:      -6.8      2.156      5.176
REMARK  Name = 
REMARK  2 active torsions:
REMARK  status: ('A' for Active; 'I' for Inactive)
REMARK    1  A    between atoms: C_7  and  C_8
REMARK    2  A    between atoms: C_8  and  O_10
REMARK                            x       y       z     vdW  Elec       q    Type
REMARK                         _______ _______ _______ _____ _____    ______ ____
ROOT
ATOM      1  O   UNL     1       0.679   2.922  19.911  0.00  0.00    +0.000 OA
ATOM      2  C   UNL     1       1.770   3.351  19.537  0.00  0.00    +0.000 C 
ATOM      3  C   UNL     1       1.883   4.538  18.611  0.00  0.00    +0.000 C 
ATOM      4  C   UNL     1       3.278   5.043  18.370  0.00  0.00    +0.000 A 
ATOM      5  C   UNL     1       3.471   6.231  17.645  0.00  0.00    +0.000 A 
ATOM      6  C   UNL     1       4.760   6.713  17.398  0.00  0.00    +0.000 A 
ATOM      7  C   UNL     1       5.876   6.000  17.853  0.00  0.00    +0.000 A 
ATOM      8  C   UNL     1       5.689   4.821  18.586  0.00  0.00    +0.000 A 
ATOM      9  C   UNL     1       4.396   4.348  18.841  0.00  0.00    +0.000 A 
ATOM     10  C   UNL     1       4.219   3.114  19.640  0.00  0.00    +0.000 C 
ATOM     11  O   UNL     1       5.179   2.462  20.035  0.00  0.00    +0.000 OA
ATOM     12  N   UNL     1       2.930   2.739  19.929  0.00  0.00    +0.000 N 
ATOM     13  H   UNL     1       2.829   1.924  20.518  0.00  0.00    +0.000 HD
ENDROOT
BRANCH   7  14
ATOM     14  C   UNL     1       7.269   6.476  17.648  0.00  0.00    +0.000 C 
ATOM     15  O   UNL     1       8.011   6.748  18.576  0.00  0.00    +0.000 OA
BRANCH  14  16
ATOM     16  O   UNL     1       7.651   6.555  16.357  0.00  0.00    +0.000 OA
ATOM     17  H   UNL     1       7.603   5.728  15.846  0.00  0.00    +0.000 HD
ENDBRANCH  14  16
ENDBRANCH   7  14
TORSDOF 2
ENDMDL
MODEL 8
REMARK VINA RESULT:      -6.7      2.379      5.490
REMARK  Name = 
REMARK  2 active torsions:
REMARK  status: ('A' for Active; 'I' for Inactive)
REMARK    1  A    between atoms: C_7  and  C_8
REMARK    2  A    between atoms: C_8  and  O_10
REMARK                            x       y       z     vdW  Elec       q    Type
REMARK                         _______ _______ _______ _____ _____    ______ ____
ROOT
ATOM      1  O   UNL     1       1.595   2.852  22.112  0.00  0.00    +0.000 OA
ATOM      2  C   UNL     1       2.099   3.191  21.042  0.00  0.00    +0.000 C 
ATOM      3  C   UNL     1       2.176   4.640  20.623  0.00  0.00    +0.000 C 
ATOM      4  C   UNL     1       2.960   4.912  19.369  0.00  0.00    +0.000 A 
ATOM      5  C   UNL     1       3.213   6.239  18.983  0.00  0.00    +0.000 A 
ATOM      6  C   UNL     1       3.928   6.515  17.813  0.00  0.00    +0.000 A 
ATOM      7  C   UNL     1       4.380   5.468  17.001  0.00  0.00    +0.000 A 
ATOM      8  C   UNL     1       4.139   4.143  17.387  0.00  0.00    +0.000 A 
ATOM      9  C   UNL     1       3.433   3.870  18.565  0.00  0.00    +0.000 A 
ATOM     10  C   UNL     1       3.212   2.463  18.969  0.00  0.00    +0.000 C 
ATOM     11  O   UNL     1       3.582   1.529  18.268  0.00  0.00    +0.000 OA
ATOM     12  N   UNL     1       2.585   2.253  20.173  0.00  0.00    +0.000 N 
ATOM     13  H   UNL     1       2.488   1.287  20.457  0.00  0.00    +0.000 HD
ENDROOT
BRANCH   7  14
ATOM     14  C   UNL     1       5.171   5.698  15.764  0.00  0.00    +0.000 C 
ATOM     15  O   UNL     1       5.322   6.806  15.280  0.00  0.00    +0.000 OA
BRANCH  14  16
ATOM     16  O   UNL     1       5.726   4.586  15.239  0.00  0.00    +0.000 OA
ATOM     17  H   UNL     1       5.221   3.762  15.350  0.00  0.00    +0.000 HD
ENDBRANCH  14  16
ENDBRANCH   7  14
TORSDOF 2
ENDMDL
MODEL 9
REMARK VINA RESULT:      -6.7      1.920      2.296
REMARK  Name = 
REMARK  2 active torsions:
REMARK  status: ('A' for Active; 'I' for Inactive)
REMARK    1  A    between atoms: C_7  and  C_8
REMARK    2  A    between atoms: C_8  and  O_10
REMARK                            x       y       z     vdW  Elec       q    Type
REMARK                         _______ _______ _______ _____ _____    ______ ____
ROOT
ATOM      1  O   UNL     1       8.135   8.369  17.110  0.00  0.00    +0.000 OA
ATOM      2  C   UNL     1       7.450   7.450  17.558  0.00  0.00    +0.000 C 
ATOM      3  C   UNL     1       6.134   7.061  16.930  0.00  0.00    +0.000 C 
ATOM      4  C   UNL     1       5.491   5.821  17.486  0.00  0.00    +0.000 A 
ATOM      5  C   UNL     1       4.343   5.297  16.868  0.00  0.00    +0.000 A 
ATOM      6  C   UNL     1       3.721   4.152  17.377  0.00  0.00    +0.000 A 
ATOM      7  C   UNL     1       4.225   3.530  18.525  0.00  0.00    +0.000 A 
ATOM      8  C   UNL     1       5.375   4.041  19.138  0.00  0.00    +0.000 A 
ATOM      9  C   UNL     1       6.002   5.181  18.620  0.00  0.00    +0.000 A 
ATOM     10  C   UNL     1       7.232   5.691  19.267  0.00  0.00    +0.000 C 
ATOM     11  O   UNL     1       7.683   5.175  20.282  0.00  0.00    +0.000 OA
ATOM     12  N   UNL     1       7.851   6.762  18.671  0.00  0.00    +0.000 N 
ATOM     13  H   UNL     1       8.716   7.065  19.096  0.00  0.00    +0.000 HD
ENDROOT
BRANCH   7  14
ATOM     14  C   UNL     1       3.626   2.294  19.094  0.00  0.00    +0.000 C 
ATOM     15  O   UNL     1       2.553   2.293  19.674  0.00  0.00    +0.000 OA
BRANCH  14  16
ATOM     16  O   UNL     1       4.351   1.175  18.893  0.00  0.00    +0.000 OA
ATOM     17  H   UNL     1       4.057   0.599  18.165  0.00  0.00    +0.000 HD
ENDBRANCH  14  16
ENDBRANCH   7  14
TORSDOF 2
ENDMDL
