MODEL 1
REMARK VINA RESULT:      -6.2      0.000      0.000
REMARK  Name = 
REMARK  10 active torsions:
REMARK  status: ('A' for Active; 'I' for Inactive)
REMARK    1  A    between atoms: C_1  and  C_2
REMARK    2  A    between atoms: C_7  and  O_8
REMARK    3  A    between atoms: C_13  and  O_14
REMARK    4  A    between atoms: C_15  and  O_16
REMARK    5  A    between atoms: C_17  and  O_18
REMARK    6  A    between atoms: C_19  and  C_20
REMARK    7  A    between atoms: C_25  and  N_26
REMARK    8  A    between atoms: N_26  and  C_27
REMARK    9  A    between atoms: N_26  and  C_28
REMARK   10  A    between atoms: C_30  and  O_31
REMARK                            x       y       z     vdW  Elec       q    Type
REMARK                         _______ _______ _______ _____ _____    ______ ____
ROOT
ATOM      1  C   UNL     1      -5.784  13.004  18.873  0.00  0.00    +0.000 C 
ATOM      2  C   UNL     1      -4.520  12.643  19.684  0.00  0.00    +0.000 C 
ATOM      3  C   UNL     1      -3.564  11.723  18.923  0.00  0.00    +0.000 A 
ATOM      4  C   UNL     1      -4.084  10.671  18.149  0.00  0.00    +0.000 A 
ATOM      5  C   UNL     1      -3.250   9.844  17.405  0.00  0.00    +0.000 A 
ATOM      6  C   UNL     1      -1.873  10.042  17.425  0.00  0.00    +0.000 A 
ATOM      7  C   UNL     1      -1.327  11.039  18.233  0.00  0.00    +0.000 A 
ATOM      8  C   UNL     1      -2.153  11.861  19.017  0.00  0.00    +0.000 A 
ATOM      9  C   UNL     1      -1.562  12.820  20.014  0.00  0.00    +0.000 C 
ATOM     10  O   UNL     1      -0.373  13.042  20.204  0.00  0.00    +0.000 OA
ATOM     11  C   UNL     1      -2.558  13.505  20.875  0.00  0.00    +0.000 C 
ATOM     12  C   UNL     1      -2.389  13.630  22.201  0.00  0.00    +0.000 C 
ATOM     13  C   UNL     1      -3.496  14.208  23.095  0.00  0.00    +0.000 C 
ATOM     14  C   UNL     1      -4.505  13.139  23.485  0.00  0.00    +0.000 C 
ATOM     15  C   UNL     1      -5.826  13.388  23.579  0.00  0.00    +0.000 C 
ATOM     16  C   UNL     1      -6.328  14.803  23.556  0.00  0.00    +0.000 C 
ATOM     17  O   UNL     1      -7.504  15.016  23.873  0.00  0.00    +0.000 OA
ATOM     18  C   UNL     1      -5.426  15.943  23.013  0.00  0.00    +0.000 C 
ATOM     19  C   UNL     1      -4.173  15.348  22.313  0.00  0.00    +0.000 C 
ATOM     20  C   UNL     1      -4.676  14.873  20.927  0.00  0.00    +0.000 C 
ATOM     21  C   UNL     1      -3.775  13.929  20.127  0.00  0.00    +0.000 C 
ENDROOT
BRANCH  15  22
ATOM     22  C   UNL     1      -6.783  12.234  23.557  0.00  0.00    +0.000 C 
ATOM     23  N   UNL     1      -7.472  12.039  22.402  0.00  0.00    +0.000 N 
ATOM     24  O   UNL     1      -6.867  11.405  24.460  0.00  0.00    +0.000 OA
ATOM     25  H   UNL     1      -7.958  11.159  22.301  0.00  0.00    +0.000 HD
ATOM     26  H   UNL     1      -7.212  12.548  21.558  0.00  0.00    +0.000 HD
ENDBRANCH  15  22
BRANCH  18  27
ATOM     27  N   UNL     1      -5.253  17.063  23.991  0.00  0.00    +0.000 NA
ATOM     28  C   UNL     1      -6.372  18.023  23.848  0.00  0.00    +0.000 C 
ATOM     29  C   UNL     1      -4.013  17.812  23.729  0.00  0.00    +0.000 C 
ENDBRANCH  18  27
BRANCH   7  30
ATOM     30  O   UNL     1       0.030  11.188  18.255  0.00  0.00    +0.000 OA
ATOM     31  H   UNL     1       0.266  11.978  18.767  0.00  0.00    +0.000 HD
ENDBRANCH   7  30
BRANCH  12  32
ATOM     32  O   UNL     1      -1.251  13.184  22.862  0.00  0.00    +0.000 OA
ATOM     33  H   UNL     1      -1.196  12.206  22.734  0.00  0.00    +0.000 HD
ENDBRANCH  12  32
BRANCH  13  34
ATOM     34  O   UNL     1      -2.907  14.688  24.294  0.00  0.00    +0.000 OA
ATOM     35  H   UNL     1      -3.087  15.649  24.325  0.00  0.00    +0.000 HD
ENDBRANCH  13  34
BRANCH  14  36
ATOM     36  O   UNL     1      -4.005  11.851  23.671  0.00  0.00    +0.000 OA
ATOM     37  H   UNL     1      -3.339  11.640  22.989  0.00  0.00    +0.000 HD
ENDBRANCH  14  36
BRANCH  20  38
ATOM     38  O   UNL     1      -4.960  16.026  20.119  0.00  0.00    +0.000 OA
ATOM     39  H   UNL     1      -5.629  16.571  20.572  0.00  0.00    +0.000 HD
ENDBRANCH  20  38
TORSDOF 7
ENDMDL
MODEL 2
REMARK VINA RESULT:      -6.2      4.229      7.317
REMARK  Name = 
REMARK  10 active torsions:
REMARK  status: ('A' for Active; 'I' for Inactive)
REMARK    1  A    between atoms: C_1  and  C_2
REMARK    2  A    between atoms: C_7  and  O_8
REMARK    3  A    between atoms: C_13  and  O_14
REMARK    4  A    between atoms: C_15  and  O_16
REMARK    5  A    between atoms: C_17  and  O_18
REMARK    6  A    between atoms: C_19  and  C_20
REMARK    7  A    between atoms: C_25  and  N_26
REMARK    8  A    between atoms: N_26  and  C_27
REMARK    9  A    between atoms: N_26  and  C_28
REMARK   10  A    between atoms: C_30  and  O_31
REMARK                            x       y       z     vdW  Elec       q    Type
REMARK                         _______ _______ _______ _____ _____    ______ ____
ROOT
ATOM      1  C   UNL     1       2.553  14.078  18.080  0.00  0.00    +0.000 C 
ATOM      2  C   UNL     1       2.223  13.850  19.571  0.00  0.00    +0.000 C 
ATOM      3  C   UNL     1       3.170  14.593  20.514  0.00  0.00    +0.000 A 
ATOM      4  C   UNL     1       4.543  14.642  20.219  0.00  0.00    +0.000 A 
ATOM      5  C   UNL     1       5.428  15.349  21.026  0.00  0.00    +0.000 A 
ATOM      6  C   UNL     1       4.962  16.017  22.153  0.00  0.00    +0.000 A 
ATOM      7  C   UNL     1       3.615  15.932  22.503  0.00  0.00    +0.000 A 
ATOM      8  C   UNL     1       2.714  15.195  21.717  0.00  0.00    +0.000 A 
ATOM      9  C   UNL     1       1.301  14.962  22.180  0.00  0.00    +0.000 C 
ATOM     10  O   UNL     1       0.775  15.413  23.189  0.00  0.00    +0.000 OA
ATOM     11  C   UNL     1       0.517  14.038  21.323  0.00  0.00    +0.000 C 
ATOM     12  C   UNL     1      -0.244  13.060  21.839  0.00  0.00    +0.000 C 
ATOM     13  C   UNL     1      -0.928  12.022  20.937  0.00  0.00    +0.000 C 
ATOM     14  C   UNL     1       0.018  10.883  20.590  0.00  0.00    +0.000 C 
ATOM     15  C   UNL     1       0.035  10.299  19.376  0.00  0.00    +0.000 C 
ATOM     16  C   UNL     1      -1.067  10.575  18.392  0.00  0.00    +0.000 C 
ATOM     17  O   UNL     1      -1.153   9.859  17.388  0.00  0.00    +0.000 OA
ATOM     18  C   UNL     1      -1.980  11.816  18.572  0.00  0.00    +0.000 C 
ATOM     19  C   UNL     1      -1.403  12.753  19.669  0.00  0.00    +0.000 C 
ATOM     20  C   UNL     1      -0.242  13.512  18.976  0.00  0.00    +0.000 C 
ATOM     21  C   UNL     1       0.755  14.255  19.868  0.00  0.00    +0.000 C 
ENDROOT
BRANCH  15  22
ATOM     22  C   UNL     1       1.235   9.495  18.976  0.00  0.00    +0.000 C 
ATOM     23  N   UNL     1       1.903   9.912  17.868  0.00  0.00    +0.000 N 
ATOM     24  O   UNL     1       1.704   8.590  19.661  0.00  0.00    +0.000 OA
ATOM     25  H   UNL     1       2.817   9.514  17.706  0.00  0.00    +0.000 HD
ATOM     26  H   UNL     1       1.690  10.817  17.450  0.00  0.00    +0.000 HD
ENDBRANCH  15  22
BRANCH  18  27
ATOM     27  N   UNL     1      -3.436  11.466  18.603  0.00  0.00    +0.000 NA
ATOM     28  C   UNL     1      -3.990  11.527  17.231  0.00  0.00    +0.000 C 
ATOM     29  C   UNL     1      -4.197  12.432  19.413  0.00  0.00    +0.000 C 
ENDBRANCH  18  27
BRANCH   7  30
ATOM     30  O   UNL     1       3.194  16.573  23.633  0.00  0.00    +0.000 OA
ATOM     31  H   UNL     1       3.359  17.525  23.553  0.00  0.00    +0.000 HD
ENDBRANCH   7  30
BRANCH  12  32
ATOM     32  O   UNL     1      -0.406  12.871  23.206  0.00  0.00    +0.000 OA
ATOM     33  H   UNL     1       0.447  13.110  23.643  0.00  0.00    +0.000 HD
ENDBRANCH  12  32
BRANCH  13  34
ATOM     34  O   UNL     1      -2.024  11.458  21.643  0.00  0.00    +0.000 OA
ATOM     35  H   UNL     1      -1.775  10.534  21.846  0.00  0.00    +0.000 HD
ENDBRANCH  13  34
BRANCH  14  36
ATOM     36  O   UNL     1       0.935  10.514  21.573  0.00  0.00    +0.000 OA
ATOM     37  H   UNL     1       0.539   9.860  22.181  0.00  0.00    +0.000 HD
ENDBRANCH  14  36
BRANCH  20  38
ATOM     38  O   UNL     1      -0.797  14.445  18.037  0.00  0.00    +0.000 OA
ATOM     39  H   UNL     1      -0.070  14.875  17.551  0.00  0.00    +0.000 HD
ENDBRANCH  20  38
TORSDOF 7
ENDMDL
MODEL 3
REMARK VINA RESULT:      -6.2      2.860      5.029
REMARK  Name = 
REMARK  10 active torsions:
REMARK  status: ('A' for Active; 'I' for Inactive)
REMARK    1  A    between atoms: C_1  and  C_2
REMARK    2  A    between atoms: C_7  and  O_8
REMARK    3  A    between atoms: C_13  and  O_14
REMARK    4  A    between atoms: C_15  and  O_16
REMARK    5  A    between atoms: C_17  and  O_18
REMARK    6  A    between atoms: C_19  and  C_20
REMARK    7  A    between atoms: C_25  and  N_26
REMARK    8  A    between atoms: N_26  and  C_27
REMARK    9  A    between atoms: N_26  and  C_28
REMARK   10  A    between atoms: C_30  and  O_31
REMARK                            x       y       z     vdW  Elec       q    Type
REMARK                         _______ _______ _______ _____ _____    ______ ____
ROOT
ATOM      1  C   UNL     1      -0.525  11.163  20.600  0.00  0.00    +0.000 C 
ATOM      2  C   UNL     1      -1.620  12.077  20.008  0.00  0.00    +0.000 C 
ATOM      3  C   UNL     1      -2.328  11.459  18.802  0.00  0.00    +0.000 A 
ATOM      4  C   UNL     1      -1.579  10.748  17.848  0.00  0.00    +0.000 A 
ATOM      5  C   UNL     1      -2.194  10.131  16.764  0.00  0.00    +0.000 A 
ATOM      6  C   UNL     1      -3.573  10.216  16.603  0.00  0.00    +0.000 A 
ATOM      7  C   UNL     1      -4.331  10.966  17.500  0.00  0.00    +0.000 A 
ATOM      8  C   UNL     1      -3.722  11.624  18.581  0.00  0.00    +0.000 A 
ATOM      9  C   UNL     1      -4.508  12.569  19.451  0.00  0.00    +0.000 C 
ATOM     10  O   UNL     1      -5.706  12.810  19.377  0.00  0.00    +0.000 OA
ATOM     11  C   UNL     1      -3.696  13.304  20.451  0.00  0.00    +0.000 C 
ATOM     12  C   UNL     1      -3.845  14.623  20.660  0.00  0.00    +0.000 C 
ATOM     13  C   UNL     1      -2.896  15.394  21.589  0.00  0.00    +0.000 C 
ATOM     14  C   UNL     1      -1.629  15.815  20.860  0.00  0.00    +0.000 C 
ATOM     15  C   UNL     1      -0.417  15.807  21.449  0.00  0.00    +0.000 C 
ATOM     16  C   UNL     1      -0.304  15.630  22.936  0.00  0.00    +0.000 C 
ATOM     17  O   UNL     1       0.786  15.856  23.475  0.00  0.00    +0.000 OA
ATOM     18  C   UNL     1      -1.492  15.045  23.746  0.00  0.00    +0.000 C 
ATOM     19  C   UNL     1      -2.570  14.477  22.782  0.00  0.00    +0.000 C 
ATOM     20  C   UNL     1      -2.009  13.109  22.316  0.00  0.00    +0.000 C 
ATOM     21  C   UNL     1      -2.659  12.451  21.097  0.00  0.00    +0.000 C 
ENDROOT
BRANCH  15  22
ATOM     22  C   UNL     1       0.807  15.828  20.584  0.00  0.00    +0.000 C 
ATOM     23  N   UNL     1       1.578  14.708  20.595  0.00  0.00    +0.000 N 
ATOM     24  O   UNL     1       1.061  16.729  19.789  0.00  0.00    +0.000 OA
ATOM     25  H   UNL     1       2.280  14.627  19.873  0.00  0.00    +0.000 HD
ATOM     26  H   UNL     1       1.235  13.854  21.033  0.00  0.00    +0.000 HD
ENDBRANCH  15  22
BRANCH  18  27
ATOM     27  N   UNL     1      -1.917  15.931  24.875  0.00  0.00    +0.000 NA
ATOM     28  C   UNL     1      -1.154  15.580  26.095  0.00  0.00    +0.000 C 
ATOM     29  C   UNL     1      -3.341  15.740  25.194  0.00  0.00    +0.000 C 
ENDBRANCH  18  27
BRANCH   7  30
ATOM     30  O   UNL     1      -5.678  11.057  17.297  0.00  0.00    +0.000 OA
ATOM     31  H   UNL     1      -6.075  10.172  17.315  0.00  0.00    +0.000 HD
ENDBRANCH   7  30
BRANCH  12  32
ATOM     32  O   UNL     1      -4.802  15.387  20.005  0.00  0.00    +0.000 OA
ATOM     33  H   UNL     1      -4.404  16.274  19.828  0.00  0.00    +0.000 HD
ENDBRANCH  12  32
BRANCH  13  34
ATOM     34  O   UNL     1      -3.547  16.581  22.019  0.00  0.00    +0.000 OA
ATOM     35  H   UNL     1      -4.453  16.320  22.279  0.00  0.00    +0.000 HD
ENDBRANCH  13  34
BRANCH  14  36
ATOM     36  O   UNL     1      -1.767  16.142  19.512  0.00  0.00    +0.000 OA
ATOM     37  H   UNL     1      -2.272  16.972  19.412  0.00  0.00    +0.000 HD
ENDBRANCH  14  36
BRANCH  20  38
ATOM     38  O   UNL     1      -2.066  12.189  23.416  0.00  0.00    +0.000 OA
ATOM     39  H   UNL     1      -2.956  11.795  23.453  0.00  0.00    +0.000 HD
ENDBRANCH  20  38
TORSDOF 7
ENDMDL
MODEL 4
REMARK VINA RESULT:      -6.1      3.258      7.177
REMARK  Name = 
REMARK  10 active torsions:
REMARK  status: ('A' for Active; 'I' for Inactive)
REMARK    1  A    between atoms: C_1  and  C_2
REMARK    2  A    between atoms: C_7  and  O_8
REMARK    3  A    between atoms: C_13  and  O_14
REMARK    4  A    between atoms: C_15  and  O_16
REMARK    5  A    between atoms: C_17  and  O_18
REMARK    6  A    between atoms: C_19  and  C_20
REMARK    7  A    between atoms: C_25  and  N_26
REMARK    8  A    between atoms: N_26  and  C_27
REMARK    9  A    between atoms: N_26  and  C_28
REMARK   10  A    between atoms: C_30  and  O_31
REMARK                            x       y       z     vdW  Elec       q    Type
REMARK                         _______ _______ _______ _____ _____    ______ ____
ROOT
ATOM      1  C   UNL     1      -3.516  12.319  23.546  0.00  0.00    +0.000 C 
ATOM      2  C   UNL     1      -2.640  13.473  23.012  0.00  0.00    +0.000 C 
ATOM      3  C   UNL     1      -2.892  14.799  23.731  0.00  0.00    +0.000 A 
ATOM      4  C   UNL     1      -4.208  15.168  24.061  0.00  0.00    +0.000 A 
ATOM      5  C   UNL     1      -4.473  16.341  24.758  0.00  0.00    +0.000 A 
ATOM      6  C   UNL     1      -3.430  17.181  25.133  0.00  0.00    +0.000 A 
ATOM      7  C   UNL     1      -2.122  16.870  24.763  0.00  0.00    +0.000 A 
ATOM      8  C   UNL     1      -1.840  15.705  24.030  0.00  0.00    +0.000 A 
ATOM      9  C   UNL     1      -0.460  15.452  23.486  0.00  0.00    +0.000 C 
ATOM     10  O   UNL     1       0.536  16.142  23.660  0.00  0.00    +0.000 OA
ATOM     11  C   UNL     1      -0.354  14.263  22.604  0.00  0.00    +0.000 C 
ATOM     12  C   UNL     1       0.310  14.297  21.437  0.00  0.00    +0.000 C 
ATOM     13  C   UNL     1       0.283  13.104  20.470  0.00  0.00    +0.000 C 
ATOM     14  C   UNL     1      -0.953  13.139  19.585  0.00  0.00    +0.000 C 
ATOM     15  C   UNL     1      -1.623  12.025  19.230  0.00  0.00    +0.000 C 
ATOM     16  C   UNL     1      -1.019  10.672  19.481  0.00  0.00    +0.000 C 
ATOM     17  O   UNL     1      -1.539   9.686  18.945  0.00  0.00    +0.000 OA
ATOM     18  C   UNL     1       0.140  10.512  20.501  0.00  0.00    +0.000 C 
ATOM     19  C   UNL     1       0.320  11.821  21.319  0.00  0.00    +0.000 C 
ATOM     20  C   UNL     1      -0.818  11.795  22.370  0.00  0.00    +0.000 C 
ATOM     21  C   UNL     1      -1.137  13.099  23.106  0.00  0.00    +0.000 C 
ENDROOT
BRANCH  15  22
ATOM     22  C   UNL     1      -3.027  12.155  18.722  0.00  0.00    +0.000 C 
ATOM     23  N   UNL     1      -3.236  11.820  17.421  0.00  0.00    +0.000 N 
ATOM     24  O   UNL     1      -3.988  12.411  19.443  0.00  0.00    +0.000 OA
ATOM     25  H   UNL     1      -4.195  11.706  17.125  0.00  0.00    +0.000 HD
ATOM     26  H   UNL     1      -2.506  11.346  16.890  0.00  0.00    +0.000 HD
ENDBRANCH  15  22
BRANCH  18  27
ATOM     27  N   UNL     1       1.345   9.849  19.910  0.00  0.00    +0.000 NA
ATOM     28  C   UNL     1       1.269   9.910  18.432  0.00  0.00    +0.000 C 
ATOM     29  C   UNL     1       1.400   8.424  20.274  0.00  0.00    +0.000 C 
ENDBRANCH  18  27
BRANCH   7  30
ATOM     30  O   UNL     1      -1.122  17.729  25.118  0.00  0.00    +0.000 OA
ATOM     31  H   UNL     1      -0.721  18.116  24.324  0.00  0.00    +0.000 HD
ENDBRANCH   7  30
BRANCH  12  32
ATOM     32  O   UNL     1       0.995  15.420  20.991  0.00  0.00    +0.000 OA
ATOM     33  H   UNL     1       0.797  16.158  21.618  0.00  0.00    +0.000 HD
ENDBRANCH  12  32
BRANCH  13  34
ATOM     34  O   UNL     1       1.414  13.186  19.616  0.00  0.00    +0.000 OA
ATOM     35  H   UNL     1       1.237  12.586  18.865  0.00  0.00    +0.000 HD
ENDBRANCH  13  34
BRANCH  14  36
ATOM     36  O   UNL     1      -1.416  14.400  19.212  0.00  0.00    +0.000 OA
ATOM     37  H   UNL     1      -1.349  15.024  19.960  0.00  0.00    +0.000 HD
ENDBRANCH  14  36
BRANCH  20  38
ATOM     38  O   UNL     1      -0.524  10.782  23.344  0.00  0.00    +0.000 OA
ATOM     39  H   UNL     1       0.349  10.966  23.737  0.00  0.00    +0.000 HD
ENDBRANCH  20  38
TORSDOF 7
ENDMDL
MODEL 5
REMARK VINA RESULT:      -6.1      1.113      1.177
REMARK  Name = 
REMARK  10 active torsions:
REMARK  status: ('A' for Active; 'I' for Inactive)
REMARK    1  A    between atoms: C_1  and  C_2
REMARK    2  A    between atoms: C_7  and  O_8
REMARK    3  A    between atoms: C_13  and  O_14
REMARK    4  A    between atoms: C_15  and  O_16
REMARK    5  A    between atoms: C_17  and  O_18
REMARK    6  A    between atoms: C_19  and  C_20
REMARK    7  A    between atoms: C_25  and  N_26
REMARK    8  A    between atoms: N_26  and  C_27
REMARK    9  A    between atoms: N_26  and  C_28
REMARK   10  A    between atoms: C_30  and  O_31
REMARK                            x       y       z     vdW  Elec       q    Type
REMARK                         _______ _______ _______ _____ _____    ______ ____
ROOT
ATOM      1  C   UNL     1      -5.175  13.548  19.091  0.00  0.00    +0.000 C 
ATOM      2  C   UNL     1      -3.998  12.878  19.833  0.00  0.00    +0.000 C 
ATOM      3  C   UNL     1      -3.318  11.782  19.011  0.00  0.00    +0.000 A 
ATOM      4  C   UNL     1      -4.103  10.904  18.244  0.00  0.00    +0.000 A 
ATOM      5  C   UNL     1      -3.518   9.927  17.446  0.00  0.00    +0.000 A 
ATOM      6  C   UNL     1      -2.134   9.798  17.402  0.00  0.00    +0.000 A 
ATOM      7  C   UNL     1      -1.336  10.615  18.201  0.00  0.00    +0.000 A 
ATOM      8  C   UNL     1      -1.911  11.585  19.039  0.00  0.00    +0.000 A 
ATOM      9  C   UNL     1      -1.069  12.351  20.024  0.00  0.00    +0.000 C 
ATOM     10  O   UNL     1       0.145  12.282  20.160  0.00  0.00    +0.000 OA
ATOM     11  C   UNL     1      -1.839  13.224  20.943  0.00  0.00    +0.000 C 
ATOM     12  C   UNL     1      -1.589  13.268  22.262  0.00  0.00    +0.000 C 
ATOM     13  C   UNL     1      -2.491  14.062  23.219  0.00  0.00    +0.000 C 
ATOM     14  C   UNL     1      -3.704  13.247  23.638  0.00  0.00    +0.000 C 
ATOM     15  C   UNL     1      -4.925  13.795  23.800  0.00  0.00    +0.000 C 
ATOM     16  C   UNL     1      -5.082  15.288  23.827  0.00  0.00    +0.000 C 
ATOM     17  O   UNL     1      -6.160  15.761  24.204  0.00  0.00    +0.000 OA
ATOM     18  C   UNL     1      -3.962  16.201  23.261  0.00  0.00    +0.000 C 
ATOM     19  C   UNL     1      -2.914  15.351  22.491  0.00  0.00    +0.000 C 
ATOM     20  C   UNL     1      -3.574  15.046  21.123  0.00  0.00    +0.000 C 
ATOM     21  C   UNL     1      -2.954  13.941  20.263  0.00  0.00    +0.000 C 
ENDROOT
BRANCH  15  22
ATOM     22  C   UNL     1      -6.125  12.898  23.804  0.00  0.00    +0.000 C 
ATOM     23  N   UNL     1      -7.085  13.171  24.727  0.00  0.00    +0.000 N 
ATOM     24  O   UNL     1      -6.335  12.041  22.949  0.00  0.00    +0.000 OA
ATOM     25  H   UNL     1      -7.978  12.714  24.610  0.00  0.00    +0.000 HD
ATOM     26  H   UNL     1      -7.053  14.040  25.258  0.00  0.00    +0.000 HD
ENDBRANCH  15  22
BRANCH  18  27
ATOM     27  N   UNL     1      -3.489  17.221  24.251  0.00  0.00    +0.000 NA
ATOM     28  C   UNL     1      -4.361  18.417  24.184  0.00  0.00    +0.000 C 
ATOM     29  C   UNL     1      -2.123  17.672  23.938  0.00  0.00    +0.000 C 
ENDBRANCH  18  27
BRANCH   7  30
ATOM     30  O   UNL     1       0.018  10.443  18.161  0.00  0.00    +0.000 OA
ATOM     31  H   UNL     1       0.248   9.555  18.475  0.00  0.00    +0.000 HD
ENDBRANCH   7  30
BRANCH  12  32
ATOM     32  O   UNL     1      -0.560  12.550  22.859  0.00  0.00    +0.000 OA
ATOM     33  H   UNL     1      -0.935  12.098  23.654  0.00  0.00    +0.000 HD
ENDBRANCH  12  32
BRANCH  13  34
ATOM     34  O   UNL     1      -1.755  14.357  24.397  0.00  0.00    +0.000 OA
ATOM     35  H   UNL     1      -2.279  15.017  24.892  0.00  0.00    +0.000 HD
ENDBRANCH  13  34
BRANCH  14  36
ATOM     36  O   UNL     1      -3.513  11.873  23.777  0.00  0.00    +0.000 OA
ATOM     37  H   UNL     1      -4.038  11.529  24.525  0.00  0.00    +0.000 HD
ENDBRANCH  14  36
BRANCH  20  38
ATOM     38  O   UNL     1      -3.614  16.256  20.351  0.00  0.00    +0.000 OA
ATOM     39  H   UNL     1      -4.265  16.152  19.634  0.00  0.00    +0.000 HD
ENDBRANCH  20  38
TORSDOF 7
ENDMDL
MODEL 6
REMARK VINA RESULT:      -6.1      3.800      5.778
REMARK  Name = 
REMARK  10 active torsions:
REMARK  status: ('A' for Active; 'I' for Inactive)
REMARK    1  A    between atoms: C_1  and  C_2
REMARK    2  A    between atoms: C_7  and  O_8
REMARK    3  A    between atoms: C_13  and  O_14
REMARK    4  A    between atoms: C_15  and  O_16
REMARK    5  A    between atoms: C_17  and  O_18
REMARK    6  A    between atoms: C_19  and  C_20
REMARK    7  A    between atoms: C_25  and  N_26
REMARK    8  A    between atoms: N_26  and  C_27
REMARK    9  A    between atoms: N_26  and  C_28
REMARK   10  A    between atoms: C_30  and  O_31
REMARK                            x       y       z     vdW  Elec       q    Type
REMARK                         _______ _______ _______ _____ _____    ______ ____
ROOT
ATOM      1  C   UNL     1      -0.415  16.084  18.460  0.00  0.00    +0.000 C 
ATOM      2  C   UNL     1       0.443  14.911  18.981  0.00  0.00    +0.000 C 
ATOM      3  C   UNL     1       1.940  15.110  18.737  0.00  0.00    +0.000 A 
ATOM      4  C   UNL     1       2.376  15.660  17.519  0.00  0.00    +0.000 A 
ATOM      5  C   UNL     1       3.725  15.901  17.281  0.00  0.00    +0.000 A 
ATOM      6  C   UNL     1       4.672  15.590  18.251  0.00  0.00    +0.000 A 
ATOM      7  C   UNL     1       4.272  14.986  19.442  0.00  0.00    +0.000 A 
ATOM      8  C   UNL     1       2.917  14.705  19.686  0.00  0.00    +0.000 A 
ATOM      9  C   UNL     1       2.501  13.905  20.891  0.00  0.00    +0.000 C 
ATOM     10  O   UNL     1       3.229  13.490  21.783  0.00  0.00    +0.000 OA
ATOM     11  C   UNL     1       1.059  13.556  20.930  0.00  0.00    +0.000 C 
ATOM     12  C   UNL     1       0.632  12.322  21.244  0.00  0.00    +0.000 C 
ATOM     13  C   UNL     1      -0.852  11.941  21.134  0.00  0.00    +0.000 C 
ATOM     14  C   UNL     1      -1.214  11.533  19.715  0.00  0.00    +0.000 C 
ATOM     15  C   UNL     1      -2.394  11.852  19.147  0.00  0.00    +0.000 C 
ATOM     16  C   UNL     1      -3.510  12.403  19.989  0.00  0.00    +0.000 C 
ATOM     17  O   UNL     1      -4.642  12.469  19.496  0.00  0.00    +0.000 OA
ATOM     18  C   UNL     1      -3.209  13.000  21.390  0.00  0.00    +0.000 C 
ATOM     19  C   UNL     1      -1.676  13.159  21.588  0.00  0.00    +0.000 C 
ATOM     20  C   UNL     1      -1.301  14.434  20.790  0.00  0.00    +0.000 C 
ATOM     21  C   UNL     1       0.180  14.677  20.492  0.00  0.00    +0.000 C 
ENDROOT
BRANCH  15  22
ATOM     22  C   UNL     1      -2.519  11.788  17.655  0.00  0.00    +0.000 C 
ATOM     23  N   UNL     1      -1.506  12.338  16.936  0.00  0.00    +0.000 N 
ATOM     24  O   UNL     1      -3.402  11.160  17.075  0.00  0.00    +0.000 OA
ATOM     25  H   UNL     1      -1.474  12.124  15.950  0.00  0.00    +0.000 HD
ATOM     26  H   UNL     1      -0.641  12.616  17.399  0.00  0.00    +0.000 HD
ENDBRANCH  15  22
BRANCH  18  27
ATOM     27  N   UNL     1      -4.024  12.369  22.476  0.00  0.00    +0.000 NA
ATOM     28  C   UNL     1      -5.330  13.059  22.581  0.00  0.00    +0.000 C 
ATOM     29  C   UNL     1      -3.363  12.507  23.784  0.00  0.00    +0.000 C 
ENDBRANCH  18  27
BRANCH   7  30
ATOM     30  O   UNL     1       5.228  14.664  20.362  0.00  0.00    +0.000 OA
ATOM     31  H   UNL     1       5.033  13.796  20.750  0.00  0.00    +0.000 HD
ENDBRANCH   7  30
BRANCH  12  32
ATOM     32  O   UNL     1       1.493  11.296  21.610  0.00  0.00    +0.000 OA
ATOM     33  H   UNL     1       1.202  10.963  22.493  0.00  0.00    +0.000 HD
ENDBRANCH  12  32
BRANCH  13  34
ATOM     34  O   UNL     1      -1.095  10.819  21.970  0.00  0.00    +0.000 OA
ATOM     35  H   UNL     1      -1.241  10.057  21.374  0.00  0.00    +0.000 HD
ENDBRANCH  13  34
BRANCH  14  36
ATOM     36  O   UNL     1      -0.228  10.868  18.988  0.00  0.00    +0.000 OA
ATOM     37  H   UNL     1       0.279  11.500  18.442  0.00  0.00    +0.000 HD
ENDBRANCH  14  36
BRANCH  20  38
ATOM     38  O   UNL     1      -1.821  15.580  21.482  0.00  0.00    +0.000 OA
ATOM     39  H   UNL     1      -1.304  15.718  22.296  0.00  0.00    +0.000 HD
ENDBRANCH  20  38
TORSDOF 7
ENDMDL
MODEL 7
REMARK VINA RESULT:      -6.0      2.523      3.734
REMARK  Name = 
REMARK  10 active torsions:
REMARK  status: ('A' for Active; 'I' for Inactive)
REMARK    1  A    between atoms: C_1  and  C_2
REMARK    2  A    between atoms: C_7  and  O_8
REMARK    3  A    between atoms: C_13  and  O_14
REMARK    4  A    between atoms: C_15  and  O_16
REMARK    5  A    between atoms: C_17  and  O_18
REMARK    6  A    between atoms: C_19  and  C_20
REMARK    7  A    between atoms: C_25  and  N_26
REMARK    8  A    between atoms: N_26  and  C_27
REMARK    9  A    between atoms: N_26  and  C_28
REMARK   10  A    between atoms: C_30  and  O_31
REMARK                            x       y       z     vdW  Elec       q    Type
REMARK                         _______ _______ _______ _____ _____    ______ ____
ROOT
ATOM      1  C   UNL     1      -1.385  12.979  18.503  0.00  0.00    +0.000 C 
ATOM      2  C   UNL     1      -1.945  12.342  19.794  0.00  0.00    +0.000 C 
ATOM      3  C   UNL     1      -1.047  11.238  20.354  0.00  0.00    +0.000 A 
ATOM      4  C   UNL     1      -0.431  10.332  19.473  0.00  0.00    +0.000 A 
ATOM      5  C   UNL     1       0.430   9.346  19.941  0.00  0.00    +0.000 A 
ATOM      6  C   UNL     1       0.689   9.235  21.303  0.00  0.00    +0.000 A 
ATOM      7  C   UNL     1       0.043  10.081  22.204  0.00  0.00    +0.000 A 
ATOM      8  C   UNL     1      -0.856  11.060  21.751  0.00  0.00    +0.000 A 
ATOM      9  C   UNL     1      -1.680  11.859  22.725  0.00  0.00    +0.000 C 
ATOM     10  O   UNL     1      -1.623  11.811  23.946  0.00  0.00    +0.000 OA
ATOM     11  C   UNL     1      -2.693  12.742  22.095  0.00  0.00    +0.000 C 
ATOM     12  C   UNL     1      -3.954  12.818  22.549  0.00  0.00    +0.000 C 
ATOM     13  C   UNL     1      -5.026  13.620  21.796  0.00  0.00    +0.000 C 
ATOM     14  C   UNL     1      -5.648  12.799  20.678  0.00  0.00    +0.000 C 
ATOM     15  C   UNL     1      -5.990  13.333  19.490  0.00  0.00    +0.000 C 
ATOM     16  C   UNL     1      -6.012  14.824  19.313  0.00  0.00    +0.000 C 
ATOM     17  O   UNL     1      -6.546  15.290  18.300  0.00  0.00    +0.000 OA
ATOM     18  C   UNL     1      -5.258  15.740  20.314  0.00  0.00    +0.000 C 
ATOM     19  C   UNL     1      -4.349  14.887  21.242  0.00  0.00    +0.000 C 
ATOM     20  C   UNL     1      -3.108  14.543  20.379  0.00  0.00    +0.000 C 
ATOM     21  C   UNL     1      -2.184  13.429  20.874  0.00  0.00    +0.000 C 
ENDROOT
BRANCH  15  22
ATOM     22  C   UNL     1      -6.201  12.419  18.320  0.00  0.00    +0.000 C 
ATOM     23  N   UNL     1      -5.282  12.490  17.320  0.00  0.00    +0.000 N 
ATOM     24  O   UNL     1      -7.062  11.544  18.290  0.00  0.00    +0.000 OA
ATOM     25  H   UNL     1      -5.293  11.750  16.634  0.00  0.00    +0.000 HD
ATOM     26  H   UNL     1      -4.417  13.011  17.456  0.00  0.00    +0.000 HD
ENDBRANCH  15  22
BRANCH  18  27
ATOM     27  N   UNL     1      -6.140  16.788  20.920  0.00  0.00    +0.000 NA
ATOM     28  C   UNL     1      -6.191  17.969  20.027  0.00  0.00    +0.000 C 
ATOM     29  C   UNL     1      -5.606  17.252  22.210  0.00  0.00    +0.000 C 
ENDBRANCH  18  27
BRANCH   7  30
ATOM     30  O   UNL     1       0.294   9.926  23.537  0.00  0.00    +0.000 OA
ATOM     31  H   UNL     1      -0.533   9.999  24.039  0.00  0.00    +0.000 HD
ENDBRANCH   7  30
BRANCH  12  32
ATOM     32  O   UNL     1      -4.395  12.128  23.671  0.00  0.00    +0.000 OA
ATOM     33  H   UNL     1      -3.596  11.819  24.164  0.00  0.00    +0.000 HD
ENDBRANCH  12  32
BRANCH  13  34
ATOM     34  O   UNL     1      -6.066  13.951  22.704  0.00  0.00    +0.000 OA
ATOM     35  H   UNL     1      -6.277  13.132  23.194  0.00  0.00    +0.000 HD
ENDBRANCH  13  34
BRANCH  14  36
ATOM     36  O   UNL     1      -5.781  11.430  20.912  0.00  0.00    +0.000 OA
ATOM     37  H   UNL     1      -5.078  10.934  20.450  0.00  0.00    +0.000 HD
ENDBRANCH  14  36
BRANCH  20  38
ATOM     38  O   UNL     1      -2.329  15.735  20.197  0.00  0.00    +0.000 OA
ATOM     39  H   UNL     1      -2.931  16.484  20.034  0.00  0.00    +0.000 HD
ENDBRANCH  20  38
TORSDOF 7
ENDMDL
MODEL 8
REMARK VINA RESULT:      -5.9      3.288      6.584
REMARK  Name = 
REMARK  10 active torsions:
REMARK  status: ('A' for Active; 'I' for Inactive)
REMARK    1  A    between atoms: C_1  and  C_2
REMARK    2  A    between atoms: C_7  and  O_8
REMARK    3  A    between atoms: C_13  and  O_14
REMARK    4  A    between atoms: C_15  and  O_16
REMARK    5  A    between atoms: C_17  and  O_18
REMARK    6  A    between atoms: C_19  and  C_20
REMARK    7  A    between atoms: C_25  and  N_26
REMARK    8  A    between atoms: N_26  and  C_27
REMARK    9  A    between atoms: N_26  and  C_28
REMARK   10  A    between atoms: C_30  and  O_31
REMARK                            x       y       z     vdW  Elec       q    Type
REMARK                         _______ _______ _______ _____ _____    ______ ____
ROOT
ATOM      1  C   UNL     1      -3.110  14.092  22.453  0.00  0.00    +0.000 C 
ATOM      2  C   UNL     1      -3.478  12.972  21.456  0.00  0.00    +0.000 C 
ATOM      3  C   UNL     1      -4.963  12.605  21.490  0.00  0.00    +0.000 A 
ATOM      4  C   UNL     1      -5.630  12.532  22.725  0.00  0.00    +0.000 A 
ATOM      5  C   UNL     1      -6.989  12.250  22.793  0.00  0.00    +0.000 A 
ATOM      6  C   UNL     1      -7.714  12.023  21.628  0.00  0.00    +0.000 A 
ATOM      7  C   UNL     1      -7.064  12.027  20.395  0.00  0.00    +0.000 A 
ATOM      8  C   UNL     1      -5.684  12.278  20.311  0.00  0.00    +0.000 A 
ATOM      9  C   UNL     1      -4.950  12.118  19.007  0.00  0.00    +0.000 C 
ATOM     10  O   UNL     1      -5.438  11.840  17.919  0.00  0.00    +0.000 OA
ATOM     11  C   UNL     1      -3.477  12.265  19.108  0.00  0.00    +0.000 C 
ATOM     12  C   UNL     1      -2.632  11.412  18.505  0.00  0.00    +0.000 C 
ATOM     13  C   UNL     1      -1.117  11.491  18.742  0.00  0.00    +0.000 C 
ATOM     14  C   UNL     1      -0.716  10.744  20.004  0.00  0.00    +0.000 C 
ATOM     15  C   UNL     1       0.247  11.190  20.836  0.00  0.00    +0.000 C 
ATOM     16  C   UNL     1       1.148  12.313  20.409  0.00  0.00    +0.000 C 
ATOM     17  O   UNL     1       2.158  12.547  21.084  0.00  0.00    +0.000 OA
ATOM     18  C   UNL     1       0.739  13.239  19.233  0.00  0.00    +0.000 C 
ATOM     19  C   UNL     1      -0.741  12.981  18.836  0.00  0.00    +0.000 C 
ATOM     20  C   UNL     1      -1.578  13.716  19.913  0.00  0.00    +0.000 C 
ATOM     21  C   UNL     1      -3.066  13.373  20.015  0.00  0.00    +0.000 C 
ENDROOT
BRANCH  15  22
ATOM     22  C   UNL     1       0.303  10.650  22.233  0.00  0.00    +0.000 C 
ATOM     23  N   UNL     1      -0.763  10.922  23.032  0.00  0.00    +0.000 N 
ATOM     24  O   UNL     1       1.177   9.884  22.629  0.00  0.00    +0.000 OA
ATOM     25  H   UNL     1      -0.834  10.401  23.894  0.00  0.00    +0.000 HD
ATOM     26  H   UNL     1      -1.613  11.319  22.635  0.00  0.00    +0.000 HD
ENDBRANCH  15  22
BRANCH  18  27
ATOM     27  N   UNL     1       1.781  13.309  18.160  0.00  0.00    +0.000 NA
ATOM     28  C   UNL     1       2.544  12.041  18.127  0.00  0.00    +0.000 C 
ATOM     29  C   UNL     1       2.751  14.383  18.430  0.00  0.00    +0.000 C 
ENDBRANCH  18  27
BRANCH   7  30
ATOM     30  O   UNL     1      -7.796  11.770  19.272  0.00  0.00    +0.000 OA
ATOM     31  H   UNL     1      -8.221  10.901  19.347  0.00  0.00    +0.000 HD
ENDBRANCH   7  30
BRANCH  12  32
ATOM     32  O   UNL     1      -3.063  10.368  17.697  0.00  0.00    +0.000 OA
ATOM     33  H   UNL     1      -2.921  10.639  16.758  0.00  0.00    +0.000 HD
ENDBRANCH  12  32
BRANCH  13  34
ATOM     34  O   UNL     1      -0.454  10.864  17.654  0.00  0.00    +0.000 OA
ATOM     35  H   UNL     1      -0.244  11.572  17.013  0.00  0.00    +0.000 HD
ENDBRANCH  13  34
BRANCH  14  36
ATOM     36  O   UNL     1      -1.451   9.600  20.310  0.00  0.00    +0.000 OA
ATOM     37  H   UNL     1      -2.365   9.837  20.561  0.00  0.00    +0.000 HD
ENDBRANCH  14  36
BRANCH  20  38
ATOM     38  O   UNL     1      -1.449  15.131  19.710  0.00  0.00    +0.000 OA
ATOM     39  H   UNL     1      -1.512  15.581  20.572  0.00  0.00    +0.000 HD
ENDBRANCH  20  38
TORSDOF 7
ENDMDL
MODEL 9
REMARK VINA RESULT:      -5.8      2.284      3.251
REMARK  Name = 
REMARK  10 active torsions:
REMARK  status: ('A' for Active; 'I' for Inactive)
REMARK    1  A    between atoms: C_1  and  C_2
REMARK    2  A    between atoms: C_7  and  O_8
REMARK    3  A    between atoms: C_13  and  O_14
REMARK    4  A    between atoms: C_15  and  O_16
REMARK    5  A    between atoms: C_17  and  O_18
REMARK    6  A    between atoms: C_19  and  C_20
REMARK    7  A    between atoms: C_25  and  N_26
REMARK    8  A    between atoms: N_26  and  C_27
REMARK    9  A    between atoms: N_26  and  C_28
REMARK   10  A    between atoms: C_30  and  O_31
REMARK                            x       y       z     vdW  Elec       q    Type
REMARK                         _______ _______ _______ _____ _____    ______ ____
ROOT
ATOM      1  C   UNL     1      -0.969  14.055  19.144  0.00  0.00    +0.000 C 
ATOM      2  C   UNL     1      -1.426  12.988  20.162  0.00  0.00    +0.000 C 
ATOM      3  C   UNL     1      -0.663  11.669  20.030  0.00  0.00    +0.000 A 
ATOM      4  C   UNL     1      -0.362  11.168  18.752  0.00  0.00    +0.000 A 
ATOM      5  C   UNL     1       0.373   9.998  18.593  0.00  0.00    +0.000 A 
ATOM      6  C   UNL     1       0.816   9.295  19.708  0.00  0.00    +0.000 A 
ATOM      7  C   UNL     1       0.477   9.736  20.986  0.00  0.00    +0.000 A 
ATOM      8  C   UNL     1      -0.293  10.898  21.164  0.00  0.00    +0.000 A 
ATOM      9  C   UNL     1      -0.801  11.283  22.528  0.00  0.00    +0.000 C 
ATOM     10  O   UNL     1      -0.566  10.715  23.586  0.00  0.00    +0.000 OA
ATOM     11  C   UNL     1      -1.726  12.443  22.534  0.00  0.00    +0.000 C 
ATOM     12  C   UNL     1      -2.868  12.441  23.241  0.00  0.00    +0.000 C 
ATOM     13  C   UNL     1      -3.883  13.587  23.118  0.00  0.00    +0.000 C 
ATOM     14  C   UNL     1      -4.807  13.382  21.927  0.00  0.00    +0.000 C 
ATOM     15  C   UNL     1      -5.228  14.401  21.153  0.00  0.00    +0.000 C 
ATOM     16  C   UNL     1      -5.012  15.821  21.593  0.00  0.00    +0.000 C 
ATOM     17  O   UNL     1      -5.605  16.722  20.989  0.00  0.00    +0.000 OA
ATOM     18  C   UNL     1      -3.962  16.147  22.689  0.00  0.00    +0.000 C 
ATOM     19  C   UNL     1      -3.087  14.897  22.982  0.00  0.00    +0.000 C 
ATOM     20  C   UNL     1      -2.075  14.834  21.809  0.00  0.00    +0.000 C 
ATOM     21  C   UNL     1      -1.298  13.530  21.609  0.00  0.00    +0.000 C 
ENDROOT
BRANCH  15  22
ATOM     22  C   UNL     1      -5.777  14.096  19.791  0.00  0.00    +0.000 C 
ATOM     23  N   UNL     1      -5.024  13.287  19.001  0.00  0.00    +0.000 N 
ATOM     24  O   UNL     1      -6.902  14.423  19.425  0.00  0.00    +0.000 OA
ATOM     25  H   UNL     1      -5.467  12.910  18.175  0.00  0.00    +0.000 HD
ATOM     26  H   UNL     1      -4.225  12.788  19.391  0.00  0.00    +0.000 HD
ENDBRANCH  15  22
BRANCH  18  27
ATOM     27  N   UNL     1      -4.540  16.919  23.834  0.00  0.00    +0.000 NA
ATOM     28  C   UNL     1      -3.682  16.747  25.030  0.00  0.00    +0.000 C 
ATOM     29  C   UNL     1      -5.876  16.417  24.194  0.00  0.00    +0.000 C 
ENDBRANCH  18  27
BRANCH   7  30
ATOM     30  O   UNL     1       0.900   9.007  22.060  0.00  0.00    +0.000 OA
ATOM     31  H   UNL     1       1.868   8.955  22.063  0.00  0.00    +0.000 HD
ENDBRANCH   7  30
BRANCH  12  32
ATOM     32  O   UNL     1      -3.246  11.386  24.062  0.00  0.00    +0.000 OA
ATOM     33  H   UNL     1      -3.535  11.769  24.925  0.00  0.00    +0.000 HD
ENDBRANCH  12  32
BRANCH  13  34
ATOM     34  O   UNL     1      -4.696  13.601  24.283  0.00  0.00    +0.000 OA
ATOM     35  H   UNL     1      -4.340  14.306  24.859  0.00  0.00    +0.000 HD
ENDBRANCH  13  34
BRANCH  14  36
ATOM     36  O   UNL     1      -5.143  12.064  21.621  0.00  0.00    +0.000 OA
ATOM     37  H   UNL     1      -4.948  11.477  22.376  0.00  0.00    +0.000 HD
ENDBRANCH  14  36
BRANCH  20  38
ATOM     38  O   UNL     1      -1.134  15.908  21.954  0.00  0.00    +0.000 OA
ATOM     39  H   UNL     1      -1.365  16.426  22.746  0.00  0.00    +0.000 HD
ENDBRANCH  20  38
TORSDOF 7
ENDMDL
