MODEL 1
REMARK VINA RESULT:      -8.2      0.000      0.000
REMARK  Name = 
REMARK  7 active torsions:
REMARK  status: ('A' for Active; 'I' for Inactive)
REMARK    1  A    between atoms: C_1  and  O_2
REMARK    2  A    between atoms: O_2  and  C_3
REMARK    3  A    between atoms: C_3  and  C_5
REMARK    4  A    between atoms: C_10  and  N_11
REMARK    5  A    between atoms: C_12  and  C_14
REMARK    6  A    between atoms: C_15  and  C_16
REMARK    7  A    between atoms: C_19  and  C_20
REMARK                            x       y       z     vdW  Elec       q    Type
REMARK                         _______ _______ _______ _____ _____    ______ ____
ROOT
ATOM      1  N   UNL     1       6.345   7.247  16.977  0.00  0.00    +0.000 N 
ATOM      2  C   UNL     1       7.495   7.417  17.726  0.00  0.00    +0.000 C 
ATOM      3  O   UNL     1       7.967   6.607  18.516  0.00  0.00    +0.000 OA
ATOM      4  H   UNL     1       6.155   7.900  16.223  0.00  0.00    +0.000 HD
ENDROOT
BRANCH   1  10
ATOM      5  C   UNL     1       5.558   5.049  16.128  0.00  0.00    +0.000 A 
ATOM      6  C   UNL     1       4.701   3.936  16.289  0.00  0.00    +0.000 A 
ATOM      7  C   UNL     1       3.777   3.870  17.329  0.00  0.00    +0.000 A 
ATOM      8  C   UNL     1       3.676   4.925  18.217  0.00  0.00    +0.000 A 
ATOM      9  C   UNL     1       4.509   6.035  18.070  0.00  0.00    +0.000 A 
ATOM     10  C   UNL     1       5.479   6.114  17.054  0.00  0.00    +0.000 A 
BRANCH   5  11
ATOM     11  C   UNL     1       6.507   4.933  14.980  0.00  0.00    +0.000 C 
ATOM     12  O   UNL     1       7.632   5.417  15.003  0.00  0.00    +0.000 OA
BRANCH  11  14
ATOM     13  C   UNL     1       6.921   4.120  12.843  0.00  0.00    +0.000 C 
ATOM     14  O   UNL     1       5.988   4.256  13.923  0.00  0.00    +0.000 OA
ENDBRANCH  11  14
ENDBRANCH   5  11
ENDBRANCH   1  10
BRANCH   2  15
ATOM     15  C   UNL     1       8.220   8.691  17.458  0.00  0.00    +0.000 C 
ATOM     16  C   UNL     1       8.489   9.464  18.525  0.00  0.00    +0.000 C 
BRANCH  16  17
ATOM     17  C   UNL     1       9.245  10.719  18.550  0.00  0.00    +0.000 A 
ATOM     18  C   UNL     1       8.754  11.805  17.812  0.00  0.00    +0.000 A 
ATOM     19  C   UNL     1       9.337  13.070  17.926  0.00  0.00    +0.000 A 
ATOM     20  C   UNL     1      10.419  13.274  18.792  0.00  0.00    +0.000 A 
ATOM     21  C   UNL     1      10.928  12.180  19.509  0.00  0.00    +0.000 A 
ATOM     22  C   UNL     1      10.344  10.915  19.391  0.00  0.00    +0.000 A 
BRANCH  20  23
ATOM     23  C   UNL     1      11.010  14.647  18.990  0.00  0.00    +0.000 C 
ATOM     24  F   UNL     1      10.393  15.619  18.262  0.00  0.00    +0.000 F 
ATOM     25  F   UNL     1      10.939  15.055  20.289  0.00  0.00    +0.000 F 
ATOM     26  F   UNL     1      12.327  14.704  18.652  0.00  0.00    +0.000 F 
ENDBRANCH  20  23
ENDBRANCH  16  17
ENDBRANCH   2  15
TORSDOF 6
ENDMDL
MODEL 2
REMARK VINA RESULT:      -8.1      1.637      2.827
REMARK  Name = 
REMARK  7 active torsions:
REMARK  status: ('A' for Active; 'I' for Inactive)
REMARK    1  A    between atoms: C_1  and  O_2
REMARK    2  A    between atoms: O_2  and  C_3
REMARK    3  A    between atoms: C_3  and  C_5
REMARK    4  A    between atoms: C_10  and  N_11
REMARK    5  A    between atoms: C_12  and  C_14
REMARK    6  A    between atoms: C_15  and  C_16
REMARK    7  A    between atoms: C_19  and  C_20
REMARK                            x       y       z     vdW  Elec       q    Type
REMARK                         _______ _______ _______ _____ _____    ______ ____
ROOT
ATOM      1  N   UNL     1       6.851   7.310  16.740  0.00  0.00    +0.000 N 
ATOM      2  C   UNL     1       7.667   7.580  17.823  0.00  0.00    +0.000 C 
ATOM      3  O   UNL     1       8.066   6.763  18.646  0.00  0.00    +0.000 OA
ATOM      4  H   UNL     1       6.740   8.023  16.025  0.00  0.00    +0.000 HD
ENDROOT
BRANCH   1  10
ATOM      5  C   UNL     1       5.084   5.590  17.039  0.00  0.00    +0.000 A 
ATOM      6  C   UNL     1       4.553   4.334  16.664  0.00  0.00    +0.000 A 
ATOM      7  C   UNL     1       5.191   3.523  15.729  0.00  0.00    +0.000 A 
ATOM      8  C   UNL     1       6.382   3.940  15.167  0.00  0.00    +0.000 A 
ATOM      9  C   UNL     1       6.925   5.173  15.530  0.00  0.00    +0.000 A 
ATOM     10  C   UNL     1       6.285   6.034  16.441  0.00  0.00    +0.000 A 
BRANCH   5  11
ATOM     11  C   UNL     1       4.249   6.339  18.028  0.00  0.00    +0.000 C 
ATOM     12  O   UNL     1       3.975   5.889  19.133  0.00  0.00    +0.000 OA
BRANCH  11  14
ATOM     13  C   UNL     1       2.517   7.888  18.038  0.00  0.00    +0.000 C 
ATOM     14  O   UNL     1       3.827   7.545  17.566  0.00  0.00    +0.000 OA
ENDBRANCH  11  14
ENDBRANCH   5  11
ENDBRANCH   1  10
BRANCH   2  15
ATOM     15  C   UNL     1       8.124   8.995  17.911  0.00  0.00    +0.000 C 
ATOM     16  C   UNL     1       8.930   9.303  18.942  0.00  0.00    +0.000 C 
BRANCH  16  17
ATOM     17  C   UNL     1       9.573  10.590  19.220  0.00  0.00    +0.000 A 
ATOM     18  C   UNL     1       9.986  11.374  18.134  0.00  0.00    +0.000 A 
ATOM     19  C   UNL     1      10.454  12.677  18.329  0.00  0.00    +0.000 A 
ATOM     20  C   UNL     1      10.506  13.223  19.617  0.00  0.00    +0.000 A 
ATOM     21  C   UNL     1      10.119  12.428  20.707  0.00  0.00    +0.000 A 
ATOM     22  C   UNL     1       9.655  11.124  20.509  0.00  0.00    +0.000 A 
BRANCH  20  23
ATOM     23  C   UNL     1      10.931  14.653  19.841  0.00  0.00    +0.000 C 
ATOM     24  F   UNL     1      12.162  14.944  19.336  0.00  0.00    +0.000 F 
ATOM     25  F   UNL     1      10.074  15.541  19.263  0.00  0.00    +0.000 F 
ATOM     26  F   UNL     1      10.979  14.984  21.160  0.00  0.00    +0.000 F 
ENDBRANCH  20  23
ENDBRANCH  16  17
ENDBRANCH   2  15
TORSDOF 6
ENDMDL
MODEL 3
REMARK VINA RESULT:      -8.1      1.625      2.770
REMARK  Name = 
REMARK  7 active torsions:
REMARK  status: ('A' for Active; 'I' for Inactive)
REMARK    1  A    between atoms: C_1  and  O_2
REMARK    2  A    between atoms: O_2  and  C_3
REMARK    3  A    between atoms: C_3  and  C_5
REMARK    4  A    between atoms: C_10  and  N_11
REMARK    5  A    between atoms: C_12  and  C_14
REMARK    6  A    between atoms: C_15  and  C_16
REMARK    7  A    between atoms: C_19  and  C_20
REMARK                            x       y       z     vdW  Elec       q    Type
REMARK                         _______ _______ _______ _____ _____    ______ ____
ROOT
ATOM      1  N   UNL     1       6.900   7.239  16.688  0.00  0.00    +0.000 N 
ATOM      2  C   UNL     1       7.670   7.518  17.802  0.00  0.00    +0.000 C 
ATOM      3  O   UNL     1       8.026   6.710  18.652  0.00  0.00    +0.000 OA
ATOM      4  H   UNL     1       6.826   7.944  15.960  0.00  0.00    +0.000 HD
ENDROOT
BRANCH   1  10
ATOM      5  C   UNL     1       5.158   5.497  17.005  0.00  0.00    +0.000 A 
ATOM      6  C   UNL     1       4.629   4.243  16.621  0.00  0.00    +0.000 A 
ATOM      7  C   UNL     1       5.247   3.455  15.654  0.00  0.00    +0.000 A 
ATOM      8  C   UNL     1       6.418   3.894  15.065  0.00  0.00    +0.000 A 
ATOM      9  C   UNL     1       6.959   5.126  15.436  0.00  0.00    +0.000 A 
ATOM     10  C   UNL     1       6.338   5.963  16.381  0.00  0.00    +0.000 A 
BRANCH   5  11
ATOM     11  C   UNL     1       4.346   6.219  18.031  0.00  0.00    +0.000 C 
ATOM     12  O   UNL     1       3.712   7.234  17.773  0.00  0.00    +0.000 OA
BRANCH  11  14
ATOM     13  C   UNL     1       3.099   5.316  19.772  0.00  0.00    +0.000 C 
ATOM     14  O   UNL     1       4.399   5.641  19.259  0.00  0.00    +0.000 OA
ENDBRANCH  11  14
ENDBRANCH   5  11
ENDBRANCH   1  10
BRANCH   2  15
ATOM     15  C   UNL     1       8.133   8.931  17.891  0.00  0.00    +0.000 C 
ATOM     16  C   UNL     1       8.914   9.242  18.941  0.00  0.00    +0.000 C 
BRANCH  16  17
ATOM     17  C   UNL     1       9.557  10.527  19.225  0.00  0.00    +0.000 A 
ATOM     18  C   UNL     1       9.877  11.364  18.147  0.00  0.00    +0.000 A 
ATOM     19  C   UNL     1      10.339  12.665  18.363  0.00  0.00    +0.000 A 
ATOM     20  C   UNL     1      10.481  13.157  19.666  0.00  0.00    +0.000 A 
ATOM     21  C   UNL     1      10.189  12.309  20.746  0.00  0.00    +0.000 A 
ATOM     22  C   UNL     1       9.729  11.007  20.527  0.00  0.00    +0.000 A 
BRANCH  20  23
ATOM     23  C   UNL     1      10.901  14.583  19.920  0.00  0.00    +0.000 C 
ATOM     24  F   UNL     1      10.248  15.492  19.142  0.00  0.00    +0.000 F 
ATOM     25  F   UNL     1      10.674  14.966  21.208  0.00  0.00    +0.000 F 
ATOM     26  F   UNL     1      12.228  14.785  19.698  0.00  0.00    +0.000 F 
ENDBRANCH  20  23
ENDBRANCH  16  17
ENDBRANCH   2  15
TORSDOF 6
ENDMDL
MODEL 4
REMARK VINA RESULT:      -7.8      2.122      3.313
REMARK  Name = 
REMARK  7 active torsions:
REMARK  status: ('A' for Active; 'I' for Inactive)
REMARK    1  A    between atoms: C_1  and  O_2
REMARK    2  A    between atoms: O_2  and  C_3
REMARK    3  A    between atoms: C_3  and  C_5
REMARK    4  A    between atoms: C_10  and  N_11
REMARK    5  A    between atoms: C_12  and  C_14
REMARK    6  A    between atoms: C_15  and  C_16
REMARK    7  A    between atoms: C_19  and  C_20
REMARK                            x       y       z     vdW  Elec       q    Type
REMARK                         _______ _______ _______ _____ _____    ______ ____
ROOT
ATOM      1  N   UNL     1       5.686   6.066  18.201  0.00  0.00    +0.000 N 
ATOM      2  C   UNL     1       6.446   6.656  17.208  0.00  0.00    +0.000 C 
ATOM      3  O   UNL     1       6.224   6.604  16.003  0.00  0.00    +0.000 OA
ATOM      4  H   UNL     1       5.857   6.331  19.167  0.00  0.00    +0.000 HD
ENDROOT
BRANCH   1  10
ATOM      5  C   UNL     1       3.227   5.713  18.173  0.00  0.00    +0.000 A 
ATOM      6  C   UNL     1       2.140   4.856  17.886  0.00  0.00    +0.000 A 
ATOM      7  C   UNL     1       2.336   3.557  17.424  0.00  0.00    +0.000 A 
ATOM      8  C   UNL     1       3.623   3.081  17.259  0.00  0.00    +0.000 A 
ATOM      9  C   UNL     1       4.709   3.909  17.545  0.00  0.00    +0.000 A 
ATOM     10  C   UNL     1       4.544   5.239  17.974  0.00  0.00    +0.000 A 
BRANCH   5  11
ATOM     11  C   UNL     1       2.829   7.080  18.625  0.00  0.00    +0.000 C 
ATOM     12  O   UNL     1       2.363   7.296  19.736  0.00  0.00    +0.000 OA
BRANCH  11  14
ATOM     13  C   UNL     1       2.134   9.148  17.824  0.00  0.00    +0.000 C 
ATOM     14  O   UNL     1       3.027   8.035  17.679  0.00  0.00    +0.000 OA
ENDBRANCH  11  14
ENDBRANCH   5  11
ENDBRANCH   1  10
BRANCH   2  15
ATOM     15  C   UNL     1       7.589   7.469  17.711  0.00  0.00    +0.000 C 
ATOM     16  C   UNL     1       7.451   8.805  17.643  0.00  0.00    +0.000 C 
BRANCH  16  17
ATOM     17  C   UNL     1       8.384   9.825  18.130  0.00  0.00    +0.000 A 
ATOM     18  C   UNL     1       8.377  11.082  17.509  0.00  0.00    +0.000 A 
ATOM     19  C   UNL     1       9.123  12.142  18.031  0.00  0.00    +0.000 A 
ATOM     20  C   UNL     1       9.884  11.965  19.194  0.00  0.00    +0.000 A 
ATOM     21  C   UNL     1       9.913  10.699  19.798  0.00  0.00    +0.000 A 
ATOM     22  C   UNL     1       9.168   9.639  19.272  0.00  0.00    +0.000 A 
BRANCH  20  23
ATOM     23  C   UNL     1      10.632  13.116  19.819  0.00  0.00    +0.000 C 
ATOM     24  F   UNL     1      10.164  14.340  19.445  0.00  0.00    +0.000 F 
ATOM     25  F   UNL     1      10.567  13.094  21.180  0.00  0.00    +0.000 F 
ATOM     26  F   UNL     1      11.957  13.110  19.507  0.00  0.00    +0.000 F 
ENDBRANCH  20  23
ENDBRANCH  16  17
ENDBRANCH   2  15
TORSDOF 6
ENDMDL
MODEL 5
REMARK VINA RESULT:      -7.8      6.799      8.691
REMARK  Name = 
REMARK  7 active torsions:
REMARK  status: ('A' for Active; 'I' for Inactive)
REMARK    1  A    between atoms: C_1  and  O_2
REMARK    2  A    between atoms: O_2  and  C_3
REMARK    3  A    between atoms: C_3  and  C_5
REMARK    4  A    between atoms: C_10  and  N_11
REMARK    5  A    between atoms: C_12  and  C_14
REMARK    6  A    between atoms: C_15  and  C_16
REMARK    7  A    between atoms: C_19  and  C_20
REMARK                            x       y       z     vdW  Elec       q    Type
REMARK                         _______ _______ _______ _____ _____    ______ ____
ROOT
ATOM      1  N   UNL     1       2.710   6.369  18.655  0.00  0.00    +0.000 N 
ATOM      2  C   UNL     1       2.446   5.968  19.952  0.00  0.00    +0.000 C 
ATOM      3  O   UNL     1       3.053   5.104  20.576  0.00  0.00    +0.000 OA
ATOM      4  H   UNL     1       2.269   7.216  18.309  0.00  0.00    +0.000 HD
ENDROOT
BRANCH   1  10
ATOM      5  C   UNL     1       3.535   4.510  17.229  0.00  0.00    +0.000 A 
ATOM      6  C   UNL     1       4.534   4.015  16.359  0.00  0.00    +0.000 A 
ATOM      7  C   UNL     1       5.679   4.753  16.068  0.00  0.00    +0.000 A 
ATOM      8  C   UNL     1       5.858   5.991  16.656  0.00  0.00    +0.000 A 
ATOM      9  C   UNL     1       4.886   6.493  17.522  0.00  0.00    +0.000 A 
ATOM     10  C   UNL     1       3.700   5.790  17.805  0.00  0.00    +0.000 A 
BRANCH   5  11
ATOM     11  C   UNL     1       2.362   3.600  17.399  0.00  0.00    +0.000 C 
ATOM     12  O   UNL     1       1.207   4.004  17.384  0.00  0.00    +0.000 OA
BRANCH  11  14
ATOM     13  C   UNL     1       2.909   1.971  18.963  0.00  0.00    +0.000 C 
ATOM     14  O   UNL     1       2.716   2.301  17.581  0.00  0.00    +0.000 OA
ENDBRANCH  11  14
ENDBRANCH   5  11
ENDBRANCH   1  10
BRANCH   2  15
ATOM     15  C   UNL     1       1.359   6.733  20.623  0.00  0.00    +0.000 C 
ATOM     16  C   UNL     1       1.465   8.073  20.600  0.00  0.00    +0.000 C 
BRANCH  16  17
ATOM     17  C   UNL     1       0.507   9.054  21.117  0.00  0.00    +0.000 A 
ATOM     18  C   UNL     1       0.205   9.030  22.486  0.00  0.00    +0.000 A 
ATOM     19  C   UNL     1      -0.570  10.037  23.065  0.00  0.00    +0.000 A 
ATOM     20  C   UNL     1      -1.051  11.096  22.285  0.00  0.00    +0.000 A 
ATOM     21  C   UNL     1      -0.773  11.105  20.909  0.00  0.00    +0.000 A 
ATOM     22  C   UNL     1       0.001  10.094  20.332  0.00  0.00    +0.000 A 
BRANCH  20  23
ATOM     23  C   UNL     1      -1.821  12.235  22.905  0.00  0.00    +0.000 C 
ATOM     24  F   UNL     1      -2.484  13.006  21.998  0.00  0.00    +0.000 F 
ATOM     25  F   UNL     1      -2.768  11.799  23.783  0.00  0.00    +0.000 F 
ATOM     26  F   UNL     1      -1.023  13.085  23.608  0.00  0.00    +0.000 F 
ENDBRANCH  20  23
ENDBRANCH  16  17
ENDBRANCH   2  15
TORSDOF 6
ENDMDL
MODEL 6
REMARK VINA RESULT:      -7.7      2.021      3.406
REMARK  Name = 
REMARK  7 active torsions:
REMARK  status: ('A' for Active; 'I' for Inactive)
REMARK    1  A    between atoms: C_1  and  O_2
REMARK    2  A    between atoms: O_2  and  C_3
REMARK    3  A    between atoms: C_3  and  C_5
REMARK    4  A    between atoms: C_10  and  N_11
REMARK    5  A    between atoms: C_12  and  C_14
REMARK    6  A    between atoms: C_15  and  C_16
REMARK    7  A    between atoms: C_19  and  C_20
REMARK                            x       y       z     vdW  Elec       q    Type
REMARK                         _______ _______ _______ _____ _____    ______ ____
ROOT
ATOM      1  N   UNL     1       5.914   6.334  18.211  0.00  0.00    +0.000 N 
ATOM      2  C   UNL     1       7.006   6.571  17.397  0.00  0.00    +0.000 C 
ATOM      3  O   UNL     1       7.205   6.071  16.295  0.00  0.00    +0.000 OA
ATOM      4  H   UNL     1       5.763   6.942  19.012  0.00  0.00    +0.000 HD
ENDROOT
BRANCH   1  10
ATOM      5  C   UNL     1       3.502   5.745  18.117  0.00  0.00    +0.000 A 
ATOM      6  C   UNL     1       2.509   4.801  17.768  0.00  0.00    +0.000 A 
ATOM      7  C   UNL     1       2.839   3.552  17.249  0.00  0.00    +0.000 A 
ATOM      8  C   UNL     1       4.170   3.212  17.088  0.00  0.00    +0.000 A 
ATOM      9  C   UNL     1       5.164   4.128  17.434  0.00  0.00    +0.000 A 
ATOM     10  C   UNL     1       4.863   5.412  17.923  0.00  0.00    +0.000 A 
BRANCH   5  11
ATOM     11  C   UNL     1       2.965   7.043  18.625  0.00  0.00    +0.000 C 
ATOM     12  O   UNL     1       2.401   7.144  19.708  0.00  0.00    +0.000 OA
BRANCH  11  14
ATOM     13  C   UNL     1       2.096   9.040  17.815  0.00  0.00    +0.000 C 
ATOM     14  O   UNL     1       3.155   8.075  17.763  0.00  0.00    +0.000 OA
ENDBRANCH  11  14
ENDBRANCH   5  11
ENDBRANCH   1  10
BRANCH   2  15
ATOM     15  C   UNL     1       7.963   7.580  17.930  0.00  0.00    +0.000 C 
ATOM     16  C   UNL     1       7.667   8.870  17.696  0.00  0.00    +0.000 C 
BRANCH  16  17
ATOM     17  C   UNL     1       8.393  10.053  18.166  0.00  0.00    +0.000 A 
ATOM     18  C   UNL     1       9.330   9.891  19.196  0.00  0.00    +0.000 A 
ATOM     19  C   UNL     1      10.168  10.944  19.574  0.00  0.00    +0.000 A 
ATOM     20  C   UNL     1      10.089  12.179  18.918  0.00  0.00    +0.000 A 
ATOM     21  C   UNL     1       9.132  12.349  17.906  0.00  0.00    +0.000 A 
ATOM     22  C   UNL     1       8.293  11.295  17.533  0.00  0.00    +0.000 A 
BRANCH  20  23
ATOM     23  C   UNL     1      11.038  13.302  19.254  0.00  0.00    +0.000 C 
ATOM     24  F   UNL     1      11.978  12.966  20.182  0.00  0.00    +0.000 F 
ATOM     25  F   UNL     1      11.732  13.734  18.163  0.00  0.00    +0.000 F 
ATOM     26  F   UNL     1      10.399  14.397  19.748  0.00  0.00    +0.000 F 
ENDBRANCH  20  23
ENDBRANCH  16  17
ENDBRANCH   2  15
TORSDOF 6
ENDMDL
MODEL 7
REMARK VINA RESULT:      -7.6      7.653      9.416
REMARK  Name = 
REMARK  7 active torsions:
REMARK  status: ('A' for Active; 'I' for Inactive)
REMARK    1  A    between atoms: C_1  and  O_2
REMARK    2  A    between atoms: O_2  and  C_3
REMARK    3  A    between atoms: C_3  and  C_5
REMARK    4  A    between atoms: C_10  and  N_11
REMARK    5  A    between atoms: C_12  and  C_14
REMARK    6  A    between atoms: C_15  and  C_16
REMARK    7  A    between atoms: C_19  and  C_20
REMARK                            x       y       z     vdW  Elec       q    Type
REMARK                         _______ _______ _______ _____ _____    ______ ____
ROOT
ATOM      1  N   UNL     1       2.693   6.326  19.952  0.00  0.00    +0.000 N 
ATOM      2  C   UNL     1       2.151   7.536  19.558  0.00  0.00    +0.000 C 
ATOM      3  O   UNL     1       2.146   7.986  18.417  0.00  0.00    +0.000 OA
ATOM      4  H   UNL     1       2.473   5.975  20.880  0.00  0.00    +0.000 HD
ENDROOT
BRANCH   1  10
ATOM      5  C   UNL     1       2.817   4.224  18.635  0.00  0.00    +0.000 A 
ATOM      6  C   UNL     1       3.553   3.401  17.752  0.00  0.00    +0.000 A 
ATOM      7  C   UNL     1       4.837   3.743  17.334  0.00  0.00    +0.000 A 
ATOM      8  C   UNL     1       5.419   4.904  17.809  0.00  0.00    +0.000 A 
ATOM      9  C   UNL     1       4.710   5.725  18.687  0.00  0.00    +0.000 A 
ATOM     10  C   UNL     1       3.397   5.428  19.095  0.00  0.00    +0.000 A 
BRANCH   5  11
ATOM     11  C   UNL     1       1.445   3.718  18.947  0.00  0.00    +0.000 C 
ATOM     12  O   UNL     1       0.771   3.099  18.134  0.00  0.00    +0.000 OA
BRANCH  11  14
ATOM     13  C   UNL     1       1.395   3.025  21.165  0.00  0.00    +0.000 C 
ATOM     14  O   UNL     1       1.035   4.028  20.204  0.00  0.00    +0.000 OA
ENDBRANCH  11  14
ENDBRANCH   5  11
ENDBRANCH   1  10
BRANCH   2  15
ATOM     15  C   UNL     1       1.467   8.288  20.648  0.00  0.00    +0.000 C 
ATOM     16  C   UNL     1       0.804   9.400  20.285  0.00  0.00    +0.000 C 
BRANCH  16  17
ATOM     17  C   UNL     1      -0.004  10.275  21.138  0.00  0.00    +0.000 A 
ATOM     18  C   UNL     1      -0.639  11.377  20.548  0.00  0.00    +0.000 A 
ATOM     19  C   UNL     1      -1.550  12.150  21.271  0.00  0.00    +0.000 A 
ATOM     20  C   UNL     1      -1.851  11.828  22.601  0.00  0.00    +0.000 A 
ATOM     21  C   UNL     1      -1.194  10.743  23.200  0.00  0.00    +0.000 A 
ATOM     22  C   UNL     1      -0.281   9.972  22.475  0.00  0.00    +0.000 A 
BRANCH  20  23
ATOM     23  C   UNL     1      -2.892  12.600  23.373  0.00  0.00    +0.000 C 
ATOM     24  F   UNL     1      -3.612  11.833  24.239  0.00  0.00    +0.000 F 
ATOM     25  F   UNL     1      -2.341  13.592  24.128  0.00  0.00    +0.000 F 
ATOM     26  F   UNL     1      -3.802  13.207  22.563  0.00  0.00    +0.000 F 
ENDBRANCH  20  23
ENDBRANCH  16  17
ENDBRANCH   2  15
TORSDOF 6
ENDMDL
MODEL 8
REMARK VINA RESULT:      -7.6      2.133      3.512
REMARK  Name = 
REMARK  7 active torsions:
REMARK  status: ('A' for Active; 'I' for Inactive)
REMARK    1  A    between atoms: C_1  and  O_2
REMARK    2  A    between atoms: O_2  and  C_3
REMARK    3  A    between atoms: C_3  and  C_5
REMARK    4  A    between atoms: C_10  and  N_11
REMARK    5  A    between atoms: C_12  and  C_14
REMARK    6  A    between atoms: C_15  and  C_16
REMARK    7  A    between atoms: C_19  and  C_20
REMARK                            x       y       z     vdW  Elec       q    Type
REMARK                         _______ _______ _______ _____ _____    ______ ____
ROOT
ATOM      1  N   UNL     1       5.735   6.098  18.216  0.00  0.00    +0.000 N 
ATOM      2  C   UNL     1       6.523   6.653  17.224  0.00  0.00    +0.000 C 
ATOM      3  O   UNL     1       6.347   6.540  16.016  0.00  0.00    +0.000 OA
ATOM      4  H   UNL     1       5.866   6.412  19.173  0.00  0.00    +0.000 HD
ENDROOT
BRANCH   1  10
ATOM      5  C   UNL     1       3.285   5.700  18.121  0.00  0.00    +0.000 A 
ATOM      6  C   UNL     1       2.222   4.812  17.835  0.00  0.00    +0.000 A 
ATOM      7  C   UNL     1       2.456   3.498  17.438  0.00  0.00    +0.000 A 
ATOM      8  C   UNL     1       3.755   3.038  17.338  0.00  0.00    +0.000 A 
ATOM      9  C   UNL     1       4.817   3.898  17.623  0.00  0.00    +0.000 A 
ATOM     10  C   UNL     1       4.616   5.242  17.987  0.00  0.00    +0.000 A 
BRANCH   5  11
ATOM     11  C   UNL     1       2.850   7.079  18.499  0.00  0.00    +0.000 C 
ATOM     12  O   UNL     1       3.118   8.063  17.822  0.00  0.00    +0.000 OA
BRANCH  11  14
ATOM     13  C   UNL     1       1.629   8.423  19.949  0.00  0.00    +0.000 C 
ATOM     14  O   UNL     1       2.148   7.117  19.661  0.00  0.00    +0.000 OA
ENDBRANCH  11  14
ENDBRANCH   5  11
ENDBRANCH   1  10
BRANCH   2  15
ATOM     15  C   UNL     1       7.634   7.509  17.729  0.00  0.00    +0.000 C 
ATOM     16  C   UNL     1       7.461   8.838  17.625  0.00  0.00    +0.000 C 
BRANCH  16  17
ATOM     17  C   UNL     1       8.357   9.895  18.104  0.00  0.00    +0.000 A 
ATOM     18  C   UNL     1       8.300  11.148  17.479  0.00  0.00    +0.000 A 
ATOM     19  C   UNL     1       9.007  12.237  17.994  0.00  0.00    +0.000 A 
ATOM     20  C   UNL     1       9.780  12.094  19.154  0.00  0.00    +0.000 A 
ATOM     21  C   UNL     1       9.860  10.832  19.763  0.00  0.00    +0.000 A 
ATOM     22  C   UNL     1       9.153   9.743  19.244  0.00  0.00    +0.000 A 
BRANCH  20  23
ATOM     23  C   UNL     1      10.486  13.275  19.772  0.00  0.00    +0.000 C 
ATOM     24  F   UNL     1      10.652  13.169  21.120  0.00  0.00    +0.000 F 
ATOM     25  F   UNL     1      11.734  13.455  19.257  0.00  0.00    +0.000 F 
ATOM     26  F   UNL     1       9.823  14.446  19.567  0.00  0.00    +0.000 F 
ENDBRANCH  20  23
ENDBRANCH  16  17
ENDBRANCH   2  15
TORSDOF 6
ENDMDL
MODEL 9
REMARK VINA RESULT:      -7.6      6.919      8.702
REMARK  Name = 
REMARK  7 active torsions:
REMARK  status: ('A' for Active; 'I' for Inactive)
REMARK    1  A    between atoms: C_1  and  O_2
REMARK    2  A    between atoms: O_2  and  C_3
REMARK    3  A    between atoms: C_3  and  C_5
REMARK    4  A    between atoms: C_10  and  N_11
REMARK    5  A    between atoms: C_12  and  C_14
REMARK    6  A    between atoms: C_15  and  C_16
REMARK    7  A    between atoms: C_19  and  C_20
REMARK                            x       y       z     vdW  Elec       q    Type
REMARK                         _______ _______ _______ _____ _____    ______ ____
ROOT
ATOM      1  N   UNL     1       2.845   6.372  18.867  0.00  0.00    +0.000 N 
ATOM      2  C   UNL     1       2.447   5.894  20.102  0.00  0.00    +0.000 C 
ATOM      3  O   UNL     1       2.862   4.879  20.651  0.00  0.00    +0.000 OA
ATOM      4  H   UNL     1       2.574   7.314  18.600  0.00  0.00    +0.000 HD
ENDROOT
BRANCH   1  10
ATOM      5  C   UNL     1       3.436   4.521  17.320  0.00  0.00    +0.000 A 
ATOM      6  C   UNL     1       4.380   3.949  16.436  0.00  0.00    +0.000 A 
ATOM      7  C   UNL     1       5.628   4.529  16.225  0.00  0.00    +0.000 A 
ATOM      8  C   UNL     1       5.967   5.681  16.910  0.00  0.00    +0.000 A 
ATOM      9  C   UNL     1       5.051   6.256  17.792  0.00  0.00    +0.000 A 
ATOM     10  C   UNL     1       3.767   5.717  17.996  0.00  0.00    +0.000 A 
BRANCH   5  11
ATOM     11  C   UNL     1       2.138   3.783  17.395  0.00  0.00    +0.000 C 
ATOM     12  O   UNL     1       1.056   4.354  17.408  0.00  0.00    +0.000 OA
BRANCH  11  14
ATOM     13  C   UNL     1       2.370   1.954  18.809  0.00  0.00    +0.000 C 
ATOM     14  O   UNL     1       2.293   2.435  17.460  0.00  0.00    +0.000 OA
ENDBRANCH  11  14
ENDBRANCH   5  11
ENDBRANCH   1  10
BRANCH   2  15
ATOM     15  C   UNL     1       1.470   6.767  20.813  0.00  0.00    +0.000 C 
ATOM     16  C   UNL     1       1.703   8.090  20.766  0.00  0.00    +0.000 C 
BRANCH  16  17
ATOM     17  C   UNL     1       0.869   9.163  21.314  0.00  0.00    +0.000 A 
ATOM     18  C   UNL     1       0.423  10.168  20.444  0.00  0.00    +0.000 A 
ATOM     19  C   UNL     1      -0.504  11.123  20.870  0.00  0.00    +0.000 A 
ATOM     20  C   UNL     1      -1.011  11.083  22.175  0.00  0.00    +0.000 A 
ATOM     21  C   UNL     1      -0.543  10.095  23.054  0.00  0.00    +0.000 A 
ATOM     22  C   UNL     1       0.387   9.142  22.626  0.00  0.00    +0.000 A 
BRANCH  20  23
ATOM     23  C   UNL     1      -2.072  12.054  22.629  0.00  0.00    +0.000 C 
ATOM     24  F   UNL     1      -1.577  13.259  23.029  0.00  0.00    +0.000 F 
ATOM     25  F   UNL     1      -2.972  12.332  21.643  0.00  0.00    +0.000 F 
ATOM     26  F   UNL     1      -2.800  11.581  23.677  0.00  0.00    +0.000 F 
ENDBRANCH  20  23
ENDBRANCH  16  17
ENDBRANCH   2  15
TORSDOF 6
ENDMDL
