MODEL 1
REMARK VINA RESULT:      -8.2      0.000      0.000
REMARK  Name = 
REMARK  8 active torsions:
REMARK  status: ('A' for Active; 'I' for Inactive)
REMARK    1  A    between atoms: C_1  and  C_2
REMARK    2  A    between atoms: C_11  and  O_12
REMARK    3  A    between atoms: O_12  and  C_13
REMARK    4  A    between atoms: C_13  and  C_15
REMARK    5  A    between atoms: C_18  and  C_19
REMARK    6  A    between atoms: C_25  and  C_26
REMARK    7  A    between atoms: C_29  and  C_30
REMARK    8  A    between atoms: C_32  and  N_33
REMARK                            x       y       z     vdW  Elec       q    Type
REMARK                         _______ _______ _______ _____ _____    ______ ____
ROOT
ATOM      1  C   UNL     1      -2.857  14.559  21.197  0.00  0.00    +0.000 C 
ATOM      2  C   UNL     1      -3.713  13.278  21.324  0.00  0.00    +0.000 C 
ATOM      3  C   UNL     1      -3.250  12.397  22.496  0.00  0.00    +0.000 C 
ATOM      4  C   UNL     1      -1.835  11.841  22.268  0.00  0.00    +0.000 C 
ATOM      5  C   UNL     1      -1.644  11.118  20.909  0.00  0.00    +0.000 C 
ATOM      6  C   UNL     1      -2.224  11.930  19.708  0.00  0.00    +0.000 C 
ATOM      7  C   UNL     1      -2.197  11.076  18.431  0.00  0.00    +0.000 C 
ATOM      8  C   UNL     1      -0.945  10.267  18.269  0.00  0.00    +0.000 C 
ATOM      9  C   UNL     1      -0.025  10.056  19.229  0.00  0.00    +0.000 C 
ATOM     10  C   UNL     1       1.208   9.219  18.941  0.00  0.00    +0.000 C 
ATOM     11  C   UNL     1       1.428   8.113  19.983  0.00  0.00    +0.000 C 
ATOM     12  C   UNL     1       1.458   8.730  21.386  0.00  0.00    +0.000 C 
ATOM     13  C   UNL     1       0.168   9.504  21.678  0.00  0.00    +0.000 C 
ATOM     14  C   UNL     1      -0.164  10.625  20.647  0.00  0.00    +0.000 C 
ATOM     15  C   UNL     1       0.850  11.782  20.798  0.00  0.00    +0.000 C 
ATOM     16  C   UNL     1      -3.655  12.363  20.068  0.00  0.00    +0.000 C 
ATOM     17  C   UNL     1      -4.557  13.056  19.047  0.00  0.00    +0.000 C 
ATOM     18  C   UNL     1      -5.624  13.555  19.986  0.00  0.00    +0.000 C 
ATOM     19  C   UNL     1      -5.189  13.652  21.262  0.00  0.00    +0.000 C 
ENDROOT
BRANCH  19  20
ATOM     20  N   UNL     1      -5.960  13.971  22.386  0.00  0.00    +0.000 N 
ATOM     21  C   UNL     1      -6.767  13.098  23.105  0.00  0.00    +0.000 A 
ATOM     22  C   UNL     1      -7.347  13.792  24.135  0.00  0.00    +0.000 A 
ATOM     23  C   UNL     1      -6.890  15.100  23.964  0.00  0.00    +0.000 A 
ATOM     24  N   UNL     1      -6.023  15.208  22.961  0.00  0.00    +0.000 NA
ENDBRANCH  19  20
BRANCH  18  25
ATOM     25  C   UNL     1      -6.974  13.899  19.497  0.00  0.00    +0.000 C 
ATOM     26  O   UNL     1      -7.879  13.076  19.464  0.00  0.00    +0.000 OA
ENDBRANCH  18  25
BRANCH  11  27
ATOM     27  O   UNL     1       2.691   7.440  19.748  0.00  0.00    +0.000 OA
BRANCH  27  28
ATOM     28  C   UNL     1       2.619   6.162  19.285  0.00  0.00    +0.000 C 
ATOM     29  O   UNL     1       1.908   5.279  19.739  0.00  0.00    +0.000 OA
BRANCH  28  30
ATOM     30  C   UNL     1       3.539   5.939  18.124  0.00  0.00    +0.000 A 
ATOM     31  C   UNL     1       3.835   4.622  17.725  0.00  0.00    +0.000 A 
ATOM     32  C   UNL     1       4.732   4.373  16.674  0.00  0.00    +0.000 A 
ATOM     33  C   UNL     1       5.332   5.437  15.989  0.00  0.00    +0.000 A 
ATOM     34  C   UNL     1       5.012   6.750  16.362  0.00  0.00    +0.000 A 
ATOM     35  C   UNL     1       4.126   7.000  17.424  0.00  0.00    +0.000 A 
BRANCH  33  36
ATOM     36  C   UNL     1       6.272   5.189  14.923  0.00  0.00    +0.000 C 
ATOM     37  N   UNL     1       7.026   4.985  14.060  0.00  0.00    +0.000 NA
ENDBRANCH  33  36
ENDBRANCH  28  30
ENDBRANCH  27  28
ENDBRANCH  11  27
TORSDOF 6
ENDMDL
MODEL 2
REMARK VINA RESULT:      -8.1      0.406      1.035
REMARK  Name = 
REMARK  8 active torsions:
REMARK  status: ('A' for Active; 'I' for Inactive)
REMARK    1  A    between atoms: C_1  and  C_2
REMARK    2  A    between atoms: C_11  and  O_12
REMARK    3  A    between atoms: O_12  and  C_13
REMARK    4  A    between atoms: C_13  and  C_15
REMARK    5  A    between atoms: C_18  and  C_19
REMARK    6  A    between atoms: C_25  and  C_26
REMARK    7  A    between atoms: C_29  and  C_30
REMARK    8  A    between atoms: C_32  and  N_33
REMARK                            x       y       z     vdW  Elec       q    Type
REMARK                         _______ _______ _______ _____ _____    ______ ____
ROOT
ATOM      1  C   UNL     1      -2.981  14.601  20.841  0.00  0.00    +0.000 C 
ATOM      2  C   UNL     1      -3.790  13.309  21.097  0.00  0.00    +0.000 C 
ATOM      3  C   UNL     1      -3.238  12.520  22.297  0.00  0.00    +0.000 C 
ATOM      4  C   UNL     1      -1.821  11.989  22.029  0.00  0.00    +0.000 C 
ATOM      5  C   UNL     1      -1.680  11.183  20.710  0.00  0.00    +0.000 C 
ATOM      6  C   UNL     1      -2.347  11.898  19.493  0.00  0.00    +0.000 C 
ATOM      7  C   UNL     1      -2.360  10.962  18.275  0.00  0.00    +0.000 C 
ATOM      8  C   UNL     1      -1.094  10.178  18.097  0.00  0.00    +0.000 C 
ATOM      9  C   UNL     1      -0.119  10.057  19.017  0.00  0.00    +0.000 C 
ATOM     10  C   UNL     1       1.123   9.236  18.717  0.00  0.00    +0.000 C 
ATOM     11  C   UNL     1       1.430   8.209  19.815  0.00  0.00    +0.000 C 
ATOM     12  C   UNL     1       1.516   8.918  21.172  0.00  0.00    +0.000 C 
ATOM     13  C   UNL     1       0.219   9.674  21.483  0.00  0.00    +0.000 C 
ATOM     14  C   UNL     1      -0.201  10.715  20.401  0.00  0.00    +0.000 C 
ATOM     15  C   UNL     1       0.784  11.907  20.421  0.00  0.00    +0.000 C 
ATOM     16  C   UNL     1      -3.770  12.314  19.901  0.00  0.00    +0.000 C 
ATOM     17  C   UNL     1      -4.745  12.913  18.889  0.00  0.00    +0.000 C 
ATOM     18  C   UNL     1      -5.776  13.444  19.850  0.00  0.00    +0.000 C 
ATOM     19  C   UNL     1      -5.278  13.637  21.092  0.00  0.00    +0.000 C 
ENDROOT
BRANCH  19  20
ATOM     20  N   UNL     1      -5.998  14.008  22.233  0.00  0.00    +0.000 N 
ATOM     21  C   UNL     1      -6.087  15.286  22.771  0.00  0.00    +0.000 A 
ATOM     22  C   UNL     1      -6.889  15.234  23.881  0.00  0.00    +0.000 A 
ATOM     23  C   UNL     1      -7.224  13.884  23.997  0.00  0.00    +0.000 A 
ATOM     24  N   UNL     1      -6.745  13.155  22.994  0.00  0.00    +0.000 NA
ENDBRANCH  19  20
BRANCH  18  25
ATOM     25  C   UNL     1      -7.160  13.718  19.414  0.00  0.00    +0.000 C 
ATOM     26  O   UNL     1      -7.753  12.976  18.642  0.00  0.00    +0.000 OA
ENDBRANCH  18  25
BRANCH  11  27
ATOM     27  O   UNL     1       2.700   7.557  19.556  0.00  0.00    +0.000 OA
BRANCH  27  28
ATOM     28  C   UNL     1       2.644   6.244  19.195  0.00  0.00    +0.000 C 
ATOM     29  O   UNL     1       1.911   5.403  19.688  0.00  0.00    +0.000 OA
BRANCH  28  30
ATOM     30  C   UNL     1       3.615   5.927  18.099  0.00  0.00    +0.000 A 
ATOM     31  C   UNL     1       4.214   6.983  17.385  0.00  0.00    +0.000 A 
ATOM     32  C   UNL     1       5.088   6.724  16.319  0.00  0.00    +0.000 A 
ATOM     33  C   UNL     1       5.398   5.405  15.961  0.00  0.00    +0.000 A 
ATOM     34  C   UNL     1       4.830   4.353  16.694  0.00  0.00    +0.000 A 
ATOM     35  C   UNL     1       3.942   4.611  17.752  0.00  0.00    +0.000 A 
BRANCH  33  36
ATOM     36  C   UNL     1       6.279   5.131  14.852  0.00  0.00    +0.000 C 
ATOM     37  N   UNL     1       6.989   4.916  13.955  0.00  0.00    +0.000 NA
ENDBRANCH  33  36
ENDBRANCH  28  30
ENDBRANCH  27  28
ENDBRANCH  11  27
TORSDOF 6
ENDMDL
MODEL 3
REMARK VINA RESULT:      -7.9      4.081      5.573
REMARK  Name = 
REMARK  8 active torsions:
REMARK  status: ('A' for Active; 'I' for Inactive)
REMARK    1  A    between atoms: C_1  and  C_2
REMARK    2  A    between atoms: C_11  and  O_12
REMARK    3  A    between atoms: O_12  and  C_13
REMARK    4  A    between atoms: C_13  and  C_15
REMARK    5  A    between atoms: C_18  and  C_19
REMARK    6  A    between atoms: C_25  and  C_26
REMARK    7  A    between atoms: C_29  and  C_30
REMARK    8  A    between atoms: C_32  and  N_33
REMARK                            x       y       z     vdW  Elec       q    Type
REMARK                         _______ _______ _______ _____ _____    ______ ____
ROOT
ATOM      1  C   UNL     1      -0.517  12.627  18.490  0.00  0.00    +0.000 C 
ATOM      2  C   UNL     1       0.826  12.806  19.235  0.00  0.00    +0.000 C 
ATOM      3  C   UNL     1       2.027  12.495  18.327  0.00  0.00    +0.000 C 
ATOM      4  C   UNL     1       2.061  11.015  17.911  0.00  0.00    +0.000 C 
ATOM      5  C   UNL     1       1.976  10.016  19.096  0.00  0.00    +0.000 C 
ATOM      6  C   UNL     1       0.846  10.381  20.110  0.00  0.00    +0.000 C 
ATOM      7  C   UNL     1       0.949   9.488  21.356  0.00  0.00    +0.000 C 
ATOM      8  C   UNL     1       1.267   8.055  21.052  0.00  0.00    +0.000 C 
ATOM      9  C   UNL     1       1.693   7.588  19.864  0.00  0.00    +0.000 C 
ATOM     10  C   UNL     1       1.978   6.108  19.677  0.00  0.00    +0.000 C 
ATOM     11  C   UNL     1       3.363   5.846  19.071  0.00  0.00    +0.000 C 
ATOM     12  C   UNL     1       3.508   6.635  17.764  0.00  0.00    +0.000 C 
ATOM     13  C   UNL     1       3.292   8.134  17.997  0.00  0.00    +0.000 C 
ATOM     14  C   UNL     1       1.925   8.500  18.652  0.00  0.00    +0.000 C 
ATOM     15  C   UNL     1       0.783   8.246  17.640  0.00  0.00    +0.000 C 
ATOM     16  C   UNL     1       0.984  11.870  20.468  0.00  0.00    +0.000 C 
ATOM     17  C   UNL     1       0.116  12.511  21.549  0.00  0.00    +0.000 C 
ATOM     18  C   UNL     1       0.391  13.959  21.235  0.00  0.00    +0.000 C 
ATOM     19  C   UNL     1       0.821  14.142  19.967  0.00  0.00    +0.000 C 
ENDROOT
BRANCH  19  20
ATOM     20  N   UNL     1       1.270  15.342  19.402  0.00  0.00    +0.000 N 
ATOM     21  C   UNL     1       2.576  15.814  19.403  0.00  0.00    +0.000 A 
ATOM     22  C   UNL     1       2.603  17.016  18.744  0.00  0.00    +0.000 A 
ATOM     23  C   UNL     1       1.270  17.247  18.403  0.00  0.00    +0.000 A 
ATOM     24  N   UNL     1       0.476  16.235  18.741  0.00  0.00    +0.000 NA
ENDBRANCH  19  20
BRANCH  18  25
ATOM     25  C   UNL     1       0.177  15.015  22.244  0.00  0.00    +0.000 C 
ATOM     26  O   UNL     1       1.091  15.441  22.938  0.00  0.00    +0.000 OA
ENDBRANCH  18  25
BRANCH  11  27
ATOM     27  O   UNL     1       3.527   4.435  18.776  0.00  0.00    +0.000 OA
BRANCH  27  28
ATOM     28  C   UNL     1       4.805   3.961  18.777  0.00  0.00    +0.000 C 
ATOM     29  O   UNL     1       5.349   3.385  19.705  0.00  0.00    +0.000 OA
BRANCH  28  30
ATOM     30  C   UNL     1       5.500   4.237  17.479  0.00  0.00    +0.000 A 
ATOM     31  C   UNL     1       6.712   4.953  17.487  0.00  0.00    +0.000 A 
ATOM     32  C   UNL     1       7.365   5.275  16.287  0.00  0.00    +0.000 A 
ATOM     33  C   UNL     1       6.832   4.865  15.059  0.00  0.00    +0.000 A 
ATOM     34  C   UNL     1       5.644   4.120  15.051  0.00  0.00    +0.000 A 
ATOM     35  C   UNL     1       4.980   3.812  16.250  0.00  0.00    +0.000 A 
BRANCH  33  36
ATOM     36  C   UNL     1       7.486   5.210  13.821  0.00  0.00    +0.000 C 
ATOM     37  N   UNL     1       8.020   5.484  12.823  0.00  0.00    +0.000 NA
ENDBRANCH  33  36
ENDBRANCH  28  30
ENDBRANCH  27  28
ENDBRANCH  11  27
TORSDOF 6
ENDMDL
MODEL 4
REMARK VINA RESULT:      -7.8      0.883      1.040
REMARK  Name = 
REMARK  8 active torsions:
REMARK  status: ('A' for Active; 'I' for Inactive)
REMARK    1  A    between atoms: C_1  and  C_2
REMARK    2  A    between atoms: C_11  and  O_12
REMARK    3  A    between atoms: O_12  and  C_13
REMARK    4  A    between atoms: C_13  and  C_15
REMARK    5  A    between atoms: C_18  and  C_19
REMARK    6  A    between atoms: C_25  and  C_26
REMARK    7  A    between atoms: C_29  and  C_30
REMARK    8  A    between atoms: C_32  and  N_33
REMARK                            x       y       z     vdW  Elec       q    Type
REMARK                         _______ _______ _______ _____ _____    ______ ____
ROOT
ATOM      1  C   UNL     1      -3.401  14.913  20.902  0.00  0.00    +0.000 C 
ATOM      2  C   UNL     1      -4.202  13.624  21.192  0.00  0.00    +0.000 C 
ATOM      3  C   UNL     1      -3.684  12.901  22.447  0.00  0.00    +0.000 C 
ATOM      4  C   UNL     1      -2.252  12.377  22.253  0.00  0.00    +0.000 C 
ATOM      5  C   UNL     1      -2.055  11.511  20.981  0.00  0.00    +0.000 C 
ATOM      6  C   UNL     1      -2.687  12.158  19.709  0.00  0.00    +0.000 C 
ATOM      7  C   UNL     1      -2.647  11.165  18.537  0.00  0.00    +0.000 C 
ATOM      8  C   UNL     1      -1.366  10.391  18.441  0.00  0.00    +0.000 C 
ATOM      9  C   UNL     1      -0.422  10.327  19.399  0.00  0.00    +0.000 C 
ATOM     10  C   UNL     1       0.839   9.510  19.181  0.00  0.00    +0.000 C 
ATOM     11  C   UNL     1       1.120   8.540  20.337  0.00  0.00    +0.000 C 
ATOM     12  C   UNL     1       1.150   9.314  21.660  0.00  0.00    +0.000 C 
ATOM     13  C   UNL     1      -0.166  10.067  21.890  0.00  0.00    +0.000 C 
ATOM     14  C   UNL     1      -0.561  11.049  20.745  0.00  0.00    +0.000 C 
ATOM     15  C   UNL     1       0.409  12.254  20.742  0.00  0.00    +0.000 C 
ATOM     16  C   UNL     1      -4.129  12.573  20.047  0.00  0.00    +0.000 C 
ATOM     17  C   UNL     1      -5.074  13.110  18.974  0.00  0.00    +0.000 C 
ATOM     18  C   UNL     1      -6.145  13.672  19.873  0.00  0.00    +0.000 C 
ATOM     19  C   UNL     1      -5.693  13.931  21.120  0.00  0.00    +0.000 C 
ENDROOT
BRANCH  19  20
ATOM     20  N   UNL     1      -6.457  14.346  22.217  0.00  0.00    +0.000 N 
ATOM     21  C   UNL     1      -6.608  15.652  22.667  0.00  0.00    +0.000 A 
ATOM     22  C   UNL     1      -7.438  15.640  23.759  0.00  0.00    +0.000 A 
ATOM     23  C   UNL     1      -7.725  14.288  23.954  0.00  0.00    +0.000 A 
ATOM     24  N   UNL     1      -7.191  13.515  23.013  0.00  0.00    +0.000 NA
ENDBRANCH  19  20
BRANCH  18  25
ATOM     25  C   UNL     1      -7.516  13.906  19.377  0.00  0.00    +0.000 C 
ATOM     26  O   UNL     1      -7.827  14.938  18.796  0.00  0.00    +0.000 OA
ENDBRANCH  18  25
BRANCH  11  27
ATOM     27  O   UNL     1       2.406   7.894  20.154  0.00  0.00    +0.000 OA
BRANCH  27  28
ATOM     28  C   UNL     1       2.379   6.559  19.884  0.00  0.00    +0.000 C 
ATOM     29  O   UNL     1       1.618   5.747  20.386  0.00  0.00    +0.000 OA
BRANCH  28  30
ATOM     30  C   UNL     1       3.422   6.174  18.879  0.00  0.00    +0.000 A 
ATOM     31  C   UNL     1       4.205   5.027  19.107  0.00  0.00    +0.000 A 
ATOM     32  C   UNL     1       5.225   4.664  18.214  0.00  0.00    +0.000 A 
ATOM     33  C   UNL     1       5.465   5.428  17.065  0.00  0.00    +0.000 A 
ATOM     34  C   UNL     1       4.662   6.551  16.818  0.00  0.00    +0.000 A 
ATOM     35  C   UNL     1       3.651   6.924  17.720  0.00  0.00    +0.000 A 
BRANCH  33  36
ATOM     36  C   UNL     1       6.525   5.074  16.154  0.00  0.00    +0.000 C 
ATOM     37  N   UNL     1       7.385   4.787  15.423  0.00  0.00    +0.000 NA
ENDBRANCH  33  36
ENDBRANCH  28  30
ENDBRANCH  27  28
ENDBRANCH  11  27
TORSDOF 6
ENDMDL
MODEL 5
REMARK VINA RESULT:      -7.8      3.155      4.453
REMARK  Name = 
REMARK  8 active torsions:
REMARK  status: ('A' for Active; 'I' for Inactive)
REMARK    1  A    between atoms: C_1  and  C_2
REMARK    2  A    between atoms: C_11  and  O_12
REMARK    3  A    between atoms: O_12  and  C_13
REMARK    4  A    between atoms: C_13  and  C_15
REMARK    5  A    between atoms: C_18  and  C_19
REMARK    6  A    between atoms: C_25  and  C_26
REMARK    7  A    between atoms: C_29  and  C_30
REMARK    8  A    between atoms: C_32  and  N_33
REMARK                            x       y       z     vdW  Elec       q    Type
REMARK                         _______ _______ _______ _____ _____    ______ ____
ROOT
ATOM      1  C   UNL     1      -2.211  13.416  20.038  0.00  0.00    +0.000 C 
ATOM      2  C   UNL     1      -0.773  13.775  20.476  0.00  0.00    +0.000 C 
ATOM      3  C   UNL     1       0.214  13.710  19.299  0.00  0.00    +0.000 C 
ATOM      4  C   UNL     1       0.369  12.278  18.763  0.00  0.00    +0.000 C 
ATOM      5  C   UNL     1       0.713  11.222  19.847  0.00  0.00    +0.000 C 
ATOM      6  C   UNL     1      -0.189  11.347  21.115  0.00  0.00    +0.000 C 
ATOM      7  C   UNL     1       0.334  10.424  22.226  0.00  0.00    +0.000 C 
ATOM      8  C   UNL     1       0.780   9.079  21.739  0.00  0.00    +0.000 C 
ATOM      9  C   UNL     1       0.981   8.745  20.449  0.00  0.00    +0.000 C 
ATOM     10  C   UNL     1       1.430   7.343  20.079  0.00  0.00    +0.000 C 
ATOM     11  C   UNL     1       2.658   7.341  19.158  0.00  0.00    +0.000 C 
ATOM     12  C   UNL     1       2.374   8.206  17.924  0.00  0.00    +0.000 C 
ATOM     13  C   UNL     1       1.998   9.637  18.326  0.00  0.00    +0.000 C 
ATOM     14  C   UNL     1       0.784   9.741  19.299  0.00  0.00    +0.000 C 
ATOM     15  C   UNL     1      -0.512   9.353  18.549  0.00  0.00    +0.000 C 
ATOM     16  C   UNL     1      -0.194  12.819  21.558  0.00  0.00    +0.000 C 
ATOM     17  C   UNL     1      -0.870  13.257  22.857  0.00  0.00    +0.000 C 
ATOM     18  C   UNL     1      -0.894  14.743  22.613  0.00  0.00    +0.000 C 
ATOM     19  C   UNL     1      -0.804  15.056  21.302  0.00  0.00    +0.000 C 
ENDROOT
BRANCH  19  20
ATOM     20  N   UNL     1      -0.684  16.339  20.754  0.00  0.00    +0.000 N 
ATOM     21  C   UNL     1       0.474  17.104  20.699  0.00  0.00    +0.000 A 
ATOM     22  C   UNL     1       0.179  18.292  20.082  0.00  0.00    +0.000 A 
ATOM     23  C   UNL     1      -1.190  18.212  19.824  0.00  0.00    +0.000 A 
ATOM     24  N   UNL     1      -1.703  17.035  20.170  0.00  0.00    +0.000 NA
ENDBRANCH  19  20
BRANCH  18  25
ATOM     25  C   UNL     1      -1.019  15.700  23.731  0.00  0.00    +0.000 C 
ATOM     26  O   UNL     1      -0.424  15.541  24.789  0.00  0.00    +0.000 OA
ENDBRANCH  18  25
BRANCH  11  27
ATOM     27  O   UNL     1       2.956   5.992  18.716  0.00  0.00    +0.000 OA
BRANCH  27  28
ATOM     28  C   UNL     1       4.270   5.634  18.708  0.00  0.00    +0.000 C 
ATOM     29  O   UNL     1       5.013   5.638  19.677  0.00  0.00    +0.000 OA
BRANCH  28  30
ATOM     30  C   UNL     1       4.728   5.228  17.341  0.00  0.00    +0.000 A 
ATOM     31  C   UNL     1       4.851   3.860  17.036  0.00  0.00    +0.000 A 
ATOM     32  C   UNL     1       5.326   3.442  15.783  0.00  0.00    +0.000 A 
ATOM     33  C   UNL     1       5.664   4.385  14.804  0.00  0.00    +0.000 A 
ATOM     34  C   UNL     1       5.508   5.748  15.093  0.00  0.00    +0.000 A 
ATOM     35  C   UNL     1       5.048   6.168  16.353  0.00  0.00    +0.000 A 
BRANCH  33  36
ATOM     36  C   UNL     1       6.172   3.965  13.522  0.00  0.00    +0.000 C 
ATOM     37  N   UNL     1       6.589   3.625  12.489  0.00  0.00    +0.000 NA
ENDBRANCH  33  36
ENDBRANCH  28  30
ENDBRANCH  27  28
ENDBRANCH  11  27
TORSDOF 6
ENDMDL
MODEL 6
REMARK VINA RESULT:      -7.7      3.902      5.347
REMARK  Name = 
REMARK  8 active torsions:
REMARK  status: ('A' for Active; 'I' for Inactive)
REMARK    1  A    between atoms: C_1  and  C_2
REMARK    2  A    between atoms: C_11  and  O_12
REMARK    3  A    between atoms: O_12  and  C_13
REMARK    4  A    between atoms: C_13  and  C_15
REMARK    5  A    between atoms: C_18  and  C_19
REMARK    6  A    between atoms: C_25  and  C_26
REMARK    7  A    between atoms: C_29  and  C_30
REMARK    8  A    between atoms: C_32  and  N_33
REMARK                            x       y       z     vdW  Elec       q    Type
REMARK                         _______ _______ _______ _____ _____    ______ ____
ROOT
ATOM      1  C   UNL     1      -0.840  12.624  18.602  0.00  0.00    +0.000 C 
ATOM      2  C   UNL     1       0.507  12.895  19.310  0.00  0.00    +0.000 C 
ATOM      3  C   UNL     1       1.701  12.691  18.363  0.00  0.00    +0.000 C 
ATOM      4  C   UNL     1       1.836  11.225  17.922  0.00  0.00    +0.000 C 
ATOM      5  C   UNL     1       1.865  10.206  19.091  0.00  0.00    +0.000 C 
ATOM      6  C   UNL     1       0.741  10.467  20.144  0.00  0.00    +0.000 C 
ATOM      7  C   UNL     1       0.951   9.567  21.372  0.00  0.00    +0.000 C 
ATOM      8  C   UNL     1       1.369   8.167  21.035  0.00  0.00    +0.000 C 
ATOM      9  C   UNL     1       1.793   7.752  19.827  0.00  0.00    +0.000 C 
ATOM     10  C   UNL     1       2.186   6.302  19.608  0.00  0.00    +0.000 C 
ATOM     11  C   UNL     1       3.568   6.156  18.957  0.00  0.00    +0.000 C 
ATOM     12  C   UNL     1       3.612   6.973  17.659  0.00  0.00    +0.000 C 
ATOM     13  C   UNL     1       3.288   8.448  17.924  0.00  0.00    +0.000 C 
ATOM     14  C   UNL     1       1.917   8.696  18.624  0.00  0.00    +0.000 C 
ATOM     15  C   UNL     1       0.768   8.369  17.642  0.00  0.00    +0.000 C 
ATOM     16  C   UNL     1       0.775  11.957  20.523  0.00  0.00    +0.000 C 
ATOM     17  C   UNL     1      -0.107  12.513  21.639  0.00  0.00    +0.000 C 
ATOM     18  C   UNL     1       0.045  13.982  21.341  0.00  0.00    +0.000 C 
ATOM     19  C   UNL     1       0.422  14.217  20.065  0.00  0.00    +0.000 C 
ENDROOT
BRANCH  19  20
ATOM     20  N   UNL     1       0.759  15.455  19.506  0.00  0.00    +0.000 N 
ATOM     21  C   UNL     1      -0.074  16.272  18.752  0.00  0.00    +0.000 A 
ATOM     22  C   UNL     1       0.627  17.396  18.398  0.00  0.00    +0.000 A 
ATOM     23  C   UNL     1       1.900  17.185  18.928  0.00  0.00    +0.000 A 
ATOM     24  N   UNL     1       1.976  16.061  19.634  0.00  0.00    +0.000 NA
ENDBRANCH  19  20
BRANCH  18  25
ATOM     25  C   UNL     1      -0.218  15.005  22.374  0.00  0.00    +0.000 C 
ATOM     26  O   UNL     1       0.683  15.501  23.037  0.00  0.00    +0.000 OA
ENDBRANCH  18  25
BRANCH  11  27
ATOM     27  O   UNL     1       3.832   4.767  18.634  0.00  0.00    +0.000 OA
BRANCH  27  28
ATOM     28  C   UNL     1       5.142   4.407  18.533  0.00  0.00    +0.000 C 
ATOM     29  O   UNL     1       5.868   4.100  19.464  0.00  0.00    +0.000 OA
BRANCH  28  30
ATOM     30  C   UNL     1       5.618   4.436  17.113  0.00  0.00    +0.000 A 
ATOM     31  C   UNL     1       4.769   3.965  16.094  0.00  0.00    +0.000 A 
ATOM     32  C   UNL     1       5.200   3.929  14.759  0.00  0.00    +0.000 A 
ATOM     33  C   UNL     1       6.479   4.385  14.415  0.00  0.00    +0.000 A 
ATOM     34  C   UNL     1       7.313   4.888  15.424  0.00  0.00    +0.000 A 
ATOM     35  C   UNL     1       6.888   4.910  16.763  0.00  0.00    +0.000 A 
BRANCH  33  36
ATOM     36  C   UNL     1       6.936   4.331  13.048  0.00  0.00    +0.000 C 
ATOM     37  N   UNL     1       7.304   4.282  11.945  0.00  0.00    +0.000 NA
ENDBRANCH  33  36
ENDBRANCH  28  30
ENDBRANCH  27  28
ENDBRANCH  11  27
TORSDOF 6
ENDMDL
MODEL 7
REMARK VINA RESULT:      -7.4      3.295      4.774
REMARK  Name = 
REMARK  8 active torsions:
REMARK  status: ('A' for Active; 'I' for Inactive)
REMARK    1  A    between atoms: C_1  and  C_2
REMARK    2  A    between atoms: C_11  and  O_12
REMARK    3  A    between atoms: O_12  and  C_13
REMARK    4  A    between atoms: C_13  and  C_15
REMARK    5  A    between atoms: C_18  and  C_19
REMARK    6  A    between atoms: C_25  and  C_26
REMARK    7  A    between atoms: C_29  and  C_30
REMARK    8  A    between atoms: C_32  and  N_33
REMARK                            x       y       z     vdW  Elec       q    Type
REMARK                         _______ _______ _______ _____ _____    ______ ____
ROOT
ATOM      1  C   UNL     1      -1.633  12.106  19.454  0.00  0.00    +0.000 C 
ATOM      2  C   UNL     1      -0.306  12.498  20.144  0.00  0.00    +0.000 C 
ATOM      3  C   UNL     1       0.862  12.547  19.145  0.00  0.00    +0.000 C 
ATOM      4  C   UNL     1       1.176  11.159  18.565  0.00  0.00    +0.000 C 
ATOM      5  C   UNL     1       1.393  10.054  19.632  0.00  0.00    +0.000 C 
ATOM      6  C   UNL     1       0.290  10.062  20.738  0.00  0.00    +0.000 C 
ATOM      7  C   UNL     1       0.672   9.095  21.869  0.00  0.00    +0.000 C 
ATOM      8  C   UNL     1       1.262   7.802  21.390  0.00  0.00    +0.000 C 
ATOM      9  C   UNL     1       1.686   7.558  20.136  0.00  0.00    +0.000 C 
ATOM     10  C   UNL     1       2.262   6.202  19.770  0.00  0.00    +0.000 C 
ATOM     11  C   UNL     1       3.622   6.308  19.067  0.00  0.00    +0.000 C 
ATOM     12  C   UNL     1       3.499   7.235  17.851  0.00  0.00    +0.000 C 
ATOM     13  C   UNL     1       2.989   8.621  18.262  0.00  0.00    +0.000 C 
ATOM     14  C   UNL     1       1.629   8.614  19.024  0.00  0.00    +0.000 C 
ATOM     15  C   UNL     1       0.495   8.218  18.051  0.00  0.00    +0.000 C 
ATOM     16  C   UNL     1       0.137  11.502  21.254  0.00  0.00    +0.000 C 
ATOM     17  C   UNL     1      -0.763  11.830  22.444  0.00  0.00    +0.000 C 
ATOM     18  C   UNL     1      -0.824  13.326  22.280  0.00  0.00    +0.000 C 
ATOM     19  C   UNL     1      -0.538  13.723  21.021  0.00  0.00    +0.000 C 
ENDROOT
BRANCH  19  20
ATOM     20  N   UNL     1      -0.396  15.041  20.571  0.00  0.00    +0.000 N 
ATOM     21  C   UNL     1       0.783  15.775  20.532  0.00  0.00    +0.000 A 
ATOM     22  C   UNL     1       0.504  17.016  20.022  0.00  0.00    +0.000 A 
ATOM     23  C   UNL     1      -0.875  16.996  19.810  0.00  0.00    +0.000 A 
ATOM     24  N   UNL     1      -1.413  15.810  20.082  0.00  0.00    +0.000 NA
ENDBRANCH  19  20
BRANCH  18  25
ATOM     25  C   UNL     1      -1.179  14.206  23.412  0.00  0.00    +0.000 C 
ATOM     26  O   UNL     1      -0.349  14.914  23.966  0.00  0.00    +0.000 OA
ENDBRANCH  18  25
BRANCH  11  27
ATOM     27  O   UNL     1       4.058   5.003  18.607  0.00  0.00    +0.000 OA
BRANCH  27  28
ATOM     28  C   UNL     1       5.401   4.833  18.455  0.00  0.00    +0.000 C 
ATOM     29  O   UNL     1       6.221   4.805  19.358  0.00  0.00    +0.000 OA
BRANCH  28  30
ATOM     30  C   UNL     1       5.782   4.685  17.014  0.00  0.00    +0.000 A 
ATOM     31  C   UNL     1       4.834   4.187  16.100  0.00  0.00    +0.000 A 
ATOM     32  C   UNL     1       5.171   3.986  14.752  0.00  0.00    +0.000 A 
ATOM     33  C   UNL     1       6.454   4.303  14.289  0.00  0.00    +0.000 A 
ATOM     34  C   UNL     1       7.389   4.833  15.190  0.00  0.00    +0.000 A 
ATOM     35  C   UNL     1       7.058   5.019  16.543  0.00  0.00    +0.000 A 
BRANCH  33  36
ATOM     36  C   UNL     1       6.814   4.079  12.910  0.00  0.00    +0.000 C 
ATOM     37  N   UNL     1       7.099   3.897  11.796  0.00  0.00    +0.000 NA
ENDBRANCH  33  36
ENDBRANCH  28  30
ENDBRANCH  27  28
ENDBRANCH  11  27
TORSDOF 6
ENDMDL
MODEL 8
REMARK VINA RESULT:      -7.3      2.893     11.287
REMARK  Name = 
REMARK  8 active torsions:
REMARK  status: ('A' for Active; 'I' for Inactive)
REMARK    1  A    between atoms: C_1  and  C_2
REMARK    2  A    between atoms: C_11  and  O_12
REMARK    3  A    between atoms: O_12  and  C_13
REMARK    4  A    between atoms: C_13  and  C_15
REMARK    5  A    between atoms: C_18  and  C_19
REMARK    6  A    between atoms: C_25  and  C_26
REMARK    7  A    between atoms: C_29  and  C_30
REMARK    8  A    between atoms: C_32  and  N_33
REMARK                            x       y       z     vdW  Elec       q    Type
REMARK                         _______ _______ _______ _____ _____    ______ ____
ROOT
ATOM      1  C   UNL     1       1.303   5.691  17.679  0.00  0.00    +0.000 C 
ATOM      2  C   UNL     1       2.507   6.114  18.552  0.00  0.00    +0.000 C 
ATOM      3  C   UNL     1       2.134   6.179  20.043  0.00  0.00    +0.000 C 
ATOM      4  C   UNL     1       1.103   7.283  20.326  0.00  0.00    +0.000 C 
ATOM      5  C   UNL     1       1.497   8.681  19.781  0.00  0.00    +0.000 C 
ATOM      6  C   UNL     1       2.006   8.631  18.306  0.00  0.00    +0.000 C 
ATOM      7  C   UNL     1       2.576   9.998  17.898  0.00  0.00    +0.000 C 
ATOM      8  C   UNL     1       1.768  11.163  18.385  0.00  0.00    +0.000 C 
ATOM      9  C   UNL     1       0.790  11.099  19.308  0.00  0.00    +0.000 C 
ATOM     10  C   UNL     1       0.037  12.353  19.717  0.00  0.00    +0.000 C 
ATOM     11  C   UNL     1      -0.005  12.547  21.239  0.00  0.00    +0.000 C 
ATOM     12  C   UNL     1      -0.573  11.285  21.901  0.00  0.00    +0.000 C 
ATOM     13  C   UNL     1       0.254  10.048  21.533  0.00  0.00    +0.000 C 
ATOM     14  C   UNL     1       0.391   9.790  20.001  0.00  0.00    +0.000 C 
ATOM     15  C   UNL     1      -0.975   9.346  19.429  0.00  0.00    +0.000 C 
ATOM     16  C   UNL     1       3.067   7.523  18.202  0.00  0.00    +0.000 C 
ATOM     17  C   UNL     1       3.869   7.307  16.920  0.00  0.00    +0.000 C 
ATOM     18  C   UNL     1       4.444   5.951  17.234  0.00  0.00    +0.000 C 
ATOM     19  C   UNL     1       3.725   5.285  18.165  0.00  0.00    +0.000 C 
ENDROOT
BRANCH  19  20
ATOM     20  N   UNL     1       4.054   4.060  18.757  0.00  0.00    +0.000 N 
ATOM     21  C   UNL     1       3.372   2.860  18.598  0.00  0.00    +0.000 A 
ATOM     22  C   UNL     1       4.012   1.897  19.335  0.00  0.00    +0.000 A 
ATOM     23  C   UNL     1       5.055   2.583  19.960  0.00  0.00    +0.000 A 
ATOM     24  N   UNL     1       5.122   3.857  19.583  0.00  0.00    +0.000 NA
ENDBRANCH  19  20
BRANCH  18  25
ATOM     25  C   UNL     1       5.657   5.456  16.551  0.00  0.00    +0.000 C 
ATOM     26  O   UNL     1       5.855   5.656  15.360  0.00  0.00    +0.000 OA
ENDBRANCH  18  25
BRANCH  11  27
ATOM     27  O   UNL     1      -0.857  13.669  21.583  0.00  0.00    +0.000 OA
BRANCH  27  28
ATOM     28  C   UNL     1      -1.228  13.769  22.890  0.00  0.00    +0.000 C 
ATOM     29  O   UNL     1      -0.488  14.049  23.819  0.00  0.00    +0.000 OA
BRANCH  28  30
ATOM     30  C   UNL     1      -2.686  13.482  23.077  0.00  0.00    +0.000 A 
ATOM     31  C   UNL     1      -3.148  13.065  24.340  0.00  0.00    +0.000 A 
ATOM     32  C   UNL     1      -4.498  12.738  24.539  0.00  0.00    +0.000 A 
ATOM     33  C   UNL     1      -5.416  12.845  23.487  0.00  0.00    +0.000 A 
ATOM     34  C   UNL     1      -4.965  13.295  22.238  0.00  0.00    +0.000 A 
ATOM     35  C   UNL     1      -3.610  13.607  22.032  0.00  0.00    +0.000 A 
BRANCH  33  36
ATOM     36  C   UNL     1      -6.800  12.491  23.679  0.00  0.00    +0.000 C 
ATOM     37  N   UNL     1      -7.917  12.198  23.834  0.00  0.00    +0.000 NA
ENDBRANCH  33  36
ENDBRANCH  28  30
ENDBRANCH  27  28
ENDBRANCH  11  27
TORSDOF 6
ENDMDL
MODEL 9
REMARK VINA RESULT:      -7.2      2.808      4.105
REMARK  Name = 
REMARK  8 active torsions:
REMARK  status: ('A' for Active; 'I' for Inactive)
REMARK    1  A    between atoms: C_1  and  C_2
REMARK    2  A    between atoms: C_11  and  O_12
REMARK    3  A    between atoms: O_12  and  C_13
REMARK    4  A    between atoms: C_13  and  C_15
REMARK    5  A    between atoms: C_18  and  C_19
REMARK    6  A    between atoms: C_25  and  C_26
REMARK    7  A    between atoms: C_29  and  C_30
REMARK    8  A    between atoms: C_32  and  N_33
REMARK                            x       y       z     vdW  Elec       q    Type
REMARK                         _______ _______ _______ _____ _____    ______ ____
ROOT
ATOM      1  C   UNL     1      -2.695  13.831  20.882  0.00  0.00    +0.000 C 
ATOM      2  C   UNL     1      -1.276  14.051  21.456  0.00  0.00    +0.000 C 
ATOM      3  C   UNL     1      -0.219  14.140  20.342  0.00  0.00    +0.000 C 
ATOM      4  C   UNL     1      -0.078  12.812  19.581  0.00  0.00    +0.000 C 
ATOM      5  C   UNL     1       0.162  11.577  20.489  0.00  0.00    +0.000 C 
ATOM      6  C   UNL     1      -0.814  11.527  21.707  0.00  0.00    +0.000 C 
ATOM      7  C   UNL     1      -0.393  10.410  22.674  0.00  0.00    +0.000 C 
ATOM      8  C   UNL     1       0.039   9.147  21.992  0.00  0.00    +0.000 C 
ATOM      9  C   UNL     1       0.309   9.025  20.679  0.00  0.00    +0.000 C 
ATOM     10  C   UNL     1       0.735   7.687  20.103  0.00  0.00    +0.000 C 
ATOM     11  C   UNL     1       2.018   7.785  19.266  0.00  0.00    +0.000 C 
ATOM     12  C   UNL     1       1.841   8.855  18.181  0.00  0.00    +0.000 C 
ATOM     13  C   UNL     1       1.488  10.213  18.798  0.00  0.00    +0.000 C 
ATOM     14  C   UNL     1       0.219  10.206  19.704  0.00  0.00    +0.000 C 
ATOM     15  C   UNL     1      -1.039  10.004  18.827  0.00  0.00    +0.000 C 
ATOM     16  C   UNL     1      -0.798  12.904  22.392  0.00  0.00    +0.000 C 
ATOM     17  C   UNL     1      -1.540  13.147  23.705  0.00  0.00    +0.000 C 
ATOM     18  C   UNL     1      -1.500  14.653  23.715  0.00  0.00    +0.000 C 
ATOM     19  C   UNL     1      -1.318  15.176  22.483  0.00  0.00    +0.000 C 
ENDROOT
BRANCH  19  20
ATOM     20  N   UNL     1      -1.120  16.526  22.167  0.00  0.00    +0.000 N 
ATOM     21  C   UNL     1      -2.076  17.403  21.670  0.00  0.00    +0.000 A 
ATOM     22  C   UNL     1      -1.490  18.631  21.500  0.00  0.00    +0.000 A 
ATOM     23  C   UNL     1      -0.160  18.428  21.869  0.00  0.00    +0.000 A 
ATOM     24  N   UNL     1       0.060  17.195  22.317  0.00  0.00    +0.000 NA
ENDBRANCH  19  20
BRANCH  18  25
ATOM     25  C   UNL     1      -1.664  15.415  24.969  0.00  0.00    +0.000 C 
ATOM     26  O   UNL     1      -2.662  16.088  25.191  0.00  0.00    +0.000 OA
ENDBRANCH  18  25
BRANCH  11  27
ATOM     27  O   UNL     1       2.299   6.517  18.619  0.00  0.00    +0.000 OA
BRANCH  27  28
ATOM     28  C   UNL     1       3.451   5.891  18.989  0.00  0.00    +0.000 C 
ATOM     29  O   UNL     1       3.735   5.537  20.122  0.00  0.00    +0.000 OA
BRANCH  28  30
ATOM     30  C   UNL     1       4.369   5.683  17.824  0.00  0.00    +0.000 A 
ATOM     31  C   UNL     1       4.582   6.740  16.920  0.00  0.00    +0.000 A 
ATOM     32  C   UNL     1       5.395   6.566  15.789  0.00  0.00    +0.000 A 
ATOM     33  C   UNL     1       6.028   5.339  15.554  0.00  0.00    +0.000 A 
ATOM     34  C   UNL     1       5.846   4.296  16.474  0.00  0.00    +0.000 A 
ATOM     35  C   UNL     1       5.019   4.464  17.598  0.00  0.00    +0.000 A 
BRANCH  33  36
ATOM     36  C   UNL     1       6.847   5.146  14.383  0.00  0.00    +0.000 C 
ATOM     37  N   UNL     1       7.514   4.992  13.441  0.00  0.00    +0.000 NA
ENDBRANCH  33  36
ENDBRANCH  28  30
ENDBRANCH  27  28
ENDBRANCH  11  27
TORSDOF 6
ENDMDL
