MODEL 1
REMARK VINA RESULT:      -8.6      0.000      0.000
REMARK  Name = 
REMARK  6 active torsions:
REMARK  status: ('A' for Active; 'I' for Inactive)
REMARK    1  A    between atoms: C_2  and  O_3
REMARK    2  A    between atoms: C_2  and  C_4
REMARK    3  A    between atoms: N_7  and  C_8
REMARK    4  A    between atoms: C_12  and  O_13
REMARK    5  A    between atoms: O_13  and  C_14
REMARK    6  A    between atoms: C_19  and  C_20
REMARK                            x       y       z     vdW  Elec       q    Type
REMARK                         _______ _______ _______ _____ _____    ______ ____
ROOT
ATOM      1  C   UNL     1       2.777   3.148  20.434  0.00  0.00    +0.000 A 
ATOM      2  N   UNL     1       3.676   2.108  20.411  0.00  0.00    +0.000 NA
ATOM      3  N   UNL     1       4.714   2.471  19.676  0.00  0.00    +0.000 NA
ATOM      4  N   UNL     1       4.564   3.777  19.328  0.00  0.00    +0.000 N 
ATOM      5  C   UNL     1       3.297   4.234  19.730  0.00  0.00    +0.000 A 
ENDROOT
BRANCH   4   6
ATOM      6  C   UNL     1       5.643   4.476  18.719  0.00  0.00    +0.000 A 
ATOM      7  C   UNL     1       6.314   5.501  19.384  0.00  0.00    +0.000 A 
ATOM      8  C   UNL     1       7.320   6.217  18.748  0.00  0.00    +0.000 A 
ATOM      9  C   UNL     1       7.692   5.876  17.452  0.00  0.00    +0.000 A 
ATOM     10  C   UNL     1       7.036   4.845  16.770  0.00  0.00    +0.000 A 
ATOM     11  C   UNL     1       6.031   4.119  17.415  0.00  0.00    +0.000 A 
BRANCH  10  12
ATOM     12  O   UNL     1       7.499   4.628  15.510  0.00  0.00    +0.000 OA
BRANCH  12  13
ATOM     13  C   UNL     1       6.615   4.734  14.402  0.00  0.00    +0.000 C 
ATOM     14  F   UNL     1       5.577   5.573  14.597  0.00  0.00    +0.000 F 
ATOM     15  F   UNL     1       7.317   5.191  13.340  0.00  0.00    +0.000 F 
ATOM     16  F   UNL     1       6.137   3.509  14.098  0.00  0.00    +0.000 F 
ENDBRANCH  12  13
ENDBRANCH  10  12
ENDBRANCH   4   6
BRANCH   5  17
ATOM     17  C   UNL     1       2.722   5.556  19.479  0.00  0.00    +0.000 A 
ATOM     18  C   UNL     1       2.216   6.336  20.520  0.00  0.00    +0.000 A 
ATOM     19  C   UNL     1       1.790   7.638  20.279  0.00  0.00    +0.000 A 
ATOM     20  C   UNL     1       1.922   8.148  19.001  0.00  0.00    +0.000 A 
ATOM     21  N   UNL     1       2.384   7.428  17.957  0.00  0.00    +0.000 NA
ATOM     22  C   UNL     1       2.725   6.144  18.211  0.00  0.00    +0.000 A 
ENDBRANCH   5  17
BRANCH   1  24
ATOM     23  O   UNL     1       1.358   2.679  22.280  0.00  0.00    +0.000 OA
ATOM     24  C   UNL     1       1.493   3.025  21.119  0.00  0.00    +0.000 C 
BRANCH  24  25
ATOM     25  O   UNL     1       0.419   3.269  20.324  0.00  0.00    +0.000 OA
ATOM     26  H   UNL     1      -0.357   2.740  20.603  0.00  0.00    +0.000 HD
ENDBRANCH  24  25
ENDBRANCH   1  24
TORSDOF 6
ENDMDL
MODEL 2
REMARK VINA RESULT:      -8.3      0.876      1.344
REMARK  Name = 
REMARK  6 active torsions:
REMARK  status: ('A' for Active; 'I' for Inactive)
REMARK    1  A    between atoms: C_2  and  O_3
REMARK    2  A    between atoms: C_2  and  C_4
REMARK    3  A    between atoms: N_7  and  C_8
REMARK    4  A    between atoms: C_12  and  O_13
REMARK    5  A    between atoms: O_13  and  C_14
REMARK    6  A    between atoms: C_19  and  C_20
REMARK                            x       y       z     vdW  Elec       q    Type
REMARK                         _______ _______ _______ _____ _____    ______ ____
ROOT
ATOM      1  C   UNL     1       2.687   3.311  20.214  0.00  0.00    +0.000 A 
ATOM      2  N   UNL     1       3.496   2.239  19.920  0.00  0.00    +0.000 NA
ATOM      3  N   UNL     1       4.480   2.662  19.145  0.00  0.00    +0.000 NA
ATOM      4  N   UNL     1       4.398   4.015  19.038  0.00  0.00    +0.000 N 
ATOM      5  C   UNL     1       3.216   4.470  19.647  0.00  0.00    +0.000 A 
ENDROOT
BRANCH   4   6
ATOM      6  C   UNL     1       5.463   4.744  18.437  0.00  0.00    +0.000 A 
ATOM      7  C   UNL     1       6.431   5.384  19.208  0.00  0.00    +0.000 A 
ATOM      8  C   UNL     1       7.424   6.147  18.606  0.00  0.00    +0.000 A 
ATOM      9  C   UNL     1       7.477   6.234  17.219  0.00  0.00    +0.000 A 
ATOM     10  C   UNL     1       6.518   5.592  16.427  0.00  0.00    +0.000 A 
ATOM     11  C   UNL     1       5.526   4.817  17.034  0.00  0.00    +0.000 A 
BRANCH  10  12
ATOM     12  O   UNL     1       6.690   5.770  15.090  0.00  0.00    +0.000 OA
BRANCH  12  13
ATOM     13  C   UNL     1       6.507   4.676  14.200  0.00  0.00    +0.000 C 
ATOM     14  F   UNL     1       6.806   3.473  14.729  0.00  0.00    +0.000 F 
ATOM     15  F   UNL     1       5.208   4.647  13.825  0.00  0.00    +0.000 F 
ATOM     16  F   UNL     1       7.261   4.871  13.098  0.00  0.00    +0.000 F 
ENDBRANCH  12  13
ENDBRANCH  10  12
ENDBRANCH   4   6
BRANCH   5  17
ATOM     17  C   UNL     1       2.724   5.847  19.685  0.00  0.00    +0.000 A 
ATOM     18  C   UNL     1       2.832   6.687  18.575  0.00  0.00    +0.000 A 
ATOM     19  C   UNL     1       2.246   7.949  18.589  0.00  0.00    +0.000 A 
ATOM     20  C   UNL     1       1.524   8.326  19.705  0.00  0.00    +0.000 A 
ATOM     21  N   UNL     1       1.408   7.561  20.810  0.00  0.00    +0.000 NA
ATOM     22  C   UNL     1       2.047   6.369  20.791  0.00  0.00    +0.000 A 
ENDBRANCH   5  17
BRANCH   1  24
ATOM     23  O   UNL     1       1.450   2.852  22.190  0.00  0.00    +0.000 OA
ATOM     24  C   UNL     1       1.471   3.148  21.008  0.00  0.00    +0.000 C 
BRANCH  24  25
ATOM     25  O   UNL     1       0.324   3.288  20.294  0.00  0.00    +0.000 OA
ATOM     26  H   UNL     1       0.457   3.871  19.518  0.00  0.00    +0.000 HD
ENDBRANCH  24  25
ENDBRANCH   1  24
TORSDOF 6
ENDMDL
MODEL 3
REMARK VINA RESULT:      -8.1      4.403      6.483
REMARK  Name = 
REMARK  6 active torsions:
REMARK  status: ('A' for Active; 'I' for Inactive)
REMARK    1  A    between atoms: C_2  and  O_3
REMARK    2  A    between atoms: C_2  and  C_4
REMARK    3  A    between atoms: N_7  and  C_8
REMARK    4  A    between atoms: C_12  and  O_13
REMARK    5  A    between atoms: O_13  and  C_14
REMARK    6  A    between atoms: C_19  and  C_20
REMARK                            x       y       z     vdW  Elec       q    Type
REMARK                         _______ _______ _______ _____ _____    ______ ____
ROOT
ATOM      1  C   UNL     1       3.632   3.191  20.016  0.00  0.00    +0.000 A 
ATOM      2  N   UNL     1       2.455   3.199  20.726  0.00  0.00    +0.000 NA
ATOM      3  N   UNL     1       1.975   4.431  20.722  0.00  0.00    +0.000 NA
ATOM      4  N   UNL     1       2.753   5.197  19.911  0.00  0.00    +0.000 N 
ATOM      5  C   UNL     1       3.875   4.461  19.494  0.00  0.00    +0.000 A 
ENDROOT
BRANCH   4   6
ATOM      6  C   UNL     1       2.332   6.510  19.560  0.00  0.00    +0.000 A 
ATOM      7  C   UNL     1       2.412   6.974  18.249  0.00  0.00    +0.000 A 
ATOM      8  C   UNL     1       2.059   8.281  17.938  0.00  0.00    +0.000 A 
ATOM      9  C   UNL     1       1.579   9.119  18.937  0.00  0.00    +0.000 A 
ATOM     10  C   UNL     1       1.484   8.670  20.260  0.00  0.00    +0.000 A 
ATOM     11  C   UNL     1       1.829   7.352  20.569  0.00  0.00    +0.000 A 
BRANCH  10  12
ATOM     12  O   UNL     1       1.005   9.599  21.130  0.00  0.00    +0.000 OA
BRANCH  12  13
ATOM     13  C   UNL     1      -0.101   9.284  21.965  0.00  0.00    +0.000 C 
ATOM     14  F   UNL     1      -0.794   8.192  21.582  0.00  0.00    +0.000 F 
ATOM     15  F   UNL     1       0.361   9.057  23.215  0.00  0.00    +0.000 F 
ATOM     16  F   UNL     1      -0.939  10.342  22.009  0.00  0.00    +0.000 F 
ENDBRANCH  12  13
ENDBRANCH  10  12
ENDBRANCH   4   6
BRANCH   5  17
ATOM     17  C   UNL     1       4.986   4.946  18.674  0.00  0.00    +0.000 A 
ATOM     18  C   UNL     1       6.142   5.471  19.256  0.00  0.00    +0.000 A 
ATOM     19  C   UNL     1       7.235   5.809  18.465  0.00  0.00    +0.000 A 
ATOM     20  C   UNL     1       7.161   5.574  17.105  0.00  0.00    +0.000 A 
ATOM     21  N   UNL     1       6.060   5.091  16.493  0.00  0.00    +0.000 NA
ATOM     22  C   UNL     1       4.991   4.837  17.281  0.00  0.00    +0.000 A 
ENDBRANCH   5  17
BRANCH   1  24
ATOM     23  O   UNL     1       5.285   1.624  20.693  0.00  0.00    +0.000 OA
ATOM     24  C   UNL     1       4.436   1.977  19.893  0.00  0.00    +0.000 C 
BRANCH  24  25
ATOM     25  O   UNL     1       4.209   1.280  18.749  0.00  0.00    +0.000 OA
ATOM     26  H   UNL     1       4.952   0.673  18.550  0.00  0.00    +0.000 HD
ENDBRANCH  24  25
ENDBRANCH   1  24
TORSDOF 6
ENDMDL
MODEL 4
REMARK VINA RESULT:      -8.1      2.083      2.824
REMARK  Name = 
REMARK  6 active torsions:
REMARK  status: ('A' for Active; 'I' for Inactive)
REMARK    1  A    between atoms: C_2  and  O_3
REMARK    2  A    between atoms: C_2  and  C_4
REMARK    3  A    between atoms: N_7  and  C_8
REMARK    4  A    between atoms: C_12  and  O_13
REMARK    5  A    between atoms: O_13  and  C_14
REMARK    6  A    between atoms: C_19  and  C_20
REMARK                            x       y       z     vdW  Elec       q    Type
REMARK                         _______ _______ _______ _____ _____    ______ ____
ROOT
ATOM      1  C   UNL     1       2.618   3.138  19.648  0.00  0.00    +0.000 A 
ATOM      2  N   UNL     1       3.158   1.961  19.187  0.00  0.00    +0.000 NA
ATOM      3  N   UNL     1       3.871   2.226  18.105  0.00  0.00    +0.000 NA
ATOM      4  N   UNL     1       3.911   3.574  17.931  0.00  0.00    +0.000 N 
ATOM      5  C   UNL     1       3.057   4.199  18.857  0.00  0.00    +0.000 A 
ENDROOT
BRANCH   4   6
ATOM      6  C   UNL     1       4.791   4.138  16.966  0.00  0.00    +0.000 A 
ATOM      7  C   UNL     1       4.653   3.862  15.607  0.00  0.00    +0.000 A 
ATOM      8  C   UNL     1       5.563   4.367  14.687  0.00  0.00    +0.000 A 
ATOM      9  C   UNL     1       6.594   5.193  15.122  0.00  0.00    +0.000 A 
ATOM     10  C   UNL     1       6.745   5.488  16.482  0.00  0.00    +0.000 A 
ATOM     11  C   UNL     1       5.823   4.987  17.405  0.00  0.00    +0.000 A 
BRANCH  10  12
ATOM     12  O   UNL     1       7.800   6.299  16.761  0.00  0.00    +0.000 OA
BRANCH  12  13
ATOM     13  C   UNL     1       7.611   7.450  17.574  0.00  0.00    +0.000 C 
ATOM     14  F   UNL     1       6.337   7.887  17.634  0.00  0.00    +0.000 F 
ATOM     15  F   UNL     1       8.001   7.150  18.834  0.00  0.00    +0.000 F 
ATOM     16  F   UNL     1       8.396   8.449  17.116  0.00  0.00    +0.000 F 
ENDBRANCH  12  13
ENDBRANCH  10  12
ENDBRANCH   4   6
BRANCH   5  17
ATOM     17  C   UNL     1       2.764   5.629  18.951  0.00  0.00    +0.000 A 
ATOM     18  C   UNL     1       2.744   6.442  17.816  0.00  0.00    +0.000 A 
ATOM     19  C   UNL     1       2.340   7.770  17.910  0.00  0.00    +0.000 A 
ATOM     20  C   UNL     1       1.921   8.245  19.139  0.00  0.00    +0.000 A 
ATOM     21  N   UNL     1       1.943   7.507  20.268  0.00  0.00    +0.000 NA
ATOM     22  C   UNL     1       2.406   6.241  20.155  0.00  0.00    +0.000 A 
ENDBRANCH   5  17
BRANCH   1  24
ATOM     23  O   UNL     1       2.090   3.082  21.964  0.00  0.00    +0.000 OA
ATOM     24  C   UNL     1       1.725   3.161  20.804  0.00  0.00    +0.000 C 
BRANCH  24  25
ATOM     25  O   UNL     1       0.406   3.211  20.479  0.00  0.00    +0.000 OA
ATOM     26  H   UNL     1       0.037   2.312  20.353  0.00  0.00    +0.000 HD
ENDBRANCH  24  25
ENDBRANCH   1  24
TORSDOF 6
ENDMDL
MODEL 5
REMARK VINA RESULT:      -8.0      1.381      1.832
REMARK  Name = 
REMARK  6 active torsions:
REMARK  status: ('A' for Active; 'I' for Inactive)
REMARK    1  A    between atoms: C_2  and  O_3
REMARK    2  A    between atoms: C_2  and  C_4
REMARK    3  A    between atoms: N_7  and  C_8
REMARK    4  A    between atoms: C_12  and  O_13
REMARK    5  A    between atoms: O_13  and  C_14
REMARK    6  A    between atoms: C_19  and  C_20
REMARK                            x       y       z     vdW  Elec       q    Type
REMARK                         _______ _______ _______ _____ _____    ______ ____
ROOT
ATOM      1  C   UNL     1       2.224   2.928  19.282  0.00  0.00    +0.000 A 
ATOM      2  N   UNL     1       2.802   1.779  18.795  0.00  0.00    +0.000 NA
ATOM      3  N   UNL     1       3.776   2.122  17.968  0.00  0.00    +0.000 NA
ATOM      4  N   UNL     1       3.925   3.473  18.010  0.00  0.00    +0.000 N 
ATOM      5  C   UNL     1       2.899   4.042  18.784  0.00  0.00    +0.000 A 
ENDROOT
BRANCH   4   6
ATOM      6  C   UNL     1       5.046   4.081  17.379  0.00  0.00    +0.000 A 
ATOM      7  C   UNL     1       6.127   4.559  18.118  0.00  0.00    +0.000 A 
ATOM      8  C   UNL     1       7.181   5.210  17.490  0.00  0.00    +0.000 A 
ATOM      9  C   UNL     1       7.178   5.345  16.106  0.00  0.00    +0.000 A 
ATOM     10  C   UNL     1       6.105   4.865  15.345  0.00  0.00    +0.000 A 
ATOM     11  C   UNL     1       5.051   4.202  15.977  0.00  0.00    +0.000 A 
BRANCH  10  12
ATOM     12  O   UNL     1       6.235   5.074  14.007  0.00  0.00    +0.000 OA
BRANCH  12  13
ATOM     13  C   UNL     1       6.169   3.973  13.110  0.00  0.00    +0.000 C 
ATOM     14  F   UNL     1       6.525   2.791  13.651  0.00  0.00    +0.000 F 
ATOM     15  F   UNL     1       4.895   3.856  12.673  0.00  0.00    +0.000 F 
ATOM     16  F   UNL     1       6.961   4.223  12.045  0.00  0.00    +0.000 F 
ENDBRANCH  12  13
ENDBRANCH  10  12
ENDBRANCH   4   6
BRANCH   5  17
ATOM     17  C   UNL     1       2.664   5.467  19.015  0.00  0.00    +0.000 A 
ATOM     18  C   UNL     1       2.729   6.392  17.971  0.00  0.00    +0.000 A 
ATOM     19  C   UNL     1       2.378   7.721  18.186  0.00  0.00    +0.000 A 
ATOM     20  C   UNL     1       1.927   8.087  19.440  0.00  0.00    +0.000 A 
ATOM     21  N   UNL     1       1.867   7.237  20.487  0.00  0.00    +0.000 NA
ATOM     22  C   UNL     1       2.280   5.969  20.262  0.00  0.00    +0.000 A 
ENDBRANCH   5  17
BRANCH   1  24
ATOM     23  O   UNL     1       1.140   2.875  21.396  0.00  0.00    +0.000 OA
ATOM     24  C   UNL     1       1.072   2.875  20.178  0.00  0.00    +0.000 C 
BRANCH  24  25
ATOM     25  O   UNL     1      -0.120   2.755  19.538  0.00  0.00    +0.000 OA
ATOM     26  H   UNL     1      -0.253   3.482  18.895  0.00  0.00    +0.000 HD
ENDBRANCH  24  25
ENDBRANCH   1  24
TORSDOF 6
ENDMDL
MODEL 6
REMARK VINA RESULT:      -7.9      4.169      6.851
REMARK  Name = 
REMARK  6 active torsions:
REMARK  status: ('A' for Active; 'I' for Inactive)
REMARK    1  A    between atoms: C_2  and  O_3
REMARK    2  A    between atoms: C_2  and  C_4
REMARK    3  A    between atoms: N_7  and  C_8
REMARK    4  A    between atoms: C_12  and  O_13
REMARK    5  A    between atoms: O_13  and  C_14
REMARK    6  A    between atoms: C_19  and  C_20
REMARK                            x       y       z     vdW  Elec       q    Type
REMARK                         _______ _______ _______ _____ _____    ______ ____
ROOT
ATOM      1  C   UNL     1       4.318   5.458  17.751  0.00  0.00    +0.000 A 
ATOM      2  N   UNL     1       4.701   6.622  17.128  0.00  0.00    +0.000 NA
ATOM      3  N   UNL     1       3.836   7.570  17.449  0.00  0.00    +0.000 NA
ATOM      4  N   UNL     1       2.972   7.073  18.374  0.00  0.00    +0.000 N 
ATOM      5  C   UNL     1       3.196   5.696  18.544  0.00  0.00    +0.000 A 
ENDROOT
BRANCH   4   6
ATOM      6  C   UNL     1       2.075   7.949  19.048  0.00  0.00    +0.000 A 
ATOM      7  C   UNL     1       1.810   7.812  20.409  0.00  0.00    +0.000 A 
ATOM      8  C   UNL     1       0.881   8.634  21.034  0.00  0.00    +0.000 A 
ATOM      9  C   UNL     1       0.245   9.632  20.305  0.00  0.00    +0.000 A 
ATOM     10  C   UNL     1       0.503   9.790  18.938  0.00  0.00    +0.000 A 
ATOM     11  C   UNL     1       1.445   8.969  18.313  0.00  0.00    +0.000 A 
BRANCH  10  12
ATOM     12  O   UNL     1      -0.196  10.799  18.353  0.00  0.00    +0.000 OA
BRANCH  12  13
ATOM     13  C   UNL     1      -1.450  10.530  17.739  0.00  0.00    +0.000 C 
ATOM     14  F   UNL     1      -1.461   9.434  16.954  0.00  0.00    +0.000 F 
ATOM     15  F   UNL     1      -2.369  10.344  18.714  0.00  0.00    +0.000 F 
ATOM     16  F   UNL     1      -1.822  11.600  17.005  0.00  0.00    +0.000 F 
ENDBRANCH  12  13
ENDBRANCH  10  12
ENDBRANCH   4   6
BRANCH   5  17
ATOM     17  C   UNL     1       2.431   4.782  19.392  0.00  0.00    +0.000 A 
ATOM     18  C   UNL     1       1.406   3.992  18.869  0.00  0.00    +0.000 A 
ATOM     19  C   UNL     1       0.776   3.040  19.664  0.00  0.00    +0.000 A 
ATOM     20  C   UNL     1       1.220   2.870  20.962  0.00  0.00    +0.000 A 
ATOM     21  N   UNL     1       2.190   3.623  21.521  0.00  0.00    +0.000 NA
ATOM     22  C   UNL     1       2.734   4.585  20.742  0.00  0.00    +0.000 A 
ENDBRANCH   5  17
BRANCH   1  24
ATOM     23  O   UNL     1       5.024   3.561  16.507  0.00  0.00    +0.000 OA
ATOM     24  C   UNL     1       5.046   4.209  17.539  0.00  0.00    +0.000 C 
BRANCH  24  25
ATOM     25  O   UNL     1       5.720   3.772  18.634  0.00  0.00    +0.000 OA
ATOM     26  H   UNL     1       5.573   2.816  18.784  0.00  0.00    +0.000 HD
ENDBRANCH  24  25
ENDBRANCH   1  24
TORSDOF 6
ENDMDL
MODEL 7
REMARK VINA RESULT:      -7.9      4.391      6.417
REMARK  Name = 
REMARK  6 active torsions:
REMARK  status: ('A' for Active; 'I' for Inactive)
REMARK    1  A    between atoms: C_2  and  O_3
REMARK    2  A    between atoms: C_2  and  C_4
REMARK    3  A    between atoms: N_7  and  C_8
REMARK    4  A    between atoms: C_12  and  O_13
REMARK    5  A    between atoms: O_13  and  C_14
REMARK    6  A    between atoms: C_19  and  C_20
REMARK                            x       y       z     vdW  Elec       q    Type
REMARK                         _______ _______ _______ _____ _____    ______ ____
ROOT
ATOM      1  C   UNL     1       3.654   3.239  19.983  0.00  0.00    +0.000 A 
ATOM      2  N   UNL     1       2.582   3.354  20.837  0.00  0.00    +0.000 NA
ATOM      3  N   UNL     1       2.149   4.603  20.795  0.00  0.00    +0.000 NA
ATOM      4  N   UNL     1       2.839   5.269  19.830  0.00  0.00    +0.000 N 
ATOM      5  C   UNL     1       3.869   4.453  19.332  0.00  0.00    +0.000 A 
ENDROOT
BRANCH   4   6
ATOM      6  C   UNL     1       2.420   6.569  19.430  0.00  0.00    +0.000 A 
ATOM      7  C   UNL     1       2.526   6.992  18.107  0.00  0.00    +0.000 A 
ATOM      8  C   UNL     1       2.175   8.288  17.748  0.00  0.00    +0.000 A 
ATOM      9  C   UNL     1       1.671   9.154  18.711  0.00  0.00    +0.000 A 
ATOM     10  C   UNL     1       1.550   8.746  20.044  0.00  0.00    +0.000 A 
ATOM     11  C   UNL     1       1.894   7.439  20.401  0.00  0.00    +0.000 A 
BRANCH  10  12
ATOM     12  O   UNL     1       1.050   9.699  20.876  0.00  0.00    +0.000 OA
BRANCH  12  13
ATOM     13  C   UNL     1      -0.317   9.657  21.261  0.00  0.00    +0.000 C 
ATOM     14  F   UNL     1      -0.690   8.511  21.868  0.00  0.00    +0.000 F 
ATOM     15  F   UNL     1      -0.548  10.671  22.125  0.00  0.00    +0.000 F 
ATOM     16  F   UNL     1      -1.090   9.846  20.170  0.00  0.00    +0.000 F 
ENDBRANCH  12  13
ENDBRANCH  10  12
ENDBRANCH   4   6
BRANCH   5  17
ATOM     17  C   UNL     1       4.877   4.823  18.338  0.00  0.00    +0.000 A 
ATOM     18  C   UNL     1       4.700   4.534  16.983  0.00  0.00    +0.000 A 
ATOM     19  C   UNL     1       5.608   5.004  16.040  0.00  0.00    +0.000 A 
ATOM     20  C   UNL     1       6.656   5.795  16.473  0.00  0.00    +0.000 A 
ATOM     21  N   UNL     1       6.883   6.084  17.772  0.00  0.00    +0.000 NA
ATOM     22  C   UNL     1       6.020   5.554  18.669  0.00  0.00    +0.000 A 
ENDBRANCH   5  17
BRANCH   1  24
ATOM     23  O   UNL     1       5.241   1.598  20.641  0.00  0.00    +0.000 OA
ATOM     24  C   UNL     1       4.391   1.984  19.857  0.00  0.00    +0.000 C 
BRANCH  24  25
ATOM     25  O   UNL     1       4.100   1.285  18.730  0.00  0.00    +0.000 OA
ATOM     26  H   UNL     1       4.556   1.662  17.950  0.00  0.00    +0.000 HD
ENDBRANCH  24  25
ENDBRANCH   1  24
TORSDOF 6
ENDMDL
MODEL 8
REMARK VINA RESULT:      -7.9      4.445      6.565
REMARK  Name = 
REMARK  6 active torsions:
REMARK  status: ('A' for Active; 'I' for Inactive)
REMARK    1  A    between atoms: C_2  and  O_3
REMARK    2  A    between atoms: C_2  and  C_4
REMARK    3  A    between atoms: N_7  and  C_8
REMARK    4  A    between atoms: C_12  and  O_13
REMARK    5  A    between atoms: O_13  and  C_14
REMARK    6  A    between atoms: C_19  and  C_20
REMARK                            x       y       z     vdW  Elec       q    Type
REMARK                         _______ _______ _______ _____ _____    ______ ____
ROOT
ATOM      1  C   UNL     1       3.305   3.204  19.595  0.00  0.00    +0.000 A 
ATOM      2  N   UNL     1       2.110   3.170  20.274  0.00  0.00    +0.000 NA
ATOM      3  N   UNL     1       1.682   4.412  20.425  0.00  0.00    +0.000 NA
ATOM      4  N   UNL     1       2.512   5.244  19.740  0.00  0.00    +0.000 N 
ATOM      5  C   UNL     1       3.614   4.521  19.252  0.00  0.00    +0.000 A 
ENDROOT
BRANCH   4   6
ATOM      6  C   UNL     1       2.154   6.609  19.558  0.00  0.00    +0.000 A 
ATOM      7  C   UNL     1       2.206   7.214  18.304  0.00  0.00    +0.000 A 
ATOM      8  C   UNL     1       1.918   8.565  18.157  0.00  0.00    +0.000 A 
ATOM      9  C   UNL     1       1.531   9.309  19.266  0.00  0.00    +0.000 A 
ATOM     10  C   UNL     1       1.466   8.718  20.533  0.00  0.00    +0.000 A 
ATOM     11  C   UNL     1       1.746   7.357  20.677  0.00  0.00    +0.000 A 
BRANCH  10  12
ATOM     12  O   UNL     1       1.081   9.566  21.524  0.00  0.00    +0.000 OA
BRANCH  12  13
ATOM     13  C   UNL     1      -0.151   9.352  22.201  0.00  0.00    +0.000 C 
ATOM     14  F   UNL     1      -1.020  10.380  22.113  0.00  0.00    +0.000 F 
ATOM     15  F   UNL     1      -0.748   8.264  21.664  0.00  0.00    +0.000 F 
ATOM     16  F   UNL     1       0.097   9.099  23.503  0.00  0.00    +0.000 F 
ENDBRANCH  12  13
ENDBRANCH  10  12
ENDBRANCH   4   6
BRANCH   5  17
ATOM     17  C   UNL     1       4.765   5.060  18.528  0.00  0.00    +0.000 A 
ATOM     18  C   UNL     1       5.933   5.433  19.197  0.00  0.00    +0.000 A 
ATOM     19  C   UNL     1       7.059   5.825  18.480  0.00  0.00    +0.000 A 
ATOM     20  C   UNL     1       7.003   5.793  17.099  0.00  0.00    +0.000 A 
ATOM     21  N   UNL     1       5.893   5.462  16.407  0.00  0.00    +0.000 NA
ATOM     22  C   UNL     1       4.796   5.153  17.134  0.00  0.00    +0.000 A 
ENDBRANCH   5  17
BRANCH   1  24
ATOM     23  O   UNL     1       3.747   1.139  18.507  0.00  0.00    +0.000 OA
ATOM     24  C   UNL     1       4.061   1.983  19.328  0.00  0.00    +0.000 C 
BRANCH  24  25
ATOM     25  O   UNL     1       5.141   1.817  20.136  0.00  0.00    +0.000 OA
ATOM     26  H   UNL     1       5.946   1.616  19.616  0.00  0.00    +0.000 HD
ENDBRANCH  24  25
ENDBRANCH   1  24
TORSDOF 6
ENDMDL
MODEL 9
REMARK VINA RESULT:      -7.8      4.594      7.110
REMARK  Name = 
REMARK  6 active torsions:
REMARK  status: ('A' for Active; 'I' for Inactive)
REMARK    1  A    between atoms: C_2  and  O_3
REMARK    2  A    between atoms: C_2  and  C_4
REMARK    3  A    between atoms: N_7  and  C_8
REMARK    4  A    between atoms: C_12  and  O_13
REMARK    5  A    between atoms: O_13  and  C_14
REMARK    6  A    between atoms: C_19  and  C_20
REMARK                            x       y       z     vdW  Elec       q    Type
REMARK                         _______ _______ _______ _____ _____    ______ ____
ROOT
ATOM      1  C   UNL     1       4.599   5.435  17.857  0.00  0.00    +0.000 A 
ATOM      2  N   UNL     1       5.059   6.528  17.162  0.00  0.00    +0.000 NA
ATOM      3  N   UNL     1       4.158   7.491  17.258  0.00  0.00    +0.000 NA
ATOM      4  N   UNL     1       3.180   7.087  18.113  0.00  0.00    +0.000 N 
ATOM      5  C   UNL     1       3.382   5.742  18.465  0.00  0.00    +0.000 A 
ENDROOT
BRANCH   4   6
ATOM      6  C   UNL     1       2.202   8.019  18.560  0.00  0.00    +0.000 A 
ATOM      7  C   UNL     1       1.380   8.698  17.663  0.00  0.00    +0.000 A 
ATOM      8  C   UNL     1       0.478   9.653  18.115  0.00  0.00    +0.000 A 
ATOM      9  C   UNL     1       0.363   9.899  19.478  0.00  0.00    +0.000 A 
ATOM     10  C   UNL     1       1.174   9.222  20.396  0.00  0.00    +0.000 A 
ATOM     11  C   UNL     1       2.074   8.255  19.941  0.00  0.00    +0.000 A 
BRANCH  10  12
ATOM     12  O   UNL     1       0.958   9.570  21.693  0.00  0.00    +0.000 OA
BRANCH  12  13
ATOM     13  C   UNL     1      -0.276   9.240  22.318  0.00  0.00    +0.000 C 
ATOM     14  F   UNL     1      -0.853   8.115  21.852  0.00  0.00    +0.000 F 
ATOM     15  F   UNL     1      -0.050   9.067  23.640  0.00  0.00    +0.000 F 
ATOM     16  F   UNL     1      -1.137  10.269  22.167  0.00  0.00    +0.000 F 
ENDBRANCH  12  13
ENDBRANCH  10  12
ENDBRANCH   4   6
BRANCH   5  17
ATOM     17  C   UNL     1       2.514   4.916  19.305  0.00  0.00    +0.000 A 
ATOM     18  C   UNL     1       1.496   4.137  18.751  0.00  0.00    +0.000 A 
ATOM     19  C   UNL     1       0.766   3.264  19.551  0.00  0.00    +0.000 A 
ATOM     20  C   UNL     1       1.100   3.160  20.888  0.00  0.00    +0.000 A 
ATOM     21  N   UNL     1       2.059   3.908  21.475  0.00  0.00    +0.000 NA
ATOM     22  C   UNL     1       2.704   4.795  20.684  0.00  0.00    +0.000 A 
ENDBRANCH   5  17
BRANCH   1  24
ATOM     23  O   UNL     1       5.722   3.619  18.900  0.00  0.00    +0.000 OA
ATOM     24  C   UNL     1       5.350   4.182  17.884  0.00  0.00    +0.000 C 
BRANCH  24  25
ATOM     25  O   UNL     1       5.676   3.708  16.654  0.00  0.00    +0.000 OA
ATOM     26  H   UNL     1       6.391   4.239  16.246  0.00  0.00    +0.000 HD
ENDBRANCH  24  25
ENDBRANCH   1  24
TORSDOF 6
ENDMDL
