MODEL 1
REMARK VINA RESULT:      -8.3      0.000      0.000
REMARK  Name = 
REMARK  6 active torsions:
REMARK  status: ('A' for Active; 'I' for Inactive)
REMARK    1  A    between atoms: C_1  and  O_2
REMARK    2  A    between atoms: O_2  and  C_3
REMARK    3  A    between atoms: C_9  and  N_10
REMARK    4  A    between atoms: C_12  and  C_13
REMARK    5  A    between atoms: C_17  and  S_18
REMARK    6  A    between atoms: S_18  and  N_21
REMARK                            x       y       z     vdW  Elec       q    Type
REMARK                         _______ _______ _______ _____ _____    ______ ____
ROOT
ATOM      1  N   UNL     1       3.753   6.049  18.584  0.00  0.00    +0.000 N 
ATOM      2  C   UNL     1       3.862   5.250  19.819  0.00  0.00    +0.000 C 
ATOM      3  C   UNL     1       2.494   5.060  20.472  0.00  0.00    +0.000 C 
ATOM      4  C   UNL     1       1.538   4.226  19.621  0.00  0.00    +0.000 C 
ATOM      5  O   UNL     1       1.897   6.306  20.834  0.00  0.00    +0.000 OA
ATOM      6  C   UNL     1       2.029   7.278  19.870  0.00  0.00    +0.000 A 
ATOM      7  C   UNL     1       1.190   8.379  20.061  0.00  0.00    +0.000 A 
ATOM      8  C   UNL     1       1.179   9.405  19.123  0.00  0.00    +0.000 A 
ATOM      9  C   UNL     1       2.016   9.346  18.010  0.00  0.00    +0.000 A 
ATOM     10  C   UNL     1       2.892   8.259  17.857  0.00  0.00    +0.000 A 
ATOM     11  C   UNL     1       2.902   7.182  18.762  0.00  0.00    +0.000 A 
ENDROOT
BRANCH   1  18
ATOM     12  C   UNL     1       5.528   6.141  16.803  0.00  0.00    +0.000 A 
ATOM     13  C   UNL     1       6.106   5.562  15.659  0.00  0.00    +0.000 A 
ATOM     14  C   UNL     1       5.547   4.425  15.082  0.00  0.00    +0.000 A 
ATOM     15 CL   UNL     1       6.266   3.733  13.680  0.00  0.00    +0.000 Cl
ATOM     16  C   UNL     1       4.424   3.838  15.640  0.00  0.00    +0.000 A 
ATOM     17  C   UNL     1       3.868   4.385  16.799  0.00  0.00    +0.000 A 
ATOM     18  C   UNL     1       4.381   5.549  17.410  0.00  0.00    +0.000 A 
BRANCH  12  20
ATOM     19  C   UNL     1       7.451   7.418  17.497  0.00  0.00    +0.000 C 
ATOM     20  O   UNL     1       6.041   7.275  17.386  0.00  0.00    +0.000 OA
ENDBRANCH  12  20
ENDBRANCH   1  18
BRANCH   8  21
ATOM     21  S   UNL     1      -0.009  10.705  19.280  0.00  0.00    +0.000 S 
ATOM     22  O   UNL     1      -0.004  11.132  20.662  0.00  0.00    +0.000 OA
ATOM     23  O   UNL     1       0.212  11.681  18.226  0.00  0.00    +0.000 OA
BRANCH  21  24
ATOM     24  N   UNL     1      -1.489   9.933  19.070  0.00  0.00    +0.000 N 
ATOM     25  C   UNL     1      -2.138  10.319  17.881  0.00  0.00    +0.000 A 
ATOM     26  N   UNL     1      -1.854   9.732  16.744  0.00  0.00    +0.000 NA
ATOM     27  C   UNL     1      -2.720  10.194  15.772  0.00  0.00    +0.000 A 
ATOM     28  C   UNL     1      -3.619  11.156  16.180  0.00  0.00    +0.000 A 
ATOM     29  S   UNL     1      -3.442  11.423  17.867  0.00  0.00    +0.000 S 
ATOM     30  H   UNL     1      -2.037  10.124  19.907  0.00  0.00    +0.000 HD
ENDBRANCH  21  24
ENDBRANCH   8  21
TORSDOF 4
ENDMDL
MODEL 2
REMARK VINA RESULT:      -8.2      2.030      2.687
REMARK  Name = 
REMARK  6 active torsions:
REMARK  status: ('A' for Active; 'I' for Inactive)
REMARK    1  A    between atoms: C_1  and  O_2
REMARK    2  A    between atoms: O_2  and  C_3
REMARK    3  A    between atoms: C_9  and  N_10
REMARK    4  A    between atoms: C_12  and  C_13
REMARK    5  A    between atoms: C_17  and  S_18
REMARK    6  A    between atoms: S_18  and  N_21
REMARK                            x       y       z     vdW  Elec       q    Type
REMARK                         _______ _______ _______ _____ _____    ______ ____
ROOT
ATOM      1  N   UNL     1       3.787   6.050  18.546  0.00  0.00    +0.000 N 
ATOM      2  C   UNL     1       3.913   5.260  19.786  0.00  0.00    +0.000 C 
ATOM      3  C   UNL     1       2.550   5.051  20.443  0.00  0.00    +0.000 C 
ATOM      4  C   UNL     1       1.607   4.196  19.600  0.00  0.00    +0.000 C 
ATOM      5  O   UNL     1       1.933   6.289  20.799  0.00  0.00    +0.000 OA
ATOM      6  C   UNL     1       2.046   7.257  19.830  0.00  0.00    +0.000 A 
ATOM      7  C   UNL     1       1.189   8.345  20.016  0.00  0.00    +0.000 A 
ATOM      8  C   UNL     1       1.158   9.365  19.072  0.00  0.00    +0.000 A 
ATOM      9  C   UNL     1       1.994   9.313  17.957  0.00  0.00    +0.000 A 
ATOM     10  C   UNL     1       2.887   8.241  17.808  0.00  0.00    +0.000 A 
ATOM     11  C   UNL     1       2.918   7.170  18.719  0.00  0.00    +0.000 A 
ENDROOT
BRANCH   1  18
ATOM     12  C   UNL     1       5.567   6.151  16.770  0.00  0.00    +0.000 A 
ATOM     13  C   UNL     1       6.151   5.575  15.627  0.00  0.00    +0.000 A 
ATOM     14  C   UNL     1       5.599   4.437  15.048  0.00  0.00    +0.000 A 
ATOM     15 CL   UNL     1       6.325   3.749  13.648  0.00  0.00    +0.000 Cl
ATOM     16  C   UNL     1       4.477   3.844  15.602  0.00  0.00    +0.000 A 
ATOM     17  C   UNL     1       3.914   4.387  16.760  0.00  0.00    +0.000 A 
ATOM     18  C   UNL     1       4.422   5.553  17.373  0.00  0.00    +0.000 A 
BRANCH  12  20
ATOM     19  C   UNL     1       7.477   7.394  17.557  0.00  0.00    +0.000 C 
ATOM     20  O   UNL     1       6.074   7.287  17.356  0.00  0.00    +0.000 OA
ENDBRANCH  12  20
ENDBRANCH   1  18
BRANCH   8  21
ATOM     21  S   UNL     1      -0.051  10.646  19.224  0.00  0.00    +0.000 S 
ATOM     22  O   UNL     1      -1.300  10.127  18.710  0.00  0.00    +0.000 OA
ATOM     23  O   UNL     1       0.002  11.192  20.570  0.00  0.00    +0.000 OA
BRANCH  21  24
ATOM     24  N   UNL     1       0.434  11.800  18.098  0.00  0.00    +0.000 N 
ATOM     25  C   UNL     1       1.098  12.891  18.692  0.00  0.00    +0.000 A 
ATOM     26  N   UNL     1       2.383  12.834  18.946  0.00  0.00    +0.000 NA
ATOM     27  C   UNL     1       2.807  14.070  19.392  0.00  0.00    +0.000 A 
ATOM     28  C   UNL     1       1.827  15.032  19.511  0.00  0.00    +0.000 A 
ATOM     29  S   UNL     1       0.334  14.398  18.948  0.00  0.00    +0.000 S 
ATOM     30  H   UNL     1      -0.401  12.070  17.582  0.00  0.00    +0.000 HD
ENDBRANCH  21  24
ENDBRANCH   8  21
TORSDOF 4
ENDMDL
MODEL 3
REMARK VINA RESULT:      -8.0      2.973      3.327
REMARK  Name = 
REMARK  6 active torsions:
REMARK  status: ('A' for Active; 'I' for Inactive)
REMARK    1  A    between atoms: C_1  and  O_2
REMARK    2  A    between atoms: O_2  and  C_3
REMARK    3  A    between atoms: C_9  and  N_10
REMARK    4  A    between atoms: C_12  and  C_13
REMARK    5  A    between atoms: C_17  and  S_18
REMARK    6  A    between atoms: S_18  and  N_21
REMARK                            x       y       z     vdW  Elec       q    Type
REMARK                         _______ _______ _______ _____ _____    ______ ____
ROOT
ATOM      1  N   UNL     1       4.009   4.534  19.075  0.00  0.00    +0.000 N 
ATOM      2  C   UNL     1       3.934   3.308  19.893  0.00  0.00    +0.000 C 
ATOM      3  C   UNL     1       2.484   2.946  20.207  0.00  0.00    +0.000 C 
ATOM      4  C   UNL     1       1.682   2.565  18.964  0.00  0.00    +0.000 C 
ATOM      5  O   UNL     1       1.824   3.977  20.942  0.00  0.00    +0.000 OA
ATOM      6  C   UNL     1       2.092   5.242  20.475  0.00  0.00    +0.000 A 
ATOM      7  C   UNL     1       1.221   6.221  20.961  0.00  0.00    +0.000 A 
ATOM      8  C   UNL     1       1.344   7.533  20.517  0.00  0.00    +0.000 A 
ATOM      9  C   UNL     1       2.345   7.873  19.609  0.00  0.00    +0.000 A 
ATOM     10  C   UNL     1       3.246   6.892  19.167  0.00  0.00    +0.000 A 
ATOM     11  C   UNL     1       3.128   5.547  19.561  0.00  0.00    +0.000 A 
ENDROOT
BRANCH   1  18
ATOM     12  C   UNL     1       6.236   4.665  17.910  0.00  0.00    +0.000 A 
ATOM     13  C   UNL     1       6.963   4.592  16.708  0.00  0.00    +0.000 A 
ATOM     14  C   UNL     1       6.309   4.399  15.495  0.00  0.00    +0.000 A 
ATOM     15 CL   UNL     1       7.215   4.316  14.035  0.00  0.00    +0.000 Cl
ATOM     16  C   UNL     1       4.932   4.258  15.458  0.00  0.00    +0.000 A 
ATOM     17  C   UNL     1       4.206   4.290  16.652  0.00  0.00    +0.000 A 
ATOM     18  C   UNL     1       4.819   4.505  17.905  0.00  0.00    +0.000 A 
BRANCH  12  20
ATOM     19  C   UNL     1       7.858   5.867  19.225  0.00  0.00    +0.000 C 
ATOM     20  O   UNL     1       6.848   4.874  19.122  0.00  0.00    +0.000 OA
ENDBRANCH  12  20
ENDBRANCH   1  18
BRANCH   8  21
ATOM     21  S   UNL     1       0.131   8.724  21.001  0.00  0.00    +0.000 S 
ATOM     22  O   UNL     1      -0.365   9.353  19.796  0.00  0.00    +0.000 OA
ATOM     23  O   UNL     1      -0.803   8.104  21.926  0.00  0.00    +0.000 OA
BRANCH  21  24
ATOM     24  N   UNL     1       1.024   9.922  21.778  0.00  0.00    +0.000 N 
ATOM     25  C   UNL     1       0.326  11.140  21.877  0.00  0.00    +0.000 A 
ATOM     26  N   UNL     1      -0.512  11.352  22.863  0.00  0.00    +0.000 NA
ATOM     27  C   UNL     1      -0.951  12.660  22.806  0.00  0.00    +0.000 A 
ATOM     28  C   UNL     1      -0.472  13.406  21.750  0.00  0.00    +0.000 A 
ATOM     29  S   UNL     1       0.649  12.468  20.850  0.00  0.00    +0.000 S 
ATOM     30  H   UNL     1       1.904  10.003  21.269  0.00  0.00    +0.000 HD
ENDBRANCH  21  24
ENDBRANCH   8  21
TORSDOF 4
ENDMDL
MODEL 4
REMARK VINA RESULT:      -8.0      2.443      2.826
REMARK  Name = 
REMARK  6 active torsions:
REMARK  status: ('A' for Active; 'I' for Inactive)
REMARK    1  A    between atoms: C_1  and  O_2
REMARK    2  A    between atoms: O_2  and  C_3
REMARK    3  A    between atoms: C_9  and  N_10
REMARK    4  A    between atoms: C_12  and  C_13
REMARK    5  A    between atoms: C_17  and  S_18
REMARK    6  A    between atoms: S_18  and  N_21
REMARK                            x       y       z     vdW  Elec       q    Type
REMARK                         _______ _______ _______ _____ _____    ______ ____
ROOT
ATOM      1  N   UNL     1       4.774   5.337  17.856  0.00  0.00    +0.000 N 
ATOM      2  C   UNL     1       4.985   4.390  18.967  0.00  0.00    +0.000 C 
ATOM      3  C   UNL     1       3.659   4.014  19.626  0.00  0.00    +0.000 C 
ATOM      4  C   UNL     1       2.732   3.233  18.696  0.00  0.00    +0.000 C 
ATOM      5  O   UNL     1       2.991   5.152  20.171  0.00  0.00    +0.000 OA
ATOM      6  C   UNL     1       3.018   6.252  19.346  0.00  0.00    +0.000 A 
ATOM      7  C   UNL     1       2.113   7.252  19.708  0.00  0.00    +0.000 A 
ATOM      8  C   UNL     1       1.995   8.391  18.920  0.00  0.00    +0.000 A 
ATOM      9  C   UNL     1       2.792   8.543  17.786  0.00  0.00    +0.000 A 
ATOM     10  C   UNL     1       3.734   7.555  17.461  0.00  0.00    +0.000 A 
ATOM     11  C   UNL     1       3.854   6.371  18.210  0.00  0.00    +0.000 A 
ENDROOT
BRANCH   1  18
ATOM     12  C   UNL     1       6.754   5.336  16.302  0.00  0.00    +0.000 A 
ATOM     13  C   UNL     1       7.292   4.987  15.051  0.00  0.00    +0.000 A 
ATOM     14  C   UNL     1       6.495   4.386  14.081  0.00  0.00    +0.000 A 
ATOM     15 CL   UNL     1       7.171   3.969  12.554  0.00  0.00    +0.000 Cl
ATOM     16  C   UNL     1       5.164   4.109  14.342  0.00  0.00    +0.000 A 
ATOM     17  C   UNL     1       4.632   4.418  15.596  0.00  0.00    +0.000 A 
ATOM     18  C   UNL     1       5.391   5.047  16.607  0.00  0.00    +0.000 A 
BRANCH  12  20
ATOM     19  C   UNL     1       7.526   7.367  17.346  0.00  0.00    +0.000 C 
ATOM     20  O   UNL     1       7.506   5.948  17.277  0.00  0.00    +0.000 OA
ENDBRANCH  12  20
ENDBRANCH   1  18
BRANCH   8  21
ATOM     21  S   UNL     1       0.727   9.567  19.286  0.00  0.00    +0.000 S 
ATOM     22  O   UNL     1      -0.125   9.664  18.121  0.00  0.00    +0.000 OA
ATOM     23  O   UNL     1       0.143   9.250  20.579  0.00  0.00    +0.000 OA
BRANCH  21  24
ATOM     24  N   UNL     1       1.542  11.039  19.350  0.00  0.00    +0.000 N 
ATOM     25  C   UNL     1       0.788  12.049  19.977  0.00  0.00    +0.000 A 
ATOM     26  N   UNL     1       0.793  12.174  21.282  0.00  0.00    +0.000 NA
ATOM     27  C   UNL     1       0.094  13.314  21.626  0.00  0.00    +0.000 A 
ATOM     28  C   UNL     1      -0.468  14.011  20.577  0.00  0.00    +0.000 A 
ATOM     29  S   UNL     1      -0.021  13.269  19.095  0.00  0.00    +0.000 S 
ATOM     30  H   UNL     1       1.803  11.267  18.392  0.00  0.00    +0.000 HD
ENDBRANCH  21  24
ENDBRANCH   8  21
TORSDOF 4
ENDMDL
MODEL 5
REMARK VINA RESULT:      -8.0      2.352      2.703
REMARK  Name = 
REMARK  6 active torsions:
REMARK  status: ('A' for Active; 'I' for Inactive)
REMARK    1  A    between atoms: C_1  and  O_2
REMARK    2  A    between atoms: O_2  and  C_3
REMARK    3  A    between atoms: C_9  and  N_10
REMARK    4  A    between atoms: C_12  and  C_13
REMARK    5  A    between atoms: C_17  and  S_18
REMARK    6  A    between atoms: S_18  and  N_21
REMARK                            x       y       z     vdW  Elec       q    Type
REMARK                         _______ _______ _______ _____ _____    ______ ____
ROOT
ATOM      1  N   UNL     1       3.825   4.456  19.119  0.00  0.00    +0.000 N 
ATOM      2  C   UNL     1       3.664   3.213  19.897  0.00  0.00    +0.000 C 
ATOM      3  C   UNL     1       2.193   2.955  20.220  0.00  0.00    +0.000 C 
ATOM      4  C   UNL     1       1.349   2.680  18.977  0.00  0.00    +0.000 C 
ATOM      5  O   UNL     1       1.624   4.008  20.998  0.00  0.00    +0.000 OA
ATOM      6  C   UNL     1       1.986   5.264  20.569  0.00  0.00    +0.000 A 
ATOM      7  C   UNL     1       1.200   6.290  21.100  0.00  0.00    +0.000 A 
ATOM      8  C   UNL     1       1.420   7.603  20.699  0.00  0.00    +0.000 A 
ATOM      9  C   UNL     1       2.434   7.895  19.788  0.00  0.00    +0.000 A 
ATOM     10  C   UNL     1       3.250   6.863  19.301  0.00  0.00    +0.000 A 
ATOM     11  C   UNL     1       3.032   5.518  19.651  0.00  0.00    +0.000 A 
ENDROOT
BRANCH   1  18
ATOM     12  C   UNL     1       6.029   4.596  17.912  0.00  0.00    +0.000 A 
ATOM     13  C   UNL     1       6.738   4.497  16.702  0.00  0.00    +0.000 A 
ATOM     14  C   UNL     1       6.068   4.247  15.508  0.00  0.00    +0.000 A 
ATOM     15 CL   UNL     1       6.953   4.133  14.036  0.00  0.00    +0.000 Cl
ATOM     16  C   UNL     1       4.695   4.074  15.499  0.00  0.00    +0.000 A 
ATOM     17  C   UNL     1       3.988   4.132  16.702  0.00  0.00    +0.000 A 
ATOM     18  C   UNL     1       4.616   4.405  17.937  0.00  0.00    +0.000 A 
BRANCH  12  20
ATOM     19  C   UNL     1       7.733   5.787  19.132  0.00  0.00    +0.000 C 
ATOM     20  O   UNL     1       6.655   4.861  19.106  0.00  0.00    +0.000 OA
ENDBRANCH  12  20
ENDBRANCH   1  18
BRANCH   8  21
ATOM     21  S   UNL     1       0.311   8.868  21.239  0.00  0.00    +0.000 S 
ATOM     22  O   UNL     1      -0.842   8.215  21.822  0.00  0.00    +0.000 OA
ATOM     23  O   UNL     1       1.050   9.849  22.016  0.00  0.00    +0.000 OA
BRANCH  21  24
ATOM     24  N   UNL     1      -0.256   9.552  19.809  0.00  0.00    +0.000 N 
ATOM     25  C   UNL     1       0.111  10.904  19.672  0.00  0.00    +0.000 A 
ATOM     26  N   UNL     1       1.279  11.233  19.176  0.00  0.00    +0.000 NA
ATOM     27  C   UNL     1       1.331  12.604  19.021  0.00  0.00    +0.000 A 
ATOM     28  C   UNL     1       0.215  13.297  19.444  0.00  0.00    +0.000 A 
ATOM     29  S   UNL     1      -0.984  12.184  19.962  0.00  0.00    +0.000 S 
ATOM     30  H   UNL     1      -1.264   9.405  19.798  0.00  0.00    +0.000 HD
ENDBRANCH  21  24
ENDBRANCH   8  21
TORSDOF 4
ENDMDL
MODEL 6
REMARK VINA RESULT:      -8.0      1.134      1.241
REMARK  Name = 
REMARK  6 active torsions:
REMARK  status: ('A' for Active; 'I' for Inactive)
REMARK    1  A    between atoms: C_1  and  O_2
REMARK    2  A    between atoms: O_2  and  C_3
REMARK    3  A    between atoms: C_9  and  N_10
REMARK    4  A    between atoms: C_12  and  C_13
REMARK    5  A    between atoms: C_17  and  S_18
REMARK    6  A    between atoms: S_18  and  N_21
REMARK                            x       y       z     vdW  Elec       q    Type
REMARK                         _______ _______ _______ _____ _____    ______ ____
ROOT
ATOM      1  N   UNL     1       4.236   5.693  18.142  0.00  0.00    +0.000 N 
ATOM      2  C   UNL     1       4.470   4.831  19.317  0.00  0.00    +0.000 C 
ATOM      3  C   UNL     1       3.166   4.557  20.064  0.00  0.00    +0.000 C 
ATOM      4  C   UNL     1       2.171   3.737  19.245  0.00  0.00    +0.000 C 
ATOM      5  O   UNL     1       2.562   5.758  20.544  0.00  0.00    +0.000 OA
ATOM      6  C   UNL     1       2.585   6.786  19.631  0.00  0.00    +0.000 A 
ATOM      7  C   UNL     1       1.730   7.845  19.950  0.00  0.00    +0.000 A 
ATOM      8  C   UNL     1       1.611   8.920  19.077  0.00  0.00    +0.000 A 
ATOM      9  C   UNL     1       2.357   8.952  17.900  0.00  0.00    +0.000 A 
ATOM     10  C   UNL     1       3.250   7.908  17.615  0.00  0.00    +0.000 A 
ATOM     11  C   UNL     1       3.368   6.783  18.452  0.00  0.00    +0.000 A 
ENDROOT
BRANCH   1  18
ATOM     12  C   UNL     1       5.813   5.983  16.203  0.00  0.00    +0.000 A 
ATOM     13  C   UNL     1       6.318   5.488  14.987  0.00  0.00    +0.000 A 
ATOM     14  C   UNL     1       5.796   4.327  14.425  0.00  0.00    +0.000 A 
ATOM     15 CL   UNL     1       6.424   3.738  12.935  0.00  0.00    +0.000 Cl
ATOM     16  C   UNL     1       4.783   3.633  15.066  0.00  0.00    +0.000 A 
ATOM     17  C   UNL     1       4.303   4.097  16.293  0.00  0.00    +0.000 A 
ATOM     18  C   UNL     1       4.782   5.281  16.895  0.00  0.00    +0.000 A 
BRANCH  12  20
ATOM     19  C   UNL     1       7.451   7.073  17.595  0.00  0.00    +0.000 C 
ATOM     20  O   UNL     1       6.291   7.137  16.777  0.00  0.00    +0.000 OA
ENDBRANCH  12  20
ENDBRANCH   1  18
BRANCH   8  21
ATOM     21  S   UNL     1       0.400  10.166  19.403  0.00  0.00    +0.000 S 
ATOM     22  O   UNL     1      -0.665   9.549  20.163  0.00  0.00    +0.000 OA
ATOM     23  O   UNL     1       1.064  11.349  19.926  0.00  0.00    +0.000 OA
BRANCH  21  24
ATOM     24  N   UNL     1      -0.273  10.485  17.894  0.00  0.00    +0.000 N 
ATOM     25  C   UNL     1      -1.658  10.726  17.958  0.00  0.00    +0.000 A 
ATOM     26  N   UNL     1      -2.117  11.923  18.235  0.00  0.00    +0.000 NA
ATOM     27  C   UNL     1      -3.491  11.919  18.099  0.00  0.00    +0.000 A 
ATOM     28  C   UNL     1      -4.056  10.707  17.763  0.00  0.00    +0.000 A 
ATOM     29  S   UNL     1      -2.814   9.550  17.509  0.00  0.00    +0.000 S 
ATOM     30  H   UNL     1      -0.029   9.697  17.296  0.00  0.00    +0.000 HD
ENDBRANCH  21  24
ENDBRANCH   8  21
TORSDOF 4
ENDMDL
MODEL 7
REMARK VINA RESULT:      -7.9      1.079      1.791
REMARK  Name = 
REMARK  6 active torsions:
REMARK  status: ('A' for Active; 'I' for Inactive)
REMARK    1  A    between atoms: C_1  and  O_2
REMARK    2  A    between atoms: O_2  and  C_3
REMARK    3  A    between atoms: C_9  and  N_10
REMARK    4  A    between atoms: C_12  and  C_13
REMARK    5  A    between atoms: C_17  and  S_18
REMARK    6  A    between atoms: S_18  and  N_21
REMARK                            x       y       z     vdW  Elec       q    Type
REMARK                         _______ _______ _______ _____ _____    ______ ____
ROOT
ATOM      1  N   UNL     1       3.556   6.022  18.689  0.00  0.00    +0.000 N 
ATOM      2  C   UNL     1       3.656   5.248  19.941  0.00  0.00    +0.000 C 
ATOM      3  C   UNL     1       2.291   5.117  20.615  0.00  0.00    +0.000 C 
ATOM      4  C   UNL     1       1.299   4.295  19.795  0.00  0.00    +0.000 C 
ATOM      5  O   UNL     1       1.739   6.389  20.956  0.00  0.00    +0.000 OA
ATOM      6  C   UNL     1       1.889   7.334  19.968  0.00  0.00    +0.000 A 
ATOM      7  C   UNL     1       1.088   8.466  20.144  0.00  0.00    +0.000 A 
ATOM      8  C   UNL     1       1.098   9.470  19.183  0.00  0.00    +0.000 A 
ATOM      9  C   UNL     1       1.918   9.359  18.062  0.00  0.00    +0.000 A 
ATOM     10  C   UNL     1       2.756   8.242  17.922  0.00  0.00    +0.000 A 
ATOM     11  C   UNL     1       2.744   7.186  18.851  0.00  0.00    +0.000 A 
ENDROOT
BRANCH   1  18
ATOM     12  C   UNL     1       3.944   4.140  17.063  0.00  0.00    +0.000 A 
ATOM     13  C   UNL     1       4.550   3.691  15.876  0.00  0.00    +0.000 A 
ATOM     14  C   UNL     1       5.389   4.530  15.149  0.00  0.00    +0.000 A 
ATOM     15 CL   UNL     1       6.125   3.961  13.701  0.00  0.00    +0.000 Cl
ATOM     16  C   UNL     1       5.624   5.826  15.576  0.00  0.00    +0.000 A 
ATOM     17  C   UNL     1       4.995   6.292  16.733  0.00  0.00    +0.000 A 
ATOM     18  C   UNL     1       4.153   5.476  17.519  0.00  0.00    +0.000 A 
BRANCH  12  20
ATOM     19  C   UNL     1       3.530   1.998  18.087  0.00  0.00    +0.000 C 
ATOM     20  O   UNL     1       3.126   3.333  17.816  0.00  0.00    +0.000 OA
ENDBRANCH  12  20
ENDBRANCH   1  18
BRANCH   8  21
ATOM     21  S   UNL     1      -0.045  10.811  19.325  0.00  0.00    +0.000 S 
ATOM     22  O   UNL     1      -0.015  11.264  20.699  0.00  0.00    +0.000 OA
ATOM     23  O   UNL     1       0.198  11.759  18.251  0.00  0.00    +0.000 OA
BRANCH  21  24
ATOM     24  N   UNL     1      -1.552  10.083  19.142  0.00  0.00    +0.000 N 
ATOM     25  C   UNL     1      -2.147  10.374  17.899  0.00  0.00    +0.000 A 
ATOM     26  N   UNL     1      -1.854   9.664  16.836  0.00  0.00    +0.000 NA
ATOM     27  C   UNL     1      -2.669  10.060  15.794  0.00  0.00    +0.000 A 
ATOM     28  C   UNL     1      -3.535  11.096  16.072  0.00  0.00    +0.000 A 
ATOM     29  S   UNL     1      -3.398  11.525  17.728  0.00  0.00    +0.000 S 
ATOM     30  H   UNL     1      -2.116  10.381  19.936  0.00  0.00    +0.000 HD
ENDBRANCH  21  24
ENDBRANCH   8  21
TORSDOF 4
ENDMDL
MODEL 8
REMARK VINA RESULT:      -7.8      4.115      7.912
REMARK  Name = 
REMARK  6 active torsions:
REMARK  status: ('A' for Active; 'I' for Inactive)
REMARK    1  A    between atoms: C_1  and  O_2
REMARK    2  A    between atoms: O_2  and  C_3
REMARK    3  A    between atoms: C_9  and  N_10
REMARK    4  A    between atoms: C_12  and  C_13
REMARK    5  A    between atoms: C_17  and  S_18
REMARK    6  A    between atoms: S_18  and  N_21
REMARK                            x       y       z     vdW  Elec       q    Type
REMARK                         _______ _______ _______ _____ _____    ______ ____
ROOT
ATOM      1  N   UNL     1       0.480  10.132  19.804  0.00  0.00    +0.000 N 
ATOM      2  C   UNL     1      -0.437   9.670  20.863  0.00  0.00    +0.000 C 
ATOM      3  C   UNL     1       0.303   8.824  21.898  0.00  0.00    +0.000 C 
ATOM      4  C   UNL     1       1.344   9.618  22.683  0.00  0.00    +0.000 C 
ATOM      5  O   UNL     1       0.887   7.658  21.316  0.00  0.00    +0.000 OA
ATOM      6  C   UNL     1       1.503   7.896  20.110  0.00  0.00    +0.000 A 
ATOM      7  C   UNL     1       2.343   6.861  19.690  0.00  0.00    +0.000 A 
ATOM      8  C   UNL     1       3.075   7.002  18.517  0.00  0.00    +0.000 A 
ATOM      9  C   UNL     1       2.955   8.162  17.753  0.00  0.00    +0.000 A 
ATOM     10  C   UNL     1       2.070   9.173  18.157  0.00  0.00    +0.000 A 
ATOM     11  C   UNL     1       1.343   9.084  19.359  0.00  0.00    +0.000 A 
ENDROOT
BRANCH   1  18
ATOM     12  C   UNL     1      -0.455  12.100  18.546  0.00  0.00    +0.000 A 
ATOM     13  C   UNL     1      -0.421  13.483  18.292  0.00  0.00    +0.000 A 
ATOM     14  C   UNL     1       0.531  14.292  18.905  0.00  0.00    +0.000 A 
ATOM     15 CL   UNL     1       0.560  15.982  18.579  0.00  0.00    +0.000 Cl
ATOM     16  C   UNL     1       1.447  13.747  19.789  0.00  0.00    +0.000 A 
ATOM     17  C   UNL     1       1.395  12.381  20.077  0.00  0.00    +0.000 A 
ATOM     18  C   UNL     1       0.464  11.513  19.465  0.00  0.00    +0.000 A 
BRANCH  12  20
ATOM     19  C   UNL     1      -2.750  11.435  18.230  0.00  0.00    +0.000 C 
ATOM     20  O   UNL     1      -1.368  11.269  17.943  0.00  0.00    +0.000 OA
ENDBRANCH  12  20
ENDBRANCH   1  18
BRANCH   8  21
ATOM     21  S   UNL     1       4.263   5.767  18.087  0.00  0.00    +0.000 S 
ATOM     22  O   UNL     1       5.219   6.377  17.189  0.00  0.00    +0.000 OA
ATOM     23  O   UNL     1       4.731   5.114  19.299  0.00  0.00    +0.000 OA
BRANCH  21  24
ATOM     24  N   UNL     1       3.399   4.685  17.130  0.00  0.00    +0.000 N 
ATOM     25  C   UNL     1       2.717   3.715  17.889  0.00  0.00    +0.000 A 
ATOM     26  N   UNL     1       1.532   3.969  18.389  0.00  0.00    +0.000 NA
ATOM     27  C   UNL     1       1.030   2.817  18.963  0.00  0.00    +0.000 A 
ATOM     28  C   UNL     1       1.864   1.719  18.927  0.00  0.00    +0.000 A 
ATOM     29  S   UNL     1       3.288   2.113  18.054  0.00  0.00    +0.000 S 
ATOM     30  H   UNL     1       4.065   4.285  16.471  0.00  0.00    +0.000 HD
ENDBRANCH  21  24
ENDBRANCH   8  21
TORSDOF 4
ENDMDL
MODEL 9
REMARK VINA RESULT:      -7.7      2.284      3.259
REMARK  Name = 
REMARK  6 active torsions:
REMARK  status: ('A' for Active; 'I' for Inactive)
REMARK    1  A    between atoms: C_1  and  O_2
REMARK    2  A    between atoms: O_2  and  C_3
REMARK    3  A    between atoms: C_9  and  N_10
REMARK    4  A    between atoms: C_12  and  C_13
REMARK    5  A    between atoms: C_17  and  S_18
REMARK    6  A    between atoms: S_18  and  N_21
REMARK                            x       y       z     vdW  Elec       q    Type
REMARK                         _______ _______ _______ _____ _____    ______ ____
ROOT
ATOM      1  N   UNL     1       3.577   6.043  18.667  0.00  0.00    +0.000 N 
ATOM      2  C   UNL     1       3.687   5.288  19.929  0.00  0.00    +0.000 C 
ATOM      3  C   UNL     1       2.324   5.145  20.603  0.00  0.00    +0.000 C 
ATOM      4  C   UNL     1       1.345   4.297  19.794  0.00  0.00    +0.000 C 
ATOM      5  O   UNL     1       1.751   6.413  20.926  0.00  0.00    +0.000 OA
ATOM      6  C   UNL     1       1.888   7.347  19.926  0.00  0.00    +0.000 A 
ATOM      7  C   UNL     1       1.069   8.468  20.085  0.00  0.00    +0.000 A 
ATOM      8  C   UNL     1       1.064   9.460  19.111  0.00  0.00    +0.000 A 
ATOM      9  C   UNL     1       1.888   9.345  17.992  0.00  0.00    +0.000 A 
ATOM     10  C   UNL     1       2.743   8.240  17.869  0.00  0.00    +0.000 A 
ATOM     11  C   UNL     1       2.747   7.197  18.812  0.00  0.00    +0.000 A 
ENDROOT
BRANCH   1  18
ATOM     12  C   UNL     1       3.990   4.149  17.063  0.00  0.00    +0.000 A 
ATOM     13  C   UNL     1       4.605   3.693  15.883  0.00  0.00    +0.000 A 
ATOM     14  C   UNL     1       5.439   4.532  15.150  0.00  0.00    +0.000 A 
ATOM     15 CL   UNL     1       6.186   3.955  13.711  0.00  0.00    +0.000 Cl
ATOM     16  C   UNL     1       5.659   5.835  15.564  0.00  0.00    +0.000 A 
ATOM     17  C   UNL     1       5.021   6.307  16.713  0.00  0.00    +0.000 A 
ATOM     18  C   UNL     1       4.184   5.491  17.505  0.00  0.00    +0.000 A 
BRANCH  12  20
ATOM     19  C   UNL     1       3.536   1.980  18.011  0.00  0.00    +0.000 C 
ATOM     20  O   UNL     1       3.176   3.341  17.821  0.00  0.00    +0.000 OA
ENDBRANCH  12  20
ENDBRANCH   1  18
BRANCH   8  21
ATOM     21  S   UNL     1      -0.100  10.784  19.233  0.00  0.00    +0.000 S 
ATOM     22  O   UNL     1      -1.359  10.306  18.704  0.00  0.00    +0.000 OA
ATOM     23  O   UNL     1      -0.049  11.340  20.575  0.00  0.00    +0.000 OA
BRANCH  21  24
ATOM     24  N   UNL     1       0.444  11.910  18.106  0.00  0.00    +0.000 N 
ATOM     25  C   UNL     1       1.145  12.977  18.700  0.00  0.00    +0.000 A 
ATOM     26  N   UNL     1       2.424  12.869  18.969  0.00  0.00    +0.000 NA
ATOM     27  C   UNL     1       2.894  14.090  19.412  0.00  0.00    +0.000 A 
ATOM     28  C   UNL     1       1.952  15.092  19.514  0.00  0.00    +0.000 A 
ATOM     29  S   UNL     1       0.441  14.516  18.939  0.00  0.00    +0.000 S 
ATOM     30  H   UNL     1      -0.374  12.211  17.579  0.00  0.00    +0.000 HD
ENDBRANCH  21  24
ENDBRANCH   8  21
TORSDOF 4
ENDMDL
