MODEL 1
REMARK VINA RESULT:      -6.1      0.000      0.000
REMARK  Name = 
REMARK  6 active torsions:
REMARK  status: ('A' for Active; 'I' for Inactive)
REMARK    1  A    between atoms: C_1  and  C_2
REMARK    2  A    between atoms: C_2  and  N_3
REMARK    3  A    between atoms: C_2  and  C_4
REMARK    4  A    between atoms: C_9  and  C_11
REMARK    5  A    between atoms: C_11  and  C_12
REMARK    6  A    between atoms: C_12  and  C_13
REMARK                            x       y       z     vdW  Elec       q    Type
REMARK                         _______ _______ _______ _____ _____    ______ ____
ROOT
ATOM      1  C   UNL     1       1.307   3.297  19.627  0.00  0.00    +0.000 C 
ATOM      2  C   UNL     1       1.501   1.834  19.165  0.00  0.00    +0.000 C 
ATOM      3  C   UNL     1       2.848   1.625  18.471  0.00  0.00    +0.000 C 
ATOM      4  C   UNL     1       3.040   2.611  17.323  0.00  0.00    +0.000 C 
ATOM      5  N   UNL     1       2.803   3.988  17.760  0.00  0.00    +0.000 N 
ATOM      6  C   UNL     1       3.584   5.084  17.412  0.00  0.00    +0.000 C 
ATOM      7  O   UNL     1       3.277   6.235  17.723  0.00  0.00    +0.000 OA
ATOM      8  C   UNL     1       1.515   4.221  18.413  0.00  0.00    +0.000 C 
ENDROOT
BRANCH   1  10
ATOM      9  C   UNL     1       2.238   5.158  21.160  0.00  0.00    +0.000 C 
ATOM     10  C   UNL     1       2.216   3.664  20.834  0.00  0.00    +0.000 C 
BRANCH  10  11
ATOM     11  N   UNL     1       1.760   2.940  22.032  0.00  0.00    +0.000 NA
ATOM     12  H   UNL     1       2.542   2.421  22.435  0.00  0.00    +0.000 HD
ATOM     13  H   UNL     1       1.069   2.239  21.764  0.00  0.00    +0.000 HD
ENDBRANCH  10  11
ENDBRANCH   1  10
BRANCH   6  14
ATOM     14  C   UNL     1       4.859   4.798  16.639  0.00  0.00    +0.000 C 
BRANCH  14  15
ATOM     15  C   UNL     1       6.047   4.552  17.566  0.00  0.00    +0.000 C 
BRANCH  15  16
ATOM     16  C   UNL     1       6.830   5.813  17.805  0.00  0.00    +0.000 A 
ATOM     17  C   UNL     1       7.792   5.984  18.854  0.00  0.00    +0.000 A 
ATOM     18  C   UNL     1       8.347   7.244  18.863  0.00  0.00    +0.000 A 
ATOM     19  S   UNL     1       7.726   8.227  17.610  0.00  0.00    +0.000 S 
ATOM     20  C   UNL     1       6.713   6.967  17.053  0.00  0.00    +0.000 A 
ENDBRANCH  15  16
ENDBRANCH  14  15
ENDBRANCH   6  14
TORSDOF 5
ENDMDL
MODEL 2
REMARK VINA RESULT:      -6.1      0.913      1.140
REMARK  Name = 
REMARK  6 active torsions:
REMARK  status: ('A' for Active; 'I' for Inactive)
REMARK    1  A    between atoms: C_1  and  C_2
REMARK    2  A    between atoms: C_2  and  N_3
REMARK    3  A    between atoms: C_2  and  C_4
REMARK    4  A    between atoms: C_9  and  C_11
REMARK    5  A    between atoms: C_11  and  C_12
REMARK    6  A    between atoms: C_12  and  C_13
REMARK                            x       y       z     vdW  Elec       q    Type
REMARK                         _______ _______ _______ _____ _____    ______ ____
ROOT
ATOM      1  C   UNL     1       1.258   3.549  19.565  0.00  0.00    +0.000 C 
ATOM      2  C   UNL     1       1.285   2.035  19.255  0.00  0.00    +0.000 C 
ATOM      3  C   UNL     1       2.588   1.611  18.574  0.00  0.00    +0.000 C 
ATOM      4  C   UNL     1       2.860   2.448  17.328  0.00  0.00    +0.000 C 
ATOM      5  N   UNL     1       2.780   3.880  17.622  0.00  0.00    +0.000 N 
ATOM      6  C   UNL     1       3.667   4.844  17.155  0.00  0.00    +0.000 C 
ATOM      7  O   UNL     1       3.492   6.046  17.348  0.00  0.00    +0.000 OA
ATOM      8  C   UNL     1       1.538   4.317  18.260  0.00  0.00    +0.000 C 
ENDROOT
BRANCH   1  10
ATOM      9  C   UNL     1       2.210   5.426  21.066  0.00  0.00    +0.000 C 
ATOM     10  C   UNL     1       2.226   3.936  20.719  0.00  0.00    +0.000 C 
BRANCH  10  11
ATOM     11  N   UNL     1       1.875   3.180  21.931  0.00  0.00    +0.000 NA
ATOM     12  H   UNL     1       2.711   3.038  22.500  0.00  0.00    +0.000 HD
ATOM     13  H   UNL     1       1.555   2.247  21.670  0.00  0.00    +0.000 HD
ENDBRANCH  10  11
ENDBRANCH   1  10
BRANCH   6  14
ATOM     14  C   UNL     1       4.887   4.344  16.403  0.00  0.00    +0.000 C 
BRANCH  14  15
ATOM     15  C   UNL     1       5.834   5.482  16.028  0.00  0.00    +0.000 C 
BRANCH  15  16
ATOM     16  C   UNL     1       6.710   5.875  17.185  0.00  0.00    +0.000 A 
ATOM     17  C   UNL     1       7.333   7.157  17.332  0.00  0.00    +0.000 A 
ATOM     18  C   UNL     1       8.102   7.245  18.471  0.00  0.00    +0.000 A 
ATOM     19  S   UNL     1       8.073   5.796  19.376  0.00  0.00    +0.000 S 
ATOM     20  C   UNL     1       7.033   5.048  18.245  0.00  0.00    +0.000 A 
ENDBRANCH  15  16
ENDBRANCH  14  15
ENDBRANCH   6  14
TORSDOF 5
ENDMDL
MODEL 3
REMARK VINA RESULT:      -6.1      2.545      3.117
REMARK  Name = 
REMARK  6 active torsions:
REMARK  status: ('A' for Active; 'I' for Inactive)
REMARK    1  A    between atoms: C_1  and  C_2
REMARK    2  A    between atoms: C_2  and  N_3
REMARK    3  A    between atoms: C_2  and  C_4
REMARK    4  A    between atoms: C_9  and  C_11
REMARK    5  A    between atoms: C_11  and  C_12
REMARK    6  A    between atoms: C_12  and  C_13
REMARK                            x       y       z     vdW  Elec       q    Type
REMARK                         _______ _______ _______ _____ _____    ______ ____
ROOT
ATOM      1  C   UNL     1       1.377   3.525  19.182  0.00  0.00    +0.000 C 
ATOM      2  C   UNL     1       1.582   2.009  18.957  0.00  0.00    +0.000 C 
ATOM      3  C   UNL     1       3.026   1.675  18.577  0.00  0.00    +0.000 C 
ATOM      4  C   UNL     1       3.486   2.494  17.375  0.00  0.00    +0.000 C 
ATOM      5  N   UNL     1       3.239   3.923  17.578  0.00  0.00    +0.000 N 
ATOM      6  C   UNL     1       4.128   4.943  17.258  0.00  0.00    +0.000 C 
ATOM      7  O   UNL     1       3.825   6.132  17.354  0.00  0.00    +0.000 OA
ATOM      8  C   UNL     1       1.862   4.273  17.927  0.00  0.00    +0.000 C 
ENDROOT
BRANCH   1  10
ATOM      9  C   UNL     1       1.825   5.514  20.771  0.00  0.00    +0.000 C 
ATOM     10  C   UNL     1       2.051   4.026  20.490  0.00  0.00    +0.000 C 
BRANCH  10  11
ATOM     11  N   UNL     1       1.536   3.260  21.636  0.00  0.00    +0.000 NA
ATOM     12  H   UNL     1       0.554   3.494  21.790  0.00  0.00    +0.000 HD
ATOM     13  H   UNL     1       2.026   3.545  22.484  0.00  0.00    +0.000 HD
ENDBRANCH  10  11
ENDBRANCH   1  10
BRANCH   6  14
ATOM     14  C   UNL     1       5.512   4.524  16.796  0.00  0.00    +0.000 C 
BRANCH  14  15
ATOM     15  C   UNL     1       6.096   5.502  15.778  0.00  0.00    +0.000 C 
BRANCH  15  16
ATOM     16  C   UNL     1       6.315   4.844  14.445  0.00  0.00    +0.000 A 
ATOM     17  C   UNL     1       7.418   5.125  13.574  0.00  0.00    +0.000 A 
ATOM     18  C   UNL     1       7.367   4.401  12.404  0.00  0.00    +0.000 A 
ATOM     19  S   UNL     1       6.002   3.374  12.345  0.00  0.00    +0.000 S 
ATOM     20  C   UNL     1       5.477   3.897  13.886  0.00  0.00    +0.000 A 
ENDBRANCH  15  16
ENDBRANCH  14  15
ENDBRANCH   6  14
TORSDOF 5
ENDMDL
MODEL 4
REMARK VINA RESULT:      -5.9      4.033      5.354
REMARK  Name = 
REMARK  6 active torsions:
REMARK  status: ('A' for Active; 'I' for Inactive)
REMARK    1  A    between atoms: C_1  and  C_2
REMARK    2  A    between atoms: C_2  and  N_3
REMARK    3  A    between atoms: C_2  and  C_4
REMARK    4  A    between atoms: C_9  and  C_11
REMARK    5  A    between atoms: C_11  and  C_12
REMARK    6  A    between atoms: C_12  and  C_13
REMARK                            x       y       z     vdW  Elec       q    Type
REMARK                         _______ _______ _______ _____ _____    ______ ____
ROOT
ATOM      1  C   UNL     1       3.742   3.306  19.739  0.00  0.00    +0.000 C 
ATOM      2  C   UNL     1       2.609   3.143  20.778  0.00  0.00    +0.000 C 
ATOM      3  C   UNL     1       1.416   4.051  20.473  0.00  0.00    +0.000 C 
ATOM      4  C   UNL     1       1.849   5.507  20.331  0.00  0.00    +0.000 C 
ATOM      5  N   UNL     1       2.957   5.642  19.384  0.00  0.00    +0.000 N 
ATOM      6  C   UNL     1       3.067   6.635  18.416  0.00  0.00    +0.000 C 
ATOM      7  O   UNL     1       4.072   6.761  17.717  0.00  0.00    +0.000 OA
ATOM      8  C   UNL     1       4.119   4.797  19.660  0.00  0.00    +0.000 C 
ENDROOT
BRANCH   1  10
ATOM      9  C   UNL     1       4.106   3.344  17.180  0.00  0.00    +0.000 C 
ATOM     10  C   UNL     1       3.372   2.697  18.357  0.00  0.00    +0.000 C 
BRANCH  10  11
ATOM     11  N   UNL     1       3.679   1.258  18.354  0.00  0.00    +0.000 NA
ATOM     12  H   UNL     1       2.810   0.723  18.319  0.00  0.00    +0.000 HD
ATOM     13  H   UNL     1       4.128   1.004  19.234  0.00  0.00    +0.000 HD
ENDBRANCH  10  11
ENDBRANCH   1  10
BRANCH   6  14
ATOM     14  C   UNL     1       1.874   7.556  18.244  0.00  0.00    +0.000 C 
BRANCH  14  15
ATOM     15  C   UNL     1       2.297   8.977  17.875  0.00  0.00    +0.000 C 
BRANCH  15  16
ATOM     16  C   UNL     1       1.234   9.978  18.230  0.00  0.00    +0.000 A 
ATOM     17  C   UNL     1      -0.171   9.772  18.036  0.00  0.00    +0.000 A 
ATOM     18  C   UNL     1      -0.925  10.857  18.424  0.00  0.00    +0.000 A 
ATOM     19  S   UNL     1       0.045  12.127  19.030  0.00  0.00    +0.000 S 
ATOM     20  C   UNL     1       1.476  11.226  18.775  0.00  0.00    +0.000 A 
ENDBRANCH  15  16
ENDBRANCH  14  15
ENDBRANCH   6  14
TORSDOF 5
ENDMDL
MODEL 5
REMARK VINA RESULT:      -5.8      2.229      3.506
REMARK  Name = 
REMARK  6 active torsions:
REMARK  status: ('A' for Active; 'I' for Inactive)
REMARK    1  A    between atoms: C_1  and  C_2
REMARK    2  A    between atoms: C_2  and  N_3
REMARK    3  A    between atoms: C_2  and  C_4
REMARK    4  A    between atoms: C_9  and  C_11
REMARK    5  A    between atoms: C_11  and  C_12
REMARK    6  A    between atoms: C_12  and  C_13
REMARK                            x       y       z     vdW  Elec       q    Type
REMARK                         _______ _______ _______ _____ _____    ______ ____
ROOT
ATOM      1  C   UNL     1       1.775   2.862  20.023  0.00  0.00    +0.000 C 
ATOM      2  C   UNL     1       0.939   4.068  20.509  0.00  0.00    +0.000 C 
ATOM      3  C   UNL     1       1.493   5.397  19.994  0.00  0.00    +0.000 C 
ATOM      4  C   UNL     1       2.970   5.554  20.344  0.00  0.00    +0.000 C 
ATOM      5  N   UNL     1       3.744   4.384  19.926  0.00  0.00    +0.000 N 
ATOM      6  C   UNL     1       4.989   4.426  19.309  0.00  0.00    +0.000 C 
ATOM      7  O   UNL     1       5.640   3.409  19.074  0.00  0.00    +0.000 OA
ATOM      8  C   UNL     1       3.244   3.100  20.417  0.00  0.00    +0.000 C 
ENDROOT
BRANCH   1  10
ATOM      9  C   UNL     1       2.758   1.832  17.866  0.00  0.00    +0.000 C 
ATOM     10  C   UNL     1       1.589   2.584  18.505  0.00  0.00    +0.000 C 
BRANCH  10  11
ATOM     11  N   UNL     1       0.366   1.794  18.295  0.00  0.00    +0.000 NA
ATOM     12  H   UNL     1       0.171   1.238  19.129  0.00  0.00    +0.000 HD
ATOM     13  H   UNL     1       0.519   1.123  17.542  0.00  0.00    +0.000 HD
ENDBRANCH  10  11
ENDBRANCH   1  10
BRANCH   6  14
ATOM     14  C   UNL     1       5.512   5.796  18.916  0.00  0.00    +0.000 C 
BRANCH  14  15
ATOM     15  C   UNL     1       4.901   6.286  17.604  0.00  0.00    +0.000 C 
BRANCH  15  16
ATOM     16  C   UNL     1       5.489   5.571  16.421  0.00  0.00    +0.000 A 
ATOM     17  C   UNL     1       4.801   4.577  15.650  0.00  0.00    +0.000 A 
ATOM     18  C   UNL     1       5.577   4.063  14.636  0.00  0.00    +0.000 A 
ATOM     19  S   UNL     1       7.130   4.773  14.594  0.00  0.00    +0.000 S 
ATOM     20  C   UNL     1       6.767   5.771  15.934  0.00  0.00    +0.000 A 
ENDBRANCH  15  16
ENDBRANCH  14  15
ENDBRANCH   6  14
TORSDOF 5
ENDMDL
MODEL 6
REMARK VINA RESULT:      -5.8      1.867      2.500
REMARK  Name = 
REMARK  6 active torsions:
REMARK  status: ('A' for Active; 'I' for Inactive)
REMARK    1  A    between atoms: C_1  and  C_2
REMARK    2  A    between atoms: C_2  and  N_3
REMARK    3  A    between atoms: C_2  and  C_4
REMARK    4  A    between atoms: C_9  and  C_11
REMARK    5  A    between atoms: C_11  and  C_12
REMARK    6  A    between atoms: C_12  and  C_13
REMARK                            x       y       z     vdW  Elec       q    Type
REMARK                         _______ _______ _______ _____ _____    ______ ____
ROOT
ATOM      1  C   UNL     1       1.123   3.402  18.783  0.00  0.00    +0.000 C 
ATOM      2  C   UNL     1       1.685   2.007  18.429  0.00  0.00    +0.000 C 
ATOM      3  C   UNL     1       3.148   1.852  18.851  0.00  0.00    +0.000 C 
ATOM      4  C   UNL     1       4.011   2.973  18.278  0.00  0.00    +0.000 C 
ATOM      5  N   UNL     1       3.441   4.288  18.576  0.00  0.00    +0.000 N 
ATOM      6  C   UNL     1       4.165   5.399  18.994  0.00  0.00    +0.000 C 
ATOM      7  O   UNL     1       3.648   6.507  19.129  0.00  0.00    +0.000 OA
ATOM      8  C   UNL     1       2.047   4.469  18.169  0.00  0.00    +0.000 C 
ENDROOT
BRANCH   1  10
ATOM      9  C   UNL     1       1.700   2.592  21.169  0.00  0.00    +0.000 C 
ATOM     10  C   UNL     1       0.913   3.586  20.313  0.00  0.00    +0.000 C 
BRANCH  10  11
ATOM     11  N   UNL     1       1.313   4.946  20.706  0.00  0.00    +0.000 NA
ATOM     12  H   UNL     1       0.832   5.208  21.568  0.00  0.00    +0.000 HD
ATOM     13  H   UNL     1       0.999   5.611  19.999  0.00  0.00    +0.000 HD
ENDBRANCH  10  11
ENDBRANCH   1  10
BRANCH   6  14
ATOM     14  C   UNL     1       5.635   5.181  19.300  0.00  0.00    +0.000 C 
BRANCH  14  15
ATOM     15  C   UNL     1       6.540   5.946  18.336  0.00  0.00    +0.000 C 
BRANCH  15  16
ATOM     16  C   UNL     1       6.338   5.497  16.917  0.00  0.00    +0.000 A 
ATOM     17  C   UNL     1       5.431   6.112  15.993  0.00  0.00    +0.000 A 
ATOM     18  C   UNL     1       5.422   5.489  14.765  0.00  0.00    +0.000 A 
ATOM     19  S   UNL     1       6.506   4.169  14.708  0.00  0.00    +0.000 S 
ATOM     20  C   UNL     1       6.990   4.429  16.327  0.00  0.00    +0.000 A 
ENDBRANCH  15  16
ENDBRANCH  14  15
ENDBRANCH   6  14
TORSDOF 5
ENDMDL
MODEL 7
REMARK VINA RESULT:      -5.8      2.791      5.949
REMARK  Name = 
REMARK  6 active torsions:
REMARK  status: ('A' for Active; 'I' for Inactive)
REMARK    1  A    between atoms: C_1  and  C_2
REMARK    2  A    between atoms: C_2  and  N_3
REMARK    3  A    between atoms: C_2  and  C_4
REMARK    4  A    between atoms: C_9  and  C_11
REMARK    5  A    between atoms: C_11  and  C_12
REMARK    6  A    between atoms: C_12  and  C_13
REMARK                            x       y       z     vdW  Elec       q    Type
REMARK                         _______ _______ _______ _____ _____    ______ ____
ROOT
ATOM      1  C   UNL     1       7.156   4.983  17.602  0.00  0.00    +0.000 C 
ATOM      2  C   UNL     1       7.042   4.248  16.246  0.00  0.00    +0.000 C 
ATOM      3  C   UNL     1       5.675   4.456  15.592  0.00  0.00    +0.000 C 
ATOM      4  C   UNL     1       4.543   4.074  16.540  0.00  0.00    +0.000 C 
ATOM      5  N   UNL     1       4.689   4.735  17.838  0.00  0.00    +0.000 N 
ATOM      6  C   UNL     1       3.655   5.322  18.559  0.00  0.00    +0.000 C 
ATOM      7  O   UNL     1       3.818   5.772  19.693  0.00  0.00    +0.000 OA
ATOM      8  C   UNL     1       5.982   4.540  18.494  0.00  0.00    +0.000 C 
ENDROOT
BRANCH   1  10
ATOM      9  C   UNL     1       8.075   7.219  18.516  0.00  0.00    +0.000 C 
ATOM     10  C   UNL     1       7.245   6.526  17.434  0.00  0.00    +0.000 C 
BRANCH  10  11
ATOM     11  N   UNL     1       7.838   6.847  16.126  0.00  0.00    +0.000 NA
ATOM     12  H   UNL     1       7.095   6.972  15.436  0.00  0.00    +0.000 HD
ATOM     13  H   UNL     1       8.390   6.054  15.799  0.00  0.00    +0.000 HD
ENDBRANCH  10  11
ENDBRANCH   1  10
BRANCH   6  14
ATOM     14  C   UNL     1       2.304   5.403  17.873  0.00  0.00    +0.000 C 
BRANCH  14  15
ATOM     15  C   UNL     1       1.525   4.093  17.988  0.00  0.00    +0.000 C 
BRANCH  15  16
ATOM     16  C   UNL     1       1.700   3.465  19.342  0.00  0.00    +0.000 A 
ATOM     17  C   UNL     1       0.974   3.853  20.515  0.00  0.00    +0.000 A 
ATOM     18  C   UNL     1       1.343   3.132  21.629  0.00  0.00    +0.000 A 
ATOM     19  S   UNL     1       2.556   1.982  21.275  0.00  0.00    +0.000 S 
ATOM     20  C   UNL     1       2.588   2.445  19.629  0.00  0.00    +0.000 A 
ENDBRANCH  15  16
ENDBRANCH  14  15
ENDBRANCH   6  14
TORSDOF 5
ENDMDL
MODEL 8
REMARK VINA RESULT:      -5.7      4.047      6.271
REMARK  Name = 
REMARK  6 active torsions:
REMARK  status: ('A' for Active; 'I' for Inactive)
REMARK    1  A    between atoms: C_1  and  C_2
REMARK    2  A    between atoms: C_2  and  N_3
REMARK    3  A    between atoms: C_2  and  C_4
REMARK    4  A    between atoms: C_9  and  C_11
REMARK    5  A    between atoms: C_11  and  C_12
REMARK    6  A    between atoms: C_12  and  C_13
REMARK                            x       y       z     vdW  Elec       q    Type
REMARK                         _______ _______ _______ _____ _____    ______ ____
ROOT
ATOM      1  C   UNL     1       3.819   4.284  17.912  0.00  0.00    +0.000 C 
ATOM      2  C   UNL     1       4.341   5.378  16.952  0.00  0.00    +0.000 C 
ATOM      3  C   UNL     1       4.308   6.767  17.592  0.00  0.00    +0.000 C 
ATOM      4  C   UNL     1       2.919   7.098  18.128  0.00  0.00    +0.000 C 
ATOM      5  N   UNL     1       2.413   6.031  18.993  0.00  0.00    +0.000 N 
ATOM      6  C   UNL     1       1.752   6.225  20.201  0.00  0.00    +0.000 C 
ATOM      7  O   UNL     1       1.257   5.295  20.835  0.00  0.00    +0.000 OA
ATOM      8  C   UNL     1       2.418   4.694  18.400  0.00  0.00    +0.000 C 
ENDROOT
BRANCH   1  10
ATOM      9  C   UNL     1       4.533   2.680  19.809  0.00  0.00    +0.000 C 
ATOM     10  C   UNL     1       4.809   3.993  19.074  0.00  0.00    +0.000 C 
BRANCH  10  11
ATOM     11  N   UNL     1       6.184   3.945  18.551  0.00  0.00    +0.000 NA
ATOM     12  H   UNL     1       6.253   4.533  17.719  0.00  0.00    +0.000 HD
ATOM     13  H   UNL     1       6.397   2.997  18.241  0.00  0.00    +0.000 HD
ENDBRANCH  10  11
ENDBRANCH   1  10
BRANCH   6  14
ATOM     14  C   UNL     1       1.680   7.650  20.720  0.00  0.00    +0.000 C 
BRANCH  14  15
ATOM     15  C   UNL     1       0.435   7.886  21.573  0.00  0.00    +0.000 C 
BRANCH  15  16
ATOM     16  C   UNL     1       0.126   9.351  21.704  0.00  0.00    +0.000 A 
ATOM     17  C   UNL     1      -0.583   9.935  22.803  0.00  0.00    +0.000 A 
ATOM     18  C   UNL     1      -0.752  11.294  22.663  0.00  0.00    +0.000 A 
ATOM     19  S   UNL     1      -0.054  11.880  21.218  0.00  0.00    +0.000 S 
ATOM     20  C   UNL     1       0.476  10.316  20.777  0.00  0.00    +0.000 A 
ENDBRANCH  15  16
ENDBRANCH  14  15
ENDBRANCH   6  14
TORSDOF 5
ENDMDL
MODEL 9
REMARK VINA RESULT:      -5.7      3.009      5.985
REMARK  Name = 
REMARK  6 active torsions:
REMARK  status: ('A' for Active; 'I' for Inactive)
REMARK    1  A    between atoms: C_1  and  C_2
REMARK    2  A    between atoms: C_2  and  N_3
REMARK    3  A    between atoms: C_2  and  C_4
REMARK    4  A    between atoms: C_9  and  C_11
REMARK    5  A    between atoms: C_11  and  C_12
REMARK    6  A    between atoms: C_12  and  C_13
REMARK                            x       y       z     vdW  Elec       q    Type
REMARK                         _______ _______ _______ _____ _____    ______ ____
ROOT
ATOM      1  C   UNL     1       6.946   5.624  16.516  0.00  0.00    +0.000 C 
ATOM      2  C   UNL     1       7.352   4.759  17.731  0.00  0.00    +0.000 C 
ATOM      3  C   UNL     1       6.146   4.367  18.587  0.00  0.00    +0.000 C 
ATOM      4  C   UNL     1       5.344   5.595  19.008  0.00  0.00    +0.000 C 
ATOM      5  N   UNL     1       5.010   6.434  17.856  0.00  0.00    +0.000 N 
ATOM      6  C   UNL     1       3.774   7.032  17.632  0.00  0.00    +0.000 C 
ATOM      7  O   UNL     1       3.582   7.812  16.700  0.00  0.00    +0.000 OA
ATOM      8  C   UNL     1       6.147   6.836  17.028  0.00  0.00    +0.000 C 
ENDROOT
BRANCH   1  10
ATOM      9  C   UNL     1       6.865   4.816  14.062  0.00  0.00    +0.000 C 
ATOM     10  C   UNL     1       6.186   4.807  15.433  0.00  0.00    +0.000 C 
BRANCH  10  11
ATOM     11  N   UNL     1       6.057   3.409  15.871  0.00  0.00    +0.000 NA
ATOM     12  H   UNL     1       6.253   2.785  15.086  0.00  0.00    +0.000 HD
ATOM     13  H   UNL     1       5.090   3.223  16.138  0.00  0.00    +0.000 HD
ENDBRANCH  10  11
ENDBRANCH   1  10
BRANCH   6  14
ATOM     14  C   UNL     1       2.653   6.663  18.587  0.00  0.00    +0.000 C 
BRANCH  14  15
ATOM     15  C   UNL     1       1.894   5.421  18.125  0.00  0.00    +0.000 C 
BRANCH  15  16
ATOM     16  C   UNL     1       1.840   4.375  19.203  0.00  0.00    +0.000 A 
ATOM     17  C   UNL     1       1.515   2.997  18.981  0.00  0.00    +0.000 A 
ATOM     18  C   UNL     1       1.514   2.259  20.143  0.00  0.00    +0.000 A 
ATOM     19  S   UNL     1       1.910   3.210  21.506  0.00  0.00    +0.000 S 
ATOM     20  C   UNL     1       2.084   4.612  20.543  0.00  0.00    +0.000 A 
ENDBRANCH  15  16
ENDBRANCH  14  15
ENDBRANCH   6  14
TORSDOF 5
ENDMDL
