MODEL 1
REMARK VINA RESULT:      -8.6      0.000      0.000
REMARK  Name = 
REMARK  5 active torsions:
REMARK  status: ('A' for Active; 'I' for Inactive)
REMARK    1  A    between atoms: C_1  and  C_2
REMARK    2  A    between atoms: C_2  and  C_3
REMARK    3  A    between atoms: C_2  and  N_4
REMARK    4  A    between atoms: C_6  and  C_7
REMARK    5  A    between atoms: C_13  and  C_14
REMARK                            x       y       z     vdW  Elec       q    Type
REMARK                         _______ _______ _______ _____ _____    ______ ____
ROOT
ATOM      1  N   UNL     1       6.549   5.527  17.271  0.00  0.00    +0.000 N 
ATOM      2  N   UNL     1       7.058   5.589  16.014  0.00  0.00    +0.000 NA
ATOM      3  C   UNL     1       6.354   4.649  15.378  0.00  0.00    +0.000 A 
ATOM      4  N   UNL     1       5.478   3.972  16.178  0.00  0.00    +0.000 NA
ATOM      5  C   UNL     1       5.622   4.518  17.366  0.00  0.00    +0.000 A 
ENDROOT
BRANCH   5   6
ATOM      6  C   UNL     1       4.751   3.971  18.488  0.00  0.00    +0.000 C 
ATOM      7  C   UNL     1       3.421   3.355  18.125  0.00  0.00    +0.000 C 
ATOM      8  C   UNL     1       2.742   2.301  19.002  0.00  0.00    +0.000 C 
ATOM      9  C   UNL     1       1.240   2.645  19.026  0.00  0.00    +0.000 C 
ATOM     10  C   UNL     1       1.214   3.960  19.848  0.00  0.00    +0.000 C 
ATOM     11  C   UNL     1       2.703   4.158  20.236  0.00  0.00    +0.000 C 
ATOM     12  C   UNL     1       3.127   2.698  20.440  0.00  0.00    +0.000 C 
ATOM     13  C   UNL     1       3.447   4.586  18.966  0.00  0.00    +0.000 C 
ENDBRANCH   5   6
BRANCH   3  14
ATOM     14  C   UNL     1       6.471   4.311  13.930  0.00  0.00    +0.000 A 
ATOM     15  C   UNL     1       5.596   3.480  13.253  0.00  0.00    +0.000 A 
ATOM     16  C   UNL     1       6.066   3.378  11.924  0.00  0.00    +0.000 A 
ATOM     17  C   UNL     1       7.199   4.157  11.866  0.00  0.00    +0.000 A 
ATOM     18  O   UNL     1       7.438   4.749  13.063  0.00  0.00    +0.000 OA
ENDBRANCH   3  14
BRANCH   1  20
ATOM     19  C   UNL     1       7.961   5.804  19.286  0.00  0.00    +0.000 C 
ATOM     20  C   UNL     1       7.038   6.474  18.264  0.00  0.00    +0.000 C 
ATOM     21  C   UNL     1       7.746   7.667  17.614  0.00  0.00    +0.000 C 
ENDBRANCH   1  20
TORSDOF 3
ENDMDL
MODEL 2
REMARK VINA RESULT:      -8.1      0.696      1.256
REMARK  Name = 
REMARK  5 active torsions:
REMARK  status: ('A' for Active; 'I' for Inactive)
REMARK    1  A    between atoms: C_1  and  C_2
REMARK    2  A    between atoms: C_2  and  C_3
REMARK    3  A    between atoms: C_2  and  N_4
REMARK    4  A    between atoms: C_6  and  C_7
REMARK    5  A    between atoms: C_13  and  C_14
REMARK                            x       y       z     vdW  Elec       q    Type
REMARK                         _______ _______ _______ _____ _____    ______ ____
ROOT
ATOM      1  N   UNL     1       6.375   5.893  17.175  0.00  0.00    +0.000 N 
ATOM      2  N   UNL     1       7.110   5.647  16.061  0.00  0.00    +0.000 NA
ATOM      3  C   UNL     1       6.234   5.010  15.278  0.00  0.00    +0.000 A 
ATOM      4  N   UNL     1       5.017   4.799  15.862  0.00  0.00    +0.000 NA
ATOM      5  C   UNL     1       5.123   5.340  17.056  0.00  0.00    +0.000 A 
ENDROOT
BRANCH   5   6
ATOM      6  C   UNL     1       3.898   5.272  17.957  0.00  0.00    +0.000 C 
ATOM      7  C   UNL     1       3.893   4.262  19.081  0.00  0.00    +0.000 C 
ATOM      8  C   UNL     1       3.057   4.455  20.348  0.00  0.00    +0.000 C 
ATOM      9  C   UNL     1       2.451   3.080  20.692  0.00  0.00    +0.000 C 
ATOM     10  C   UNL     1       1.433   2.868  19.542  0.00  0.00    +0.000 C 
ATOM     11  C   UNL     1       1.551   4.183  18.725  0.00  0.00    +0.000 C 
ATOM     12  C   UNL     1       1.792   5.187  19.861  0.00  0.00    +0.000 C 
ATOM     13  C   UNL     1       2.891   4.135  17.983  0.00  0.00    +0.000 C 
ENDBRANCH   5   6
BRANCH   3  14
ATOM     14  C   UNL     1       6.499   4.536  13.889  0.00  0.00    +0.000 A 
ATOM     15  C   UNL     1       5.780   3.536  13.259  0.00  0.00    +0.000 A 
ATOM     16  C   UNL     1       6.358   3.352  11.983  0.00  0.00    +0.000 A 
ATOM     17  C   UNL     1       7.393   4.254  11.906  0.00  0.00    +0.000 A 
ATOM     18  O   UNL     1       7.471   4.996  13.039  0.00  0.00    +0.000 OA
ENDBRANCH   3  14
BRANCH   1  20
ATOM     19  C   UNL     1       7.874   5.767  19.141  0.00  0.00    +0.000 C 
ATOM     20  C   UNL     1       6.989   6.650  18.257  0.00  0.00    +0.000 C 
ATOM     21  C   UNL     1       7.790   7.846  17.734  0.00  0.00    +0.000 C 
ENDBRANCH   1  20
TORSDOF 3
ENDMDL
MODEL 3
REMARK VINA RESULT:      -7.9      1.074      1.637
REMARK  Name = 
REMARK  5 active torsions:
REMARK  status: ('A' for Active; 'I' for Inactive)
REMARK    1  A    between atoms: C_1  and  C_2
REMARK    2  A    between atoms: C_2  and  C_3
REMARK    3  A    between atoms: C_2  and  N_4
REMARK    4  A    between atoms: C_6  and  C_7
REMARK    5  A    between atoms: C_13  and  C_14
REMARK                            x       y       z     vdW  Elec       q    Type
REMARK                         _______ _______ _______ _____ _____    ______ ____
ROOT
ATOM      1  N   UNL     1       5.853   4.518  17.558  0.00  0.00    +0.000 N 
ATOM      2  N   UNL     1       6.734   4.825  16.571  0.00  0.00    +0.000 NA
ATOM      3  C   UNL     1       6.118   4.349  15.485  0.00  0.00    +0.000 A 
ATOM      4  N   UNL     1       4.935   3.718  15.747  0.00  0.00    +0.000 NA
ATOM      5  C   UNL     1       4.788   3.814  17.051  0.00  0.00    +0.000 A 
ENDROOT
BRANCH   5   6
ATOM      6  C   UNL     1       3.531   3.202  17.652  0.00  0.00    +0.000 C 
ATOM      7  C   UNL     1       2.684   4.059  18.563  0.00  0.00    +0.000 C 
ATOM      8  C   UNL     1       1.187   3.810  18.759  0.00  0.00    +0.000 C 
ATOM      9  C   UNL     1       0.899   4.004  20.261  0.00  0.00    +0.000 C 
ATOM     10  C   UNL     1       1.617   2.786  20.897  0.00  0.00    +0.000 C 
ATOM     11  C   UNL     1       2.170   2.024  19.662  0.00  0.00    +0.000 C 
ATOM     12  C   UNL     1       1.039   2.281  18.657  0.00  0.00    +0.000 C 
ATOM     13  C   UNL     1       3.345   2.842  19.116  0.00  0.00    +0.000 C 
ENDBRANCH   5   6
BRANCH   3  14
ATOM     14  C   UNL     1       6.625   4.454  14.086  0.00  0.00    +0.000 A 
ATOM     15  C   UNL     1       6.229   3.624  13.052  0.00  0.00    +0.000 A 
ATOM     16  C   UNL     1       6.960   4.013  11.907  0.00  0.00    +0.000 A 
ATOM     17  C   UNL     1       7.756   5.061  12.307  0.00  0.00    +0.000 A 
ATOM     18  O   UNL     1       7.542   5.356  13.614  0.00  0.00    +0.000 OA
ENDBRANCH   3  14
BRANCH   1  20
ATOM     19  C   UNL     1       7.560   5.553  19.023  0.00  0.00    +0.000 C 
ATOM     20  C   UNL     1       6.157   4.948  18.916  0.00  0.00    +0.000 C 
ATOM     21  C   UNL     1       5.114   5.936  19.448  0.00  0.00    +0.000 C 
ENDBRANCH   1  20
TORSDOF 3
ENDMDL
MODEL 4
REMARK VINA RESULT:      -7.6      0.732      1.190
REMARK  Name = 
REMARK  5 active torsions:
REMARK  status: ('A' for Active; 'I' for Inactive)
REMARK    1  A    between atoms: C_1  and  C_2
REMARK    2  A    between atoms: C_2  and  C_3
REMARK    3  A    between atoms: C_2  and  N_4
REMARK    4  A    between atoms: C_6  and  C_7
REMARK    5  A    between atoms: C_13  and  C_14
REMARK                            x       y       z     vdW  Elec       q    Type
REMARK                         _______ _______ _______ _____ _____    ______ ____
ROOT
ATOM      1  N   UNL     1       6.853   5.510  16.894  0.00  0.00    +0.000 N 
ATOM      2  N   UNL     1       7.351   5.241  15.661  0.00  0.00    +0.000 NA
ATOM      3  C   UNL     1       6.327   4.617  15.072  0.00  0.00    +0.000 A 
ATOM      4  N   UNL     1       5.244   4.436  15.885  0.00  0.00    +0.000 NA
ATOM      5  C   UNL     1       5.592   4.983  17.029  0.00  0.00    +0.000 A 
ENDROOT
BRANCH   5   6
ATOM      6  C   UNL     1       4.565   4.946  18.152  0.00  0.00    +0.000 C 
ATOM      7  C   UNL     1       3.974   3.610  18.537  0.00  0.00    +0.000 C 
ATOM      8  C   UNL     1       3.417   3.335  19.935  0.00  0.00    +0.000 C 
ATOM      9  C   UNL     1       2.122   2.523  19.745  0.00  0.00    +0.000 C 
ATOM     10  C   UNL     1       1.167   3.565  19.107  0.00  0.00    +0.000 C 
ATOM     11  C   UNL     1       2.031   4.854  19.074  0.00  0.00    +0.000 C 
ATOM     12  C   UNL     1       2.821   4.685  20.379  0.00  0.00    +0.000 C 
ATOM     13  C   UNL     1       3.082   4.666  17.976  0.00  0.00    +0.000 C 
ENDBRANCH   5   6
BRANCH   3  14
ATOM     14  C   UNL     1       6.306   4.128  13.663  0.00  0.00    +0.000 A 
ATOM     15  C   UNL     1       5.263   3.411  13.106  0.00  0.00    +0.000 A 
ATOM     16  C   UNL     1       5.637   3.099  11.779  0.00  0.00    +0.000 A 
ATOM     17  C   UNL     1       6.885   3.650  11.602  0.00  0.00    +0.000 A 
ATOM     18  O   UNL     1       7.288   4.299  12.723  0.00  0.00    +0.000 OA
ENDBRANCH   3  14
BRANCH   1  20
ATOM     19  C   UNL     1       7.456   7.771  17.704  0.00  0.00    +0.000 C 
ATOM     20  C   UNL     1       7.681   6.262  17.828  0.00  0.00    +0.000 C 
ATOM     21  C   UNL     1       7.459   5.812  19.276  0.00  0.00    +0.000 C 
ENDBRANCH   1  20
TORSDOF 3
ENDMDL
MODEL 5
REMARK VINA RESULT:      -7.6      3.905      7.296
REMARK  Name = 
REMARK  5 active torsions:
REMARK  status: ('A' for Active; 'I' for Inactive)
REMARK    1  A    between atoms: C_1  and  C_2
REMARK    2  A    between atoms: C_2  and  C_3
REMARK    3  A    between atoms: C_2  and  N_4
REMARK    4  A    between atoms: C_6  and  C_7
REMARK    5  A    between atoms: C_13  and  C_14
REMARK                            x       y       z     vdW  Elec       q    Type
REMARK                         _______ _______ _______ _____ _____    ______ ____
ROOT
ATOM      1  N   UNL     1       2.465   4.737  19.954  0.00  0.00    +0.000 N 
ATOM      2  N   UNL     1       1.640   5.611  20.585  0.00  0.00    +0.000 NA
ATOM      3  C   UNL     1       2.066   6.789  20.120  0.00  0.00    +0.000 A 
ATOM      4  N   UNL     1       3.142   6.700  19.282  0.00  0.00    +0.000 NA
ATOM      5  C   UNL     1       3.394   5.412  19.200  0.00  0.00    +0.000 A 
ENDROOT
BRANCH   5   6
ATOM      6  C   UNL     1       4.554   4.990  18.309  0.00  0.00    +0.000 C 
ATOM      7  C   UNL     1       4.758   5.727  17.006  0.00  0.00    +0.000 C 
ATOM      8  C   UNL     1       6.126   5.821  16.327  0.00  0.00    +0.000 C 
ATOM      9  C   UNL     1       5.886   5.629  14.817  0.00  0.00    +0.000 C 
ATOM     10  C   UNL     1       5.475   4.137  14.733  0.00  0.00    +0.000 C 
ATOM     11  C   UNL     1       5.595   3.659  16.205  0.00  0.00    +0.000 C 
ATOM     12  C   UNL     1       6.809   4.480  16.659  0.00  0.00    +0.000 C 
ATOM     13  C   UNL     1       4.422   4.274  16.976  0.00  0.00    +0.000 C 
ENDBRANCH   5   6
BRANCH   3  14
ATOM     14  C   UNL     1       1.475   8.117  20.454  0.00  0.00    +0.000 A 
ATOM     15  C   UNL     1       1.097   8.501  21.727  0.00  0.00    +0.000 A 
ATOM     16  C   UNL     1       0.548   9.799  21.623  0.00  0.00    +0.000 A 
ATOM     17  C   UNL     1       0.629  10.134  20.291  0.00  0.00    +0.000 A 
ATOM     18  O   UNL     1       1.214   9.139  19.579  0.00  0.00    +0.000 OA
ENDBRANCH   3  14
BRANCH   1  20
ATOM     19  C   UNL     1       1.846   3.003  21.608  0.00  0.00    +0.000 C 
ATOM     20  C   UNL     1       2.257   3.311  20.166  0.00  0.00    +0.000 C 
ATOM     21  C   UNL     1       1.230   2.733  19.188  0.00  0.00    +0.000 C 
ENDBRANCH   1  20
TORSDOF 3
ENDMDL
MODEL 6
REMARK VINA RESULT:      -7.6      0.820      1.225
REMARK  Name = 
REMARK  5 active torsions:
REMARK  status: ('A' for Active; 'I' for Inactive)
REMARK    1  A    between atoms: C_1  and  C_2
REMARK    2  A    between atoms: C_2  and  C_3
REMARK    3  A    between atoms: C_2  and  N_4
REMARK    4  A    between atoms: C_6  and  C_7
REMARK    5  A    between atoms: C_13  and  C_14
REMARK                            x       y       z     vdW  Elec       q    Type
REMARK                         _______ _______ _______ _____ _____    ______ ____
ROOT
ATOM      1  N   UNL     1       6.774   5.025  17.145  0.00  0.00    +0.000 N 
ATOM      2  N   UNL     1       7.163   4.979  15.846  0.00  0.00    +0.000 NA
ATOM      3  C   UNL     1       6.193   4.252  15.286  0.00  0.00    +0.000 A 
ATOM      4  N   UNL     1       5.255   3.799  16.170  0.00  0.00    +0.000 NA
ATOM      5  C   UNL     1       5.639   4.275  17.334  0.00  0.00    +0.000 A 
ENDROOT
BRANCH   5   6
ATOM      6  C   UNL     1       4.769   3.941  18.538  0.00  0.00    +0.000 C 
ATOM      7  C   UNL     1       3.369   3.431  18.288  0.00  0.00    +0.000 C 
ATOM      8  C   UNL     1       2.628   2.550  19.297  0.00  0.00    +0.000 C 
ATOM      9  C   UNL     1       1.170   3.048  19.333  0.00  0.00    +0.000 C 
ATOM     10  C   UNL     1       1.311   4.437  20.007  0.00  0.00    +0.000 C 
ATOM     11  C   UNL     1       2.829   4.520  20.322  0.00  0.00    +0.000 C 
ATOM     12  C   UNL     1       3.114   3.053  20.669  0.00  0.00    +0.000 C 
ATOM     13  C   UNL     1       3.555   4.734  18.989  0.00  0.00    +0.000 C 
ENDBRANCH   5   6
BRANCH   3  14
ATOM     14  C   UNL     1       6.088   3.919  13.836  0.00  0.00    +0.000 A 
ATOM     15  C   UNL     1       7.146   3.976  12.947  0.00  0.00    +0.000 A 
ATOM     16  C   UNL     1       6.637   3.631  11.674  0.00  0.00    +0.000 A 
ATOM     17  C   UNL     1       5.298   3.379  11.862  0.00  0.00    +0.000 A 
ATOM     18  O   UNL     1       4.959   3.520  13.168  0.00  0.00    +0.000 OA
ENDBRANCH   3  14
BRANCH   1  20
ATOM     19  C   UNL     1       7.523   7.304  17.761  0.00  0.00    +0.000 C 
ATOM     20  C   UNL     1       7.572   5.807  18.081  0.00  0.00    +0.000 C 
ATOM     21  C   UNL     1       7.149   5.562  19.533  0.00  0.00    +0.000 C 
ENDBRANCH   1  20
TORSDOF 3
ENDMDL
MODEL 7
REMARK VINA RESULT:      -7.4      1.098      1.812
REMARK  Name = 
REMARK  5 active torsions:
REMARK  status: ('A' for Active; 'I' for Inactive)
REMARK    1  A    between atoms: C_1  and  C_2
REMARK    2  A    between atoms: C_2  and  C_3
REMARK    3  A    between atoms: C_2  and  N_4
REMARK    4  A    between atoms: C_6  and  C_7
REMARK    5  A    between atoms: C_13  and  C_14
REMARK                            x       y       z     vdW  Elec       q    Type
REMARK                         _______ _______ _______ _____ _____    ______ ____
ROOT
ATOM      1  N   UNL     1       6.864   5.780  16.741  0.00  0.00    +0.000 N 
ATOM      2  N   UNL     1       7.441   5.321  15.601  0.00  0.00    +0.000 NA
ATOM      3  C   UNL     1       6.403   4.787  14.953  0.00  0.00    +0.000 A 
ATOM      4  N   UNL     1       5.227   4.838  15.648  0.00  0.00    +0.000 NA
ATOM      5  C   UNL     1       5.532   5.446  16.773  0.00  0.00    +0.000 A 
ENDROOT
BRANCH   5   6
ATOM      6  C   UNL     1       4.401   5.665  17.769  0.00  0.00    +0.000 C 
ATOM      7  C   UNL     1       4.114   4.574  18.774  0.00  0.00    +0.000 C 
ATOM      8  C   UNL     1       3.455   4.862  20.125  0.00  0.00    +0.000 C 
ATOM      9  C   UNL     1       2.441   3.728  20.374  0.00  0.00    +0.000 C 
ATOM     10  C   UNL     1       1.355   4.012  19.305  0.00  0.00    +0.000 C 
ATOM     11  C   UNL     1       1.867   5.311  18.626  0.00  0.00    +0.000 C 
ATOM     12  C   UNL     1       2.486   6.024  19.836  0.00  0.00    +0.000 C 
ATOM     13  C   UNL     1       3.074   4.925  17.765  0.00  0.00    +0.000 C 
ENDBRANCH   5   6
BRANCH   3  14
ATOM     14  C   UNL     1       6.454   4.164  13.599  0.00  0.00    +0.000 A 
ATOM     15  C   UNL     1       7.389   4.486  12.631  0.00  0.00    +0.000 A 
ATOM     16  C   UNL     1       7.080   3.719  11.485  0.00  0.00    +0.000 A 
ATOM     17  C   UNL     1       5.977   2.969  11.822  0.00  0.00    +0.000 A 
ATOM     18  O   UNL     1       5.607   3.207  13.106  0.00  0.00    +0.000 OA
ENDBRANCH   3  14
BRANCH   1  20
ATOM     19  C   UNL     1       7.399   8.005  17.685  0.00  0.00    +0.000 C 
ATOM     20  C   UNL     1       7.693   6.502  17.696  0.00  0.00    +0.000 C 
ATOM     21  C   UNL     1       7.544   5.945  19.115  0.00  0.00    +0.000 C 
ENDBRANCH   1  20
TORSDOF 3
ENDMDL
MODEL 8
REMARK VINA RESULT:      -7.4      0.845      1.316
REMARK  Name = 
REMARK  5 active torsions:
REMARK  status: ('A' for Active; 'I' for Inactive)
REMARK    1  A    between atoms: C_1  and  C_2
REMARK    2  A    between atoms: C_2  and  C_3
REMARK    3  A    between atoms: C_2  and  N_4
REMARK    4  A    between atoms: C_6  and  C_7
REMARK    5  A    between atoms: C_13  and  C_14
REMARK                            x       y       z     vdW  Elec       q    Type
REMARK                         _______ _______ _______ _____ _____    ______ ____
ROOT
ATOM      1  N   UNL     1       6.350   5.359  17.106  0.00  0.00    +0.000 N 
ATOM      2  N   UNL     1       7.032   5.446  15.936  0.00  0.00    +0.000 NA
ATOM      3  C   UNL     1       6.377   4.577  15.161  0.00  0.00    +0.000 A 
ATOM      4  N   UNL     1       5.364   3.917  15.798  0.00  0.00    +0.000 NA
ATOM      5  C   UNL     1       5.369   4.402  17.020  0.00  0.00    +0.000 A 
ENDROOT
BRANCH   5   6
ATOM      6  C   UNL     1       4.323   3.856  17.984  0.00  0.00    +0.000 C 
ATOM      7  C   UNL     1       3.187   4.764  18.392  0.00  0.00    +0.000 C 
ATOM      8  C   UNL     1       1.831   4.220  18.848  0.00  0.00    +0.000 C 
ATOM      9  C   UNL     1       1.386   5.084  20.044  0.00  0.00    +0.000 C 
ATOM     10  C   UNL     1       2.399   4.673  21.145  0.00  0.00    +0.000 C 
ATOM     11  C   UNL     1       3.251   3.581  20.444  0.00  0.00    +0.000 C 
ATOM     12  C   UNL     1       2.174   2.909  19.581  0.00  0.00    +0.000 C 
ATOM     13  C   UNL     1       4.150   4.292  19.428  0.00  0.00    +0.000 C 
ENDBRANCH   5   6
BRANCH   3  14
ATOM     14  C   UNL     1       6.678   4.296  13.727  0.00  0.00    +0.000 A 
ATOM     15  C   UNL     1       7.533   5.057  12.950  0.00  0.00    +0.000 A 
ATOM     16  C   UNL     1       7.520   4.499  11.652  0.00  0.00    +0.000 A 
ATOM     17  C   UNL     1       6.660   3.426  11.714  0.00  0.00    +0.000 A 
ATOM     18  O   UNL     1       6.168   3.275  12.969  0.00  0.00    +0.000 OA
ENDBRANCH   3  14
BRANCH   1  20
ATOM     19  C   UNL     1       7.631   5.508  19.219  0.00  0.00    +0.000 C 
ATOM     20  C   UNL     1       6.742   6.232  18.204  0.00  0.00    +0.000 C 
ATOM     21  C   UNL     1       7.439   7.501  17.702  0.00  0.00    +0.000 C 
ENDBRANCH   1  20
TORSDOF 3
ENDMDL
MODEL 9
REMARK VINA RESULT:      -7.3      4.361      7.633
REMARK  Name = 
REMARK  5 active torsions:
REMARK  status: ('A' for Active; 'I' for Inactive)
REMARK    1  A    between atoms: C_1  and  C_2
REMARK    2  A    between atoms: C_2  and  C_3
REMARK    3  A    between atoms: C_2  and  N_4
REMARK    4  A    between atoms: C_6  and  C_7
REMARK    5  A    between atoms: C_13  and  C_14
REMARK                            x       y       z     vdW  Elec       q    Type
REMARK                         _______ _______ _______ _____ _____    ______ ____
ROOT
ATOM      1  N   UNL     1       2.289   5.641  19.794  0.00  0.00    +0.000 N 
ATOM      2  N   UNL     1       1.541   6.314  20.705  0.00  0.00    +0.000 NA
ATOM      3  C   UNL     1       1.659   7.578  20.288  0.00  0.00    +0.000 A 
ATOM      4  N   UNL     1       2.480   7.734  19.207  0.00  0.00    +0.000 NA
ATOM      5  C   UNL     1       2.883   6.516  18.918  0.00  0.00    +0.000 A 
ENDROOT
BRANCH   5   6
ATOM      6  C   UNL     1       3.819   6.363  17.727  0.00  0.00    +0.000 C 
ATOM      7  C   UNL     1       4.289   4.974  17.362  0.00  0.00    +0.000 C 
ATOM      8  C   UNL     1       4.722   4.605  15.942  0.00  0.00    +0.000 C 
ATOM      9  C   UNL     1       5.971   3.713  16.076  0.00  0.00    +0.000 C 
ATOM     10  C   UNL     1       7.037   4.711  16.596  0.00  0.00    +0.000 C 
ATOM     11  C   UNL     1       6.266   6.058  16.631  0.00  0.00    +0.000 C 
ATOM     12  C   UNL     1       5.372   5.890  15.396  0.00  0.00    +0.000 C 
ATOM     13  C   UNL     1       5.288   5.988  17.809  0.00  0.00    +0.000 C 
ENDBRANCH   5   6
BRANCH   3  14
ATOM     14  C   UNL     1       0.992   8.760  20.908  0.00  0.00    +0.000 A 
ATOM     15  C   UNL     1       0.342   8.733  22.129  0.00  0.00    +0.000 A 
ATOM     16  C   UNL     1      -0.188  10.026  22.344  0.00  0.00    +0.000 A 
ATOM     17  C   UNL     1       0.174  10.767  21.244  0.00  0.00    +0.000 A 
ATOM     18  O   UNL     1       0.912  10.023  20.382  0.00  0.00    +0.000 OA
ENDBRANCH   3  14
BRANCH   1  20
ATOM     19  C   UNL     1       2.172   3.698  21.324  0.00  0.00    +0.000 C 
ATOM     20  C   UNL     1       2.350   4.188  19.885  0.00  0.00    +0.000 C 
ATOM     21  C   UNL     1       1.324   3.516  18.967  0.00  0.00    +0.000 C 
ENDBRANCH   1  20
TORSDOF 3
ENDMDL
