MODEL 1
REMARK VINA RESULT:      -8.0      0.000      0.000
REMARK  Name = 
REMARK  6 active torsions:
REMARK  status: ('A' for Active; 'I' for Inactive)
REMARK    1  A    between atoms: C_5  and  C_6
REMARK    2  A    between atoms: C_6  and  N_7
REMARK    3  A    between atoms: C_9  and  N_10
REMARK    4  A    between atoms: N_10  and  C_11
REMARK    5  A    between atoms: C_11  and  C_12
REMARK    6  A    between atoms: C_12  and  N_13
REMARK                            x       y       z     vdW  Elec       q    Type
REMARK                         _______ _______ _______ _____ _____    ______ ____
ROOT
ATOM      1  N   UNL     1       6.689   5.647  17.121  0.00  0.00    +0.000 N 
ATOM      2  C   UNL     1       7.588   5.920  18.114  0.00  0.00    +0.000 A 
ATOM      3  C   UNL     1       7.827   7.264  17.963  0.00  0.00    +0.000 A 
ATOM      4  N   UNL     1       7.132   7.739  16.890  0.00  0.00    +0.000 NA
ATOM      5  N   UNL     1       6.457   6.731  16.355  0.00  0.00    +0.000 NA
ENDROOT
BRANCH   3   6
ATOM      6  N   UNL     1       8.554   8.036  18.793  0.00  0.00    +0.000 N 
ATOM      7  H   UNL     1       9.407   7.654  19.199  0.00  0.00    +0.000 HD
BRANCH   6   8
ATOM      8  C   UNL     1       8.661   9.461  18.485  0.00  0.00    +0.000 C 
BRANCH   8   9
ATOM      9  C   UNL     1       9.352  10.245  19.625  0.00  0.00    +0.000 C 
BRANCH   9  10
ATOM     10  N   UNL     1       9.895  11.578  19.260  0.00  0.00    +0.000 NA
ATOM     11  C   UNL     1      10.933  12.029  20.194  0.00  0.00    +0.000 C 
ATOM     12  C   UNL     1      10.899  13.553  20.337  0.00  0.00    +0.000 C 
ATOM     13  C   UNL     1      11.573  14.326  19.209  0.00  0.00    +0.000 C 
ATOM     14  C   UNL     1      11.038  14.020  17.815  0.00  0.00    +0.000 C 
ATOM     15  C   UNL     1      11.348  12.594  17.375  0.00  0.00    +0.000 C 
ATOM     16  C   UNL     1      10.343  11.541  17.855  0.00  0.00    +0.000 C 
ENDBRANCH   9  10
ENDBRANCH   8   9
ENDBRANCH   6   8
ENDBRANCH   3   6
BRANCH   1  17
ATOM     17  C   UNL     1       5.858   4.468  16.967  0.00  0.00    +0.000 C 
BRANCH  17  22
ATOM     18 CL   UNL     1       0.991   4.552  20.561  0.00  0.00    +0.000 Cl
ATOM     19  C   UNL     1       2.356   4.494  19.504  0.00  0.00    +0.000 A 
ATOM     20  C   UNL     1       3.280   5.539  19.574  0.00  0.00    +0.000 A 
ATOM     21  C   UNL     1       4.407   5.542  18.746  0.00  0.00    +0.000 A 
ATOM     22  C   UNL     1       4.622   4.501  17.831  0.00  0.00    +0.000 A 
ATOM     23  C   UNL     1       3.690   3.452  17.771  0.00  0.00    +0.000 A 
ATOM     24  C   UNL     1       2.562   3.447  18.601  0.00  0.00    +0.000 A 
ATOM     25 CL   UNL     1       1.473   2.113  18.461  0.00  0.00    +0.000 Cl
ENDBRANCH  17  22
ENDBRANCH   1  17
TORSDOF 6
ENDMDL
MODEL 2
REMARK VINA RESULT:      -7.9      1.503      2.104
REMARK  Name = 
REMARK  6 active torsions:
REMARK  status: ('A' for Active; 'I' for Inactive)
REMARK    1  A    between atoms: C_5  and  C_6
REMARK    2  A    between atoms: C_6  and  N_7
REMARK    3  A    between atoms: C_9  and  N_10
REMARK    4  A    between atoms: N_10  and  C_11
REMARK    5  A    between atoms: C_11  and  C_12
REMARK    6  A    between atoms: C_12  and  N_13
REMARK                            x       y       z     vdW  Elec       q    Type
REMARK                         _______ _______ _______ _____ _____    ______ ____
ROOT
ATOM      1  N   UNL     1       5.759   4.909  16.687  0.00  0.00    +0.000 N 
ATOM      2  C   UNL     1       5.622   6.167  17.204  0.00  0.00    +0.000 A 
ATOM      3  C   UNL     1       6.787   6.790  16.831  0.00  0.00    +0.000 A 
ATOM      4  N   UNL     1       7.590   5.909  16.168  0.00  0.00    +0.000 NA
ATOM      5  N   UNL     1       6.964   4.741  16.110  0.00  0.00    +0.000 NA
ENDROOT
BRANCH   3   6
ATOM      6  N   UNL     1       7.074   8.095  16.997  0.00  0.00    +0.000 N 
ATOM      7  H   UNL     1       6.309   8.768  17.017  0.00  0.00    +0.000 HD
BRANCH   6   8
ATOM      8  C   UNL     1       8.163   8.447  17.905  0.00  0.00    +0.000 C 
BRANCH   8   9
ATOM      9  C   UNL     1       8.123   9.941  18.301  0.00  0.00    +0.000 C 
BRANCH   9  10
ATOM     10  N   UNL     1       9.433  10.565  18.618  0.00  0.00    +0.000 NA
ATOM     11  C   UNL     1       9.681  11.772  17.822  0.00  0.00    +0.000 C 
ATOM     12  C   UNL     1      11.176  11.924  17.531  0.00  0.00    +0.000 C 
ATOM     13  C   UNL     1      12.004  12.502  18.672  0.00  0.00    +0.000 C 
ATOM     14  C   UNL     1      11.905  11.736  19.986  0.00  0.00    +0.000 C 
ATOM     15  C   UNL     1      10.515  11.821  20.605  0.00  0.00    +0.000 C 
ATOM     16  C   UNL     1       9.512  10.792  20.073  0.00  0.00    +0.000 C 
ENDBRANCH   9  10
ENDBRANCH   8   9
ENDBRANCH   6   8
ENDBRANCH   3   6
BRANCH   1  17
ATOM     17  C   UNL     1       4.733   3.898  16.511  0.00  0.00    +0.000 C 
BRANCH  17  22
ATOM     18 CL   UNL     1       1.882   2.428  21.642  0.00  0.00    +0.000 Cl
ATOM     19  C   UNL     1       2.649   2.856  20.154  0.00  0.00    +0.000 A 
ATOM     20  C   UNL     1       4.000   3.211  20.196  0.00  0.00    +0.000 A 
ATOM     21  C   UNL     1       4.675   3.562  19.022  0.00  0.00    +0.000 A 
ATOM     22  C   UNL     1       4.005   3.569  17.790  0.00  0.00    +0.000 A 
ATOM     23  C   UNL     1       2.648   3.205  17.758  0.00  0.00    +0.000 A 
ATOM     24  C   UNL     1       1.972   2.852  18.932  0.00  0.00    +0.000 A 
ATOM     25 CL   UNL     1       0.306   2.415  18.794  0.00  0.00    +0.000 Cl
ENDBRANCH  17  22
ENDBRANCH   1  17
TORSDOF 6
ENDMDL
MODEL 3
REMARK VINA RESULT:      -7.7      1.137      1.691
REMARK  Name = 
REMARK  6 active torsions:
REMARK  status: ('A' for Active; 'I' for Inactive)
REMARK    1  A    between atoms: C_5  and  C_6
REMARK    2  A    between atoms: C_6  and  N_7
REMARK    3  A    between atoms: C_9  and  N_10
REMARK    4  A    between atoms: N_10  and  C_11
REMARK    5  A    between atoms: C_11  and  C_12
REMARK    6  A    between atoms: C_12  and  N_13
REMARK                            x       y       z     vdW  Elec       q    Type
REMARK                         _______ _______ _______ _____ _____    ______ ____
ROOT
ATOM      1  N   UNL     1       6.015   5.147  16.610  0.00  0.00    +0.000 N 
ATOM      2  C   UNL     1       7.027   5.351  17.506  0.00  0.00    +0.000 A 
ATOM      3  C   UNL     1       7.213   6.711  17.467  0.00  0.00    +0.000 A 
ATOM      4  N   UNL     1       6.377   7.265  16.543  0.00  0.00    +0.000 NA
ATOM      5  N   UNL     1       5.662   6.292  15.995  0.00  0.00    +0.000 NA
ENDROOT
BRANCH   3   6
ATOM      6  N   UNL     1       8.022   7.422  18.275  0.00  0.00    +0.000 N 
ATOM      7  H   UNL     1       8.874   6.987  18.624  0.00  0.00    +0.000 HD
BRANCH   6   8
ATOM      8  C   UNL     1       8.185   8.848  17.999  0.00  0.00    +0.000 C 
BRANCH   8   9
ATOM      9  C   UNL     1       9.088   9.538  19.048  0.00  0.00    +0.000 C 
BRANCH   9  10
ATOM     10  N   UNL     1       9.263  11.004  18.891  0.00  0.00    +0.000 NA
ATOM     11  C   UNL     1       9.611  11.660  20.156  0.00  0.00    +0.000 C 
ATOM     12  C   UNL     1       9.023  13.073  20.207  0.00  0.00    +0.000 C 
ATOM     13  C   UNL     1       9.806  14.130  19.439  0.00  0.00    +0.000 C 
ATOM     14  C   UNL     1      10.028  13.816  17.963  0.00  0.00    +0.000 C 
ATOM     15  C   UNL     1      10.941  12.614  17.756  0.00  0.00    +0.000 C 
ATOM     16  C   UNL     1      10.234  11.255  17.810  0.00  0.00    +0.000 C 
ENDBRANCH   9  10
ENDBRANCH   8   9
ENDBRANCH   6   8
ENDBRANCH   3   6
BRANCH   1  17
ATOM     17  C   UNL     1       5.198   3.959  16.439  0.00  0.00    +0.000 C 
BRANCH  17  22
ATOM     18 CL   UNL     1       1.124   3.118  20.833  0.00  0.00    +0.000 Cl
ATOM     19  C   UNL     1       2.297   3.406  19.597  0.00  0.00    +0.000 A 
ATOM     20  C   UNL     1       2.816   2.299  18.920  0.00  0.00    +0.000 A 
ATOM     21  C   UNL     1       3.764   2.472  17.907  0.00  0.00    +0.000 A 
ATOM     22  C   UNL     1       4.212   3.756  17.562  0.00  0.00    +0.000 A 
ATOM     23  C   UNL     1       3.681   4.862  18.246  0.00  0.00    +0.000 A 
ATOM     24  C   UNL     1       2.730   4.690  19.259  0.00  0.00    +0.000 A 
ATOM     25 CL   UNL     1       2.131   6.110  20.041  0.00  0.00    +0.000 Cl
ENDBRANCH  17  22
ENDBRANCH   1  17
TORSDOF 6
ENDMDL
MODEL 4
REMARK VINA RESULT:      -7.7      5.487      7.606
REMARK  Name = 
REMARK  6 active torsions:
REMARK  status: ('A' for Active; 'I' for Inactive)
REMARK    1  A    between atoms: C_5  and  C_6
REMARK    2  A    between atoms: C_6  and  N_7
REMARK    3  A    between atoms: C_9  and  N_10
REMARK    4  A    between atoms: N_10  and  C_11
REMARK    5  A    between atoms: C_11  and  C_12
REMARK    6  A    between atoms: C_12  and  N_13
REMARK                            x       y       z     vdW  Elec       q    Type
REMARK                         _______ _______ _______ _____ _____    ______ ____
ROOT
ATOM      1  N   UNL     1       3.576   3.092  17.358  0.00  0.00    +0.000 N 
ATOM      2  C   UNL     1       2.432   3.806  17.578  0.00  0.00    +0.000 A 
ATOM      3  C   UNL     1       1.953   3.282  18.754  0.00  0.00    +0.000 A 
ATOM      4  N   UNL     1       2.763   2.266  19.170  0.00  0.00    +0.000 NA
ATOM      5  N   UNL     1       3.745   2.132  18.288  0.00  0.00    +0.000 NA
ENDROOT
BRANCH   3   6
ATOM      6  N   UNL     1       0.903   3.747  19.457  0.00  0.00    +0.000 N 
ATOM      7  H   UNL     1       0.059   3.179  19.513  0.00  0.00    +0.000 HD
BRANCH   6   8
ATOM      8  C   UNL     1       1.176   4.481  20.691  0.00  0.00    +0.000 C 
BRANCH   8   9
ATOM      9  C   UNL     1       2.249   5.575  20.484  0.00  0.00    +0.000 C 
BRANCH   9  10
ATOM     10  N   UNL     1       1.785   6.826  19.833  0.00  0.00    +0.000 NA
ATOM     11  C   UNL     1       1.794   7.967  20.755  0.00  0.00    +0.000 C 
ATOM     12  C   UNL     1       0.659   8.938  20.418  0.00  0.00    +0.000 C 
ATOM     13  C   UNL     1       0.931   9.875  19.248  0.00  0.00    +0.000 C 
ATOM     14  C   UNL     1       1.295   9.179  17.941  0.00  0.00    +0.000 C 
ATOM     15  C   UNL     1       2.638   8.463  18.019  0.00  0.00    +0.000 C 
ATOM     16  C   UNL     1       2.578   7.049  18.611  0.00  0.00    +0.000 C 
ENDBRANCH   9  10
ENDBRANCH   8   9
ENDBRANCH   6   8
ENDBRANCH   3   6
BRANCH   1  17
ATOM     17  C   UNL     1       4.653   3.391  16.432  0.00  0.00    +0.000 C 
BRANCH  17  22
ATOM     18 CL   UNL     1       7.778   8.403  17.745  0.00  0.00    +0.000 Cl
ATOM     19  C   UNL     1       6.898   6.953  17.417  0.00  0.00    +0.000 A 
ATOM     20  C   UNL     1       5.943   6.985  16.397  0.00  0.00    +0.000 A 
ATOM     21  C   UNL     1       5.205   5.840  16.084  0.00  0.00    +0.000 A 
ATOM     22  C   UNL     1       5.408   4.646  16.792  0.00  0.00    +0.000 A 
ATOM     23  C   UNL     1       6.374   4.622  17.812  0.00  0.00    +0.000 A 
ATOM     24  C   UNL     1       7.114   5.768  18.125  0.00  0.00    +0.000 A 
ATOM     25 CL   UNL     1       8.284   5.642  19.391  0.00  0.00    +0.000 Cl
ENDBRANCH  17  22
ENDBRANCH   1  17
TORSDOF 6
ENDMDL
MODEL 5
REMARK VINA RESULT:      -7.6      0.693      1.379
REMARK  Name = 
REMARK  6 active torsions:
REMARK  status: ('A' for Active; 'I' for Inactive)
REMARK    1  A    between atoms: C_5  and  C_6
REMARK    2  A    between atoms: C_6  and  N_7
REMARK    3  A    between atoms: C_9  and  N_10
REMARK    4  A    between atoms: N_10  and  C_11
REMARK    5  A    between atoms: C_11  and  C_12
REMARK    6  A    between atoms: C_12  and  N_13
REMARK                            x       y       z     vdW  Elec       q    Type
REMARK                         _______ _______ _______ _____ _____    ______ ____
ROOT
ATOM      1  N   UNL     1       6.238   5.644  16.713  0.00  0.00    +0.000 N 
ATOM      2  C   UNL     1       7.274   5.782  17.594  0.00  0.00    +0.000 A 
ATOM      3  C   UNL     1       7.485   7.138  17.623  0.00  0.00    +0.000 A 
ATOM      4  N   UNL     1       6.638   7.757  16.751  0.00  0.00    +0.000 NA
ATOM      5  N   UNL     1       5.892   6.827  16.169  0.00  0.00    +0.000 NA
ENDROOT
BRANCH   3   6
ATOM      6  N   UNL     1       8.326   7.790  18.448  0.00  0.00    +0.000 N 
ATOM      7  H   UNL     1       9.170   7.316  18.764  0.00  0.00    +0.000 HD
BRANCH   6   8
ATOM      8  C   UNL     1       8.526   9.222  18.232  0.00  0.00    +0.000 C 
BRANCH   8   9
ATOM      9  C   UNL     1       9.128   9.914  19.477  0.00  0.00    +0.000 C 
BRANCH   9  10
ATOM     10  N   UNL     1       9.911  11.148  19.219  0.00  0.00    +0.000 NA
ATOM     11  C   UNL     1       9.216  12.067  18.310  0.00  0.00    +0.000 C 
ATOM     12  C   UNL     1      10.223  12.837  17.452  0.00  0.00    +0.000 C 
ATOM     13  C   UNL     1      10.893  14.019  18.140  0.00  0.00    +0.000 C 
ATOM     14  C   UNL     1      11.617  13.678  19.438  0.00  0.00    +0.000 C 
ATOM     15  C   UNL     1      10.658  13.244  20.541  0.00  0.00    +0.000 C 
ATOM     16  C   UNL     1      10.275  11.760  20.510  0.00  0.00    +0.000 C 
ENDBRANCH   9  10
ENDBRANCH   8   9
ENDBRANCH   6   8
ENDBRANCH   3   6
BRANCH   1  17
ATOM     17  C   UNL     1       5.395   4.483  16.498  0.00  0.00    +0.000 C 
BRANCH  17  22
ATOM     18 CL   UNL     1       0.775   4.290  20.402  0.00  0.00    +0.000 Cl
ATOM     19  C   UNL     1       2.083   4.296  19.273  0.00  0.00    +0.000 A 
ATOM     20  C   UNL     1       2.595   5.534  18.873  0.00  0.00    +0.000 A 
ATOM     21  C   UNL     1       3.657   5.599  17.966  0.00  0.00    +0.000 A 
ATOM     22  C   UNL     1       4.218   4.427  17.440  0.00  0.00    +0.000 A 
ATOM     23  C   UNL     1       3.700   3.187  17.851  0.00  0.00    +0.000 A 
ATOM     24  C   UNL     1       2.638   3.120  18.761  0.00  0.00    +0.000 A 
ATOM     25 CL   UNL     1       2.071   1.552  19.213  0.00  0.00    +0.000 Cl
ENDBRANCH  17  22
ENDBRANCH   1  17
TORSDOF 6
ENDMDL
MODEL 6
REMARK VINA RESULT:      -7.6      1.309      2.264
REMARK  Name = 
REMARK  6 active torsions:
REMARK  status: ('A' for Active; 'I' for Inactive)
REMARK    1  A    between atoms: C_5  and  C_6
REMARK    2  A    between atoms: C_6  and  N_7
REMARK    3  A    between atoms: C_9  and  N_10
REMARK    4  A    between atoms: N_10  and  C_11
REMARK    5  A    between atoms: C_11  and  C_12
REMARK    6  A    between atoms: C_12  and  N_13
REMARK                            x       y       z     vdW  Elec       q    Type
REMARK                         _______ _______ _______ _____ _____    ______ ____
ROOT
ATOM      1  N   UNL     1       5.511   5.010  16.538  0.00  0.00    +0.000 N 
ATOM      2  C   UNL     1       6.445   5.231  17.511  0.00  0.00    +0.000 A 
ATOM      3  C   UNL     1       6.760   6.557  17.352  0.00  0.00    +0.000 A 
ATOM      4  N   UNL     1       6.073   7.072  16.292  0.00  0.00    +0.000 NA
ATOM      5  N   UNL     1       5.328   6.104  15.774  0.00  0.00    +0.000 NA
ENDROOT
BRANCH   3   6
ATOM      6  N   UNL     1       7.550   7.286  18.164  0.00  0.00    +0.000 N 
ATOM      7  H   UNL     1       7.956   6.840  18.984  0.00  0.00    +0.000 HD
BRANCH   6   8
ATOM      8  C   UNL     1       8.441   8.269  17.552  0.00  0.00    +0.000 C 
BRANCH   8   9
ATOM      9  C   UNL     1       8.080   9.713  17.970  0.00  0.00    +0.000 C 
BRANCH   9  10
ATOM     10  N   UNL     1       9.217  10.574  18.383  0.00  0.00    +0.000 NA
ATOM     11  C   UNL     1       9.059  11.959  17.926  0.00  0.00    +0.000 C 
ATOM     12  C   UNL     1      10.423  12.582  17.618  0.00  0.00    +0.000 C 
ATOM     13  C   UNL     1      11.204  13.067  18.832  0.00  0.00    +0.000 C 
ATOM     14  C   UNL     1      11.454  12.007  19.899  0.00  0.00    +0.000 C 
ATOM     15  C   UNL     1      10.168  11.555  20.580  0.00  0.00    +0.000 C 
ATOM     16  C   UNL     1       9.403  10.452  19.840  0.00  0.00    +0.000 C 
ENDBRANCH   9  10
ENDBRANCH   8   9
ENDBRANCH   6   8
ENDBRANCH   3   6
BRANCH   1  17
ATOM     17  C   UNL     1       4.608   3.882  16.404  0.00  0.00    +0.000 C 
BRANCH  17  22
ATOM     18 CL   UNL     1       1.255   2.790  21.321  0.00  0.00    +0.000 Cl
ATOM     19  C   UNL     1       2.221   3.150  19.935  0.00  0.00    +0.000 A 
ATOM     20  C   UNL     1       2.742   2.078  19.206  0.00  0.00    +0.000 A 
ATOM     21  C   UNL     1       3.526   2.310  18.072  0.00  0.00    +0.000 A 
ATOM     22  C   UNL     1       3.805   3.619  17.653  0.00  0.00    +0.000 A 
ATOM     23  C   UNL     1       3.272   4.691  18.389  0.00  0.00    +0.000 A 
ATOM     24  C   UNL     1       2.485   4.459  19.525  0.00  0.00    +0.000 A 
ATOM     25 CL   UNL     1       1.869   5.839  20.364  0.00  0.00    +0.000 Cl
ENDBRANCH  17  22
ENDBRANCH   1  17
TORSDOF 6
ENDMDL
MODEL 7
REMARK VINA RESULT:      -7.5      5.373      7.535
REMARK  Name = 
REMARK  6 active torsions:
REMARK  status: ('A' for Active; 'I' for Inactive)
REMARK    1  A    between atoms: C_5  and  C_6
REMARK    2  A    between atoms: C_6  and  N_7
REMARK    3  A    between atoms: C_9  and  N_10
REMARK    4  A    between atoms: N_10  and  C_11
REMARK    5  A    between atoms: C_11  and  C_12
REMARK    6  A    between atoms: C_12  and  N_13
REMARK                            x       y       z     vdW  Elec       q    Type
REMARK                         _______ _______ _______ _____ _____    ______ ____
ROOT
ATOM      1  N   UNL     1       1.784   3.964  20.579  0.00  0.00    +0.000 N 
ATOM      2  C   UNL     1       2.794   3.144  20.159  0.00  0.00    +0.000 A 
ATOM      3  C   UNL     1       2.177   2.326  19.245  0.00  0.00    +0.000 A 
ATOM      4  N   UNL     1       0.848   2.627  19.179  0.00  0.00    +0.000 NA
ATOM      5  N   UNL     1       0.605   3.617  20.027  0.00  0.00    +0.000 NA
ENDROOT
BRANCH   3   6
ATOM      6  N   UNL     1       2.786   1.423  18.453  0.00  0.00    +0.000 N 
ATOM      7  H   UNL     1       2.217   0.737  17.961  0.00  0.00    +0.000 HD
BRANCH   6   8
ATOM      8  C   UNL     1       3.942   1.865  17.676  0.00  0.00    +0.000 C 
BRANCH   8   9
ATOM      9  C   UNL     1       3.702   3.244  17.020  0.00  0.00    +0.000 C 
BRANCH   9  10
ATOM     10  N   UNL     1       4.770   4.255  17.222  0.00  0.00    +0.000 NA
ATOM     11  C   UNL     1       5.548   4.005  18.441  0.00  0.00    +0.000 C 
ATOM     12  C   UNL     1       6.017   5.325  19.058  0.00  0.00    +0.000 C 
ATOM     13  C   UNL     1       7.241   5.950  18.401  0.00  0.00    +0.000 C 
ATOM     14  C   UNL     1       7.103   6.208  16.904  0.00  0.00    +0.000 C 
ATOM     15  C   UNL     1       7.006   4.917  16.100  0.00  0.00    +0.000 C 
ATOM     16  C   UNL     1       5.595   4.327  16.002  0.00  0.00    +0.000 C 
ENDBRANCH   9  10
ENDBRANCH   8   9
ENDBRANCH   6   8
ENDBRANCH   3   6
BRANCH   1  17
ATOM     17  C   UNL     1       1.891   5.208  21.319  0.00  0.00    +0.000 C 
BRANCH  17  22
ATOM     18 CL   UNL     1       1.985  10.119  17.785  0.00  0.00    +0.000 Cl
ATOM     19  C   UNL     1       1.921   8.738  18.823  0.00  0.00    +0.000 A 
ATOM     20  C   UNL     1       2.467   7.542  18.351  0.00  0.00    +0.000 A 
ATOM     21  C   UNL     1       2.448   6.394  19.150  0.00  0.00    +0.000 A 
ATOM     22  C   UNL     1       1.875   6.425  20.430  0.00  0.00    +0.000 A 
ATOM     23  C   UNL     1       1.332   7.635  20.897  0.00  0.00    +0.000 A 
ATOM     24  C   UNL     1       1.353   8.785  20.098  0.00  0.00    +0.000 A 
ATOM     25 CL   UNL     1       0.666  10.227  20.759  0.00  0.00    +0.000 Cl
ENDBRANCH  17  22
ENDBRANCH   1  17
TORSDOF 6
ENDMDL
MODEL 8
REMARK VINA RESULT:      -7.4      1.307      1.929
REMARK  Name = 
REMARK  6 active torsions:
REMARK  status: ('A' for Active; 'I' for Inactive)
REMARK    1  A    between atoms: C_5  and  C_6
REMARK    2  A    between atoms: C_6  and  N_7
REMARK    3  A    between atoms: C_9  and  N_10
REMARK    4  A    between atoms: N_10  and  C_11
REMARK    5  A    between atoms: C_11  and  C_12
REMARK    6  A    between atoms: C_12  and  N_13
REMARK                            x       y       z     vdW  Elec       q    Type
REMARK                         _______ _______ _______ _____ _____    ______ ____
ROOT
ATOM      1  N   UNL     1       7.240   5.798  17.645  0.00  0.00    +0.000 N 
ATOM      2  C   UNL     1       7.916   6.324  18.710  0.00  0.00    +0.000 A 
ATOM      3  C   UNL     1       8.178   7.612  18.314  0.00  0.00    +0.000 A 
ATOM      4  N   UNL     1       7.718   7.808  17.045  0.00  0.00    +0.000 NA
ATOM      5  N   UNL     1       7.168   6.676  16.625  0.00  0.00    +0.000 NA
ENDROOT
BRANCH   3   6
ATOM      6  N   UNL     1       8.719   8.580  19.078  0.00  0.00    +0.000 N 
ATOM      7  H   UNL     1       9.476   8.337  19.716  0.00  0.00    +0.000 HD
BRANCH   6   8
ATOM      8  C   UNL     1       8.875   9.909  18.491  0.00  0.00    +0.000 C 
BRANCH   8   9
ATOM      9  C   UNL     1       9.827  10.798  19.324  0.00  0.00    +0.000 C 
BRANCH   9  10
ATOM     10  N   UNL     1      10.027  12.182  18.825  0.00  0.00    +0.000 NA
ATOM     11  C   UNL     1       8.935  13.078  19.220  0.00  0.00    +0.000 C 
ATOM     12  C   UNL     1       8.697  14.141  18.145  0.00  0.00    +0.000 C 
ATOM     13  C   UNL     1       9.670  15.313  18.163  0.00  0.00    +0.000 C 
ATOM     14  C   UNL     1      11.141  14.925  18.057  0.00  0.00    +0.000 C 
ATOM     15  C   UNL     1      11.630  14.162  19.282  0.00  0.00    +0.000 C 
ATOM     16  C   UNL     1      11.358  12.653  19.249  0.00  0.00    +0.000 C 
ENDBRANCH   9  10
ENDBRANCH   8   9
ENDBRANCH   6   8
ENDBRANCH   3   6
BRANCH   1  17
ATOM     17  C   UNL     1       6.460   4.576  17.595  0.00  0.00    +0.000 C 
BRANCH  17  22
ATOM     18 CL   UNL     1       1.248   4.832  20.658  0.00  0.00    +0.000 Cl
ATOM     19  C   UNL     1       2.737   4.811  19.783  0.00  0.00    +0.000 A 
ATOM     20  C   UNL     1       3.494   3.637  19.811  0.00  0.00    +0.000 A 
ATOM     21  C   UNL     1       4.705   3.561  19.116  0.00  0.00    +0.000 A 
ATOM     22  C   UNL     1       5.179   4.661  18.388  0.00  0.00    +0.000 A 
ATOM     23  C   UNL     1       4.409   5.836  18.361  0.00  0.00    +0.000 A 
ATOM     24  C   UNL     1       3.195   5.913  19.055  0.00  0.00    +0.000 A 
ATOM     25 CL   UNL     1       2.313   7.396  18.961  0.00  0.00    +0.000 Cl
ENDBRANCH  17  22
ENDBRANCH   1  17
TORSDOF 6
ENDMDL
MODEL 9
REMARK VINA RESULT:      -7.3      5.410      8.043
REMARK  Name = 
REMARK  6 active torsions:
REMARK  status: ('A' for Active; 'I' for Inactive)
REMARK    1  A    between atoms: C_5  and  C_6
REMARK    2  A    between atoms: C_6  and  N_7
REMARK    3  A    between atoms: C_9  and  N_10
REMARK    4  A    between atoms: N_10  and  C_11
REMARK    5  A    between atoms: C_11  and  C_12
REMARK    6  A    between atoms: C_12  and  N_13
REMARK                            x       y       z     vdW  Elec       q    Type
REMARK                         _______ _______ _______ _____ _____    ______ ____
ROOT
ATOM      1  N   UNL     1       1.465   9.557  18.727  0.00  0.00    +0.000 N 
ATOM      2  C   UNL     1       1.480   8.428  19.497  0.00  0.00    +0.000 A 
ATOM      3  C   UNL     1       2.282   7.571  18.784  0.00  0.00    +0.000 A 
ATOM      4  N   UNL     1       2.673   8.165  17.620  0.00  0.00    +0.000 NA
ATOM      5  N   UNL     1       2.139   9.378  17.575  0.00  0.00    +0.000 NA
ENDROOT
BRANCH   3   6
ATOM      6  N   UNL     1       2.711   6.362  19.195  0.00  0.00    +0.000 N 
ATOM      7  H   UNL     1       2.766   6.175  20.195  0.00  0.00    +0.000 HD
BRANCH   6   8
ATOM      8  C   UNL     1       2.306   5.192  18.419  0.00  0.00    +0.000 C 
BRANCH   8   9
ATOM      9  C   UNL     1       3.479   4.616  17.593  0.00  0.00    +0.000 C 
BRANCH   9  10
ATOM     10  N   UNL     1       4.791   5.287  17.771  0.00  0.00    +0.000 NA
ATOM     11  C   UNL     1       5.705   4.505  18.610  0.00  0.00    +0.000 C 
ATOM     12  C   UNL     1       6.615   5.433  19.421  0.00  0.00    +0.000 C 
ATOM     13  C   UNL     1       7.801   6.008  18.657  0.00  0.00    +0.000 C 
ATOM     14  C   UNL     1       7.437   6.773  17.390  0.00  0.00    +0.000 C 
ATOM     15  C   UNL     1       6.849   5.868  16.314  0.00  0.00    +0.000 C 
ATOM     16  C   UNL     1       5.343   5.613  16.443  0.00  0.00    +0.000 C 
ENDBRANCH   9  10
ENDBRANCH   8   9
ENDBRANCH   6   8
ENDBRANCH   3   6
BRANCH   1  17
ATOM     17  C   UNL     1       1.025  10.889  19.103  0.00  0.00    +0.000 C 
BRANCH  17  22
ATOM     18 CL   UNL     1      -4.880  11.745  18.100  0.00  0.00    +0.000 Cl
ATOM     19  C   UNL     1      -3.189  11.483  18.337  0.00  0.00    +0.000 A 
ATOM     20  C   UNL     1      -2.569  12.145  19.401  0.00  0.00    +0.000 A 
ATOM     21  C   UNL     1      -1.204  11.966  19.644  0.00  0.00    +0.000 A 
ATOM     22  C   UNL     1      -0.437  11.127  18.822  0.00  0.00    +0.000 A 
ATOM     23  C   UNL     1      -1.071  10.462  17.758  0.00  0.00    +0.000 A 
ATOM     24  C   UNL     1      -2.438  10.639  17.515  0.00  0.00    +0.000 A 
ATOM     25 CL   UNL     1      -3.131   9.777  16.187  0.00  0.00    +0.000 Cl
ENDBRANCH  17  22
ENDBRANCH   1  17
TORSDOF 6
ENDMDL
