MODEL 1
REMARK VINA RESULT:      -8.5      0.000      0.000
REMARK  Name = 
REMARK  8 active torsions:
REMARK  status: ('A' for Active; 'I' for Inactive)
REMARK    1  A    between atoms: C_1  and  O_2
REMARK    2  A    between atoms: O_2  and  C_3
REMARK    3  A    between atoms: C_6  and  C_7
REMARK    4  A    between atoms: N_9  and  C_10
REMARK    5  A    between atoms: C_15  and  C_16
REMARK    6  A    between atoms: C_24  and  C_25
REMARK    7  A    between atoms: C_24  and  C_26
REMARK    8  A    between atoms: C_31  and  C_32
REMARK                            x       y       z     vdW  Elec       q    Type
REMARK                         _______ _______ _______ _____ _____    ______ ____
ROOT
ATOM      1  C   UNL     1       0.938   9.251  18.200  0.00  0.00    +0.000 A 
ATOM      2  C   UNL     1      -0.266   9.289  17.514  0.00  0.00    +0.000 A 
ATOM      3  C   UNL     1      -1.166  10.339  17.709  0.00  0.00    +0.000 A 
ATOM      4  C   UNL     1      -0.926  11.308  18.678  0.00  0.00    +0.000 A 
ATOM      5  F   UNL     1      -1.790  12.321  18.801  0.00  0.00    +0.000 F 
ATOM      6  C   UNL     1       0.147  11.192  19.552  0.00  0.00    +0.000 A 
ATOM      7  C   UNL     1       1.084  10.123  19.283  0.00  0.00    +0.000 A 
ENDROOT
BRANCH   6   8
ATOM      8  C   UNL     1       0.247  12.049  20.856  0.00  0.00    +0.000 C 
ATOM      9  C   UNL     1      -0.068  10.969  21.929  0.00  0.00    +0.000 C 
ATOM     10  O   UNL     1      -0.644  11.540  23.098  0.00  0.00    +0.000 OA
ATOM     11  C   UNL     1      -1.027  12.878  22.809  0.00  0.00    +0.000 C 
ATOM     12  C   UNL     1      -0.685  13.186  21.357  0.00  0.00    +0.000 C 
ATOM     13  S   UNL     1       0.089  14.832  21.403  0.00  0.00    +0.000 S 
ATOM     14  O   UNL     1       1.065  14.935  22.484  0.00  0.00    +0.000 OA
ATOM     15  O   UNL     1      -0.972  15.810  21.345  0.00  0.00    +0.000 OA
ATOM     16  C   UNL     1       0.986  14.892  19.837  0.00  0.00    +0.000 C 
ATOM     17  C   UNL     1       2.022  16.023  19.818  0.00  0.00    +0.000 C 
ATOM     18  C   UNL     1      -0.042  15.084  18.725  0.00  0.00    +0.000 C 
ATOM     19  C   UNL     1       1.755  13.568  19.790  0.00  0.00    +0.000 C 
ATOM     20  N   UNL     1       2.525  13.269  18.792  0.00  0.00    +0.000 NA
ATOM     21  N   UNL     1       1.586  12.649  20.814  0.00  0.00    +0.000 N 
ATOM     22  H   UNL     1       2.507  14.000  18.069  0.00  0.00    +0.000 HD
ATOM     23  H   UNL     1       2.338  11.966  20.832  0.00  0.00    +0.000 HD
ENDBRANCH   6   8
BRANCH   1  26
ATOM     24  C   UNL     1       2.518   7.361  18.543  0.00  0.00    +0.000 C 
ATOM     25  O   UNL     1       2.212   7.140  19.706  0.00  0.00    +0.000 OA
ATOM     26  N   UNL     1       2.023   8.426  17.779  0.00  0.00    +0.000 N 
ATOM     27  H   UNL     1       2.290   8.415  16.795  0.00  0.00    +0.000 HD
BRANCH  24  31
ATOM     28  C   UNL     1       5.308   4.763  16.614  0.00  0.00    +0.000 A 
ATOM     29  C   UNL     1       5.532   6.112  16.859  0.00  0.00    +0.000 A 
ATOM     30  N   UNL     1       4.641   6.952  17.450  0.00  0.00    +0.000 NA
ATOM     31  C   UNL     1       3.452   6.404  17.841  0.00  0.00    +0.000 A 
ATOM     32  C   UNL     1       3.120   5.052  17.624  0.00  0.00    +0.000 A 
ATOM     33  C   UNL     1       1.841   4.375  18.032  0.00  0.00    +0.000 C 
ATOM     34  C   UNL     1       4.092   4.235  17.024  0.00  0.00    +0.000 A 
BRANCH  28  36
ATOM     35  C   UNL     1       6.266   4.006  14.597  0.00  0.00    +0.000 C 
ATOM     36  O   UNL     1       6.311   4.053  16.023  0.00  0.00    +0.000 OA
ENDBRANCH  28  36
ENDBRANCH  24  31
ENDBRANCH   1  26
TORSDOF 4
ENDMDL
MODEL 2
REMARK VINA RESULT:      -7.9      3.578      9.368
REMARK  Name = 
REMARK  8 active torsions:
REMARK  status: ('A' for Active; 'I' for Inactive)
REMARK    1  A    between atoms: C_1  and  O_2
REMARK    2  A    between atoms: O_2  and  C_3
REMARK    3  A    between atoms: C_6  and  C_7
REMARK    4  A    between atoms: N_9  and  C_10
REMARK    5  A    between atoms: C_15  and  C_16
REMARK    6  A    between atoms: C_24  and  C_25
REMARK    7  A    between atoms: C_24  and  C_26
REMARK    8  A    between atoms: C_31  and  C_32
REMARK                            x       y       z     vdW  Elec       q    Type
REMARK                         _______ _______ _______ _____ _____    ______ ____
ROOT
ATOM      1  C   UNL     1       2.308   6.950  19.486  0.00  0.00    +0.000 A 
ATOM      2  C   UNL     1       1.490   5.863  19.745  0.00  0.00    +0.000 A 
ATOM      3  C   UNL     1       2.036   4.602  19.999  0.00  0.00    +0.000 A 
ATOM      4  C   UNL     1       3.406   4.388  19.885  0.00  0.00    +0.000 A 
ATOM      5  F   UNL     1       3.892   3.178  20.181  0.00  0.00    +0.000 F 
ATOM      6  C   UNL     1       4.246   5.383  19.403  0.00  0.00    +0.000 A 
ATOM      7  C   UNL     1       3.652   6.686  19.204  0.00  0.00    +0.000 A 
ENDROOT
BRANCH   6   8
ATOM      8  C   UNL     1       5.705   5.075  18.932  0.00  0.00    +0.000 C 
ATOM      9  C   UNL     1       6.406   4.860  20.303  0.00  0.00    +0.000 C 
ATOM     10  O   UNL     1       7.792   5.173  20.241  0.00  0.00    +0.000 OA
ATOM     11  C   UNL     1       8.048   5.866  19.028  0.00  0.00    +0.000 C 
ATOM     12  C   UNL     1       6.740   6.019  18.262  0.00  0.00    +0.000 C 
ATOM     13  S   UNL     1       7.156   5.587  16.545  0.00  0.00    +0.000 S 
ATOM     14  O   UNL     1       7.973   4.379  16.478  0.00  0.00    +0.000 OA
ATOM     15  O   UNL     1       7.653   6.783  15.906  0.00  0.00    +0.000 OA
ATOM     16  C   UNL     1       5.542   5.206  15.830  0.00  0.00    +0.000 C 
ATOM     17  C   UNL     1       5.672   4.449  14.501  0.00  0.00    +0.000 C 
ATOM     18  C   UNL     1       4.805   6.526  15.628  0.00  0.00    +0.000 C 
ATOM     19  C   UNL     1       4.898   4.249  16.838  0.00  0.00    +0.000 C 
ATOM     20  N   UNL     1       3.716   3.756  16.642  0.00  0.00    +0.000 NA
ATOM     21  N   UNL     1       5.575   3.941  18.008  0.00  0.00    +0.000 N 
ATOM     22  H   UNL     1       3.295   4.118  15.777  0.00  0.00    +0.000 HD
ATOM     23  H   UNL     1       5.205   3.102  18.446  0.00  0.00    +0.000 HD
ENDBRANCH   6   8
BRANCH   1  26
ATOM     24  C   UNL     1       1.579   9.099  18.467  0.00  0.00    +0.000 C 
ATOM     25  O   UNL     1       1.898   8.819  17.321  0.00  0.00    +0.000 OA
ATOM     26  N   UNL     1       1.836   8.293  19.584  0.00  0.00    +0.000 N 
ATOM     27  H   UNL     1       1.415   8.612  20.456  0.00  0.00    +0.000 HD
BRANCH  24  31
ATOM     28  C   UNL     1      -0.444  12.792  19.192  0.00  0.00    +0.000 A 
ATOM     29  C   UNL     1       0.837  12.497  19.642  0.00  0.00    +0.000 A 
ATOM     30  N   UNL     1       1.479  11.317  19.437  0.00  0.00    +0.000 NA
ATOM     31  C   UNL     1       0.804  10.372  18.718  0.00  0.00    +0.000 A 
ATOM     32  C   UNL     1      -0.504  10.564  18.231  0.00  0.00    +0.000 A 
ATOM     33  C   UNL     1      -1.306   9.579  17.426  0.00  0.00    +0.000 C 
ATOM     34  C   UNL     1      -1.104  11.813  18.463  0.00  0.00    +0.000 A 
BRANCH  28  36
ATOM     35  C   UNL     1       0.028  15.075  19.538  0.00  0.00    +0.000 C 
ATOM     36  O   UNL     1      -0.943  14.030  19.469  0.00  0.00    +0.000 OA
ENDBRANCH  28  36
ENDBRANCH  24  31
ENDBRANCH   1  26
TORSDOF 4
ENDMDL
MODEL 3
REMARK VINA RESULT:      -7.8      3.709      9.469
REMARK  Name = 
REMARK  8 active torsions:
REMARK  status: ('A' for Active; 'I' for Inactive)
REMARK    1  A    between atoms: C_1  and  O_2
REMARK    2  A    between atoms: O_2  and  C_3
REMARK    3  A    between atoms: C_6  and  C_7
REMARK    4  A    between atoms: N_9  and  C_10
REMARK    5  A    between atoms: C_15  and  C_16
REMARK    6  A    between atoms: C_24  and  C_25
REMARK    7  A    between atoms: C_24  and  C_26
REMARK    8  A    between atoms: C_31  and  C_32
REMARK                            x       y       z     vdW  Elec       q    Type
REMARK                         _______ _______ _______ _____ _____    ______ ____
ROOT
ATOM      1  C   UNL     1       2.311   6.871  19.550  0.00  0.00    +0.000 A 
ATOM      2  C   UNL     1       1.508   5.766  19.784  0.00  0.00    +0.000 A 
ATOM      3  C   UNL     1       2.073   4.508  20.006  0.00  0.00    +0.000 A 
ATOM      4  C   UNL     1       3.445   4.315  19.884  0.00  0.00    +0.000 A 
ATOM      5  F   UNL     1       3.949   3.106  20.150  0.00  0.00    +0.000 F 
ATOM      6  C   UNL     1       4.270   5.333  19.425  0.00  0.00    +0.000 A 
ATOM      7  C   UNL     1       3.658   6.632  19.259  0.00  0.00    +0.000 A 
ENDROOT
BRANCH   6   8
ATOM      8  C   UNL     1       5.733   5.057  18.944  0.00  0.00    +0.000 C 
ATOM      9  C   UNL     1       6.443   4.840  20.310  0.00  0.00    +0.000 C 
ATOM     10  O   UNL     1       7.824   5.178  20.245  0.00  0.00    +0.000 OA
ATOM     11  C   UNL     1       8.061   5.889  19.038  0.00  0.00    +0.000 C 
ATOM     12  C   UNL     1       6.747   6.027  18.280  0.00  0.00    +0.000 C 
ATOM     13  S   UNL     1       7.162   5.621  16.556  0.00  0.00    +0.000 S 
ATOM     14  O   UNL     1       8.001   4.429  16.472  0.00  0.00    +0.000 OA
ATOM     15  O   UNL     1       7.634   6.833  15.928  0.00  0.00    +0.000 OA
ATOM     16  C   UNL     1       5.552   5.218  15.844  0.00  0.00    +0.000 C 
ATOM     17  C   UNL     1       5.689   4.479  14.507  0.00  0.00    +0.000 C 
ATOM     18  C   UNL     1       4.790   6.527  15.660  0.00  0.00    +0.000 C 
ATOM     19  C   UNL     1       4.930   4.239  16.845  0.00  0.00    +0.000 C 
ATOM     20  N   UNL     1       3.756   3.728  16.649  0.00  0.00    +0.000 NA
ATOM     21  N   UNL     1       5.618   3.931  18.008  0.00  0.00    +0.000 N 
ATOM     22  H   UNL     1       3.325   4.091  15.790  0.00  0.00    +0.000 HD
ATOM     23  H   UNL     1       5.265   3.080  18.438  0.00  0.00    +0.000 HD
ENDBRANCH   6   8
BRANCH   1  26
ATOM     24  C   UNL     1       1.567   9.040  18.585  0.00  0.00    +0.000 C 
ATOM     25  O   UNL     1       1.905   8.797  17.435  0.00  0.00    +0.000 OA
ATOM     26  N   UNL     1       1.821   8.204  19.681  0.00  0.00    +0.000 N 
ATOM     27  H   UNL     1       1.385   8.492  20.556  0.00  0.00    +0.000 HD
BRANCH  24  31
ATOM     28  C   UNL     1      -0.772  12.494  19.507  0.00  0.00    +0.000 A 
ATOM     29  C   UNL     1      -1.187  11.185  19.721  0.00  0.00    +0.000 A 
ATOM     30  N   UNL     1      -0.460  10.080  19.408  0.00  0.00    +0.000 NA
ATOM     31  C   UNL     1       0.774  10.295  18.863  0.00  0.00    +0.000 A 
ATOM     32  C   UNL     1       1.281  11.580  18.591  0.00  0.00    +0.000 A 
ATOM     33  C   UNL     1       2.628  11.899  18.003  0.00  0.00    +0.000 C 
ATOM     34  C   UNL     1       0.486  12.681  18.954  0.00  0.00    +0.000 A 
BRANCH  28  36
ATOM     35  C   UNL     1      -2.858  13.064  20.447  0.00  0.00    +0.000 C 
ATOM     36  O   UNL     1      -1.615  13.494  19.891  0.00  0.00    +0.000 OA
ENDBRANCH  28  36
ENDBRANCH  24  31
ENDBRANCH   1  26
TORSDOF 4
ENDMDL
MODEL 4
REMARK VINA RESULT:      -7.5      0.956      1.023
REMARK  Name = 
REMARK  8 active torsions:
REMARK  status: ('A' for Active; 'I' for Inactive)
REMARK    1  A    between atoms: C_1  and  O_2
REMARK    2  A    between atoms: O_2  and  C_3
REMARK    3  A    between atoms: C_6  and  C_7
REMARK    4  A    between atoms: N_9  and  C_10
REMARK    5  A    between atoms: C_15  and  C_16
REMARK    6  A    between atoms: C_24  and  C_25
REMARK    7  A    between atoms: C_24  and  C_26
REMARK    8  A    between atoms: C_31  and  C_32
REMARK                            x       y       z     vdW  Elec       q    Type
REMARK                         _______ _______ _______ _____ _____    ______ ____
ROOT
ATOM      1  C   UNL     1       1.596   9.012  18.344  0.00  0.00    +0.000 A 
ATOM      2  C   UNL     1       0.450   8.932  17.570  0.00  0.00    +0.000 A 
ATOM      3  C   UNL     1      -0.570   9.877  17.704  0.00  0.00    +0.000 A 
ATOM      4  C   UNL     1      -0.507  10.852  18.695  0.00  0.00    +0.000 A 
ATOM      5  F   UNL     1      -1.481  11.765  18.759  0.00  0.00    +0.000 F 
ATOM      6  C   UNL     1       0.504  10.838  19.647  0.00  0.00    +0.000 A 
ATOM      7  C   UNL     1       1.567   9.879  19.441  0.00  0.00    +0.000 A 
ENDROOT
BRANCH   6   8
ATOM      8  C   UNL     1       0.414  11.682  20.960  0.00  0.00    +0.000 C 
ATOM      9  C   UNL     1       0.197  10.553  22.007  0.00  0.00    +0.000 C 
ATOM     10  O   UNL     1      -0.514  11.021  23.147  0.00  0.00    +0.000 OA
ATOM     11  C   UNL     1      -1.064  12.296  22.847  0.00  0.00    +0.000 C 
ATOM     12  C   UNL     1      -0.693  12.670  21.418  0.00  0.00    +0.000 C 
ATOM     13  S   UNL     1      -0.160  14.406  21.517  0.00  0.00    +0.000 S 
ATOM     14  O   UNL     1       0.734  14.629  22.650  0.00  0.00    +0.000 OA
ATOM     15  O   UNL     1      -1.342  15.228  21.410  0.00  0.00    +0.000 OA
ATOM     16  C   UNL     1       0.801  14.614  20.003  0.00  0.00    +0.000 C 
ATOM     17  C   UNL     1       1.669  15.878  20.048  0.00  0.00    +0.000 C 
ATOM     18  C   UNL     1      -0.183  14.677  18.839  0.00  0.00    +0.000 C 
ATOM     19  C   UNL     1       1.750  13.411  19.988  0.00  0.00    +0.000 C 
ATOM     20  N   UNL     1       2.605  13.236  19.031  0.00  0.00    +0.000 NA
ATOM     21  N   UNL     1       1.657  12.463  20.995  0.00  0.00    +0.000 N 
ATOM     22  H   UNL     1       2.523  13.968  18.314  0.00  0.00    +0.000 HD
ATOM     23  H   UNL     1       2.495  11.890  21.049  0.00  0.00    +0.000 HD
ENDBRANCH   6   8
BRANCH   1  26
ATOM     24  C   UNL     1       2.980   6.947  18.247  0.00  0.00    +0.000 C 
ATOM     25  O   UNL     1       2.240   6.258  18.933  0.00  0.00    +0.000 OA
ATOM     26  N   UNL     1       2.792   8.314  18.001  0.00  0.00    +0.000 N 
ATOM     27  H   UNL     1       3.434   8.725  17.324  0.00  0.00    +0.000 HD
BRANCH  24  31
ATOM     28  C   UNL     1       6.337   5.263  16.210  0.00  0.00    +0.000 A 
ATOM     29  C   UNL     1       5.546   6.288  15.706  0.00  0.00    +0.000 A 
ATOM     30  N   UNL     1       4.462   6.813  16.335  0.00  0.00    +0.000 NA
ATOM     31  C   UNL     1       4.157   6.294  17.561  0.00  0.00    +0.000 A 
ATOM     32  C   UNL     1       4.884   5.244  18.155  0.00  0.00    +0.000 A 
ATOM     33  C   UNL     1       4.618   4.627  19.500  0.00  0.00    +0.000 C 
ATOM     34  C   UNL     1       6.004   4.757  17.458  0.00  0.00    +0.000 A 
BRANCH  28  36
ATOM     35  C   UNL     1       7.147   4.738  14.059  0.00  0.00    +0.000 C 
ATOM     36  O   UNL     1       7.400   4.857  15.459  0.00  0.00    +0.000 OA
ENDBRANCH  28  36
ENDBRANCH  24  31
ENDBRANCH   1  26
TORSDOF 4
ENDMDL
MODEL 5
REMARK VINA RESULT:      -7.3      3.667      9.468
REMARK  Name = 
REMARK  8 active torsions:
REMARK  status: ('A' for Active; 'I' for Inactive)
REMARK    1  A    between atoms: C_1  and  O_2
REMARK    2  A    between atoms: O_2  and  C_3
REMARK    3  A    between atoms: C_6  and  C_7
REMARK    4  A    between atoms: N_9  and  C_10
REMARK    5  A    between atoms: C_15  and  C_16
REMARK    6  A    between atoms: C_24  and  C_25
REMARK    7  A    between atoms: C_24  and  C_26
REMARK    8  A    between atoms: C_31  and  C_32
REMARK                            x       y       z     vdW  Elec       q    Type
REMARK                         _______ _______ _______ _____ _____    ______ ____
ROOT
ATOM      1  C   UNL     1       2.342   6.739  19.724  0.00  0.00    +0.000 A 
ATOM      2  C   UNL     1       1.538   5.621  19.885  0.00  0.00    +0.000 A 
ATOM      3  C   UNL     1       2.101   4.349  20.014  0.00  0.00    +0.000 A 
ATOM      4  C   UNL     1       3.473   4.164  19.871  0.00  0.00    +0.000 A 
ATOM      5  F   UNL     1       3.976   2.938  20.049  0.00  0.00    +0.000 F 
ATOM      6  C   UNL     1       4.298   5.210  19.480  0.00  0.00    +0.000 A 
ATOM      7  C   UNL     1       3.687   6.519  19.410  0.00  0.00    +0.000 A 
ENDROOT
BRANCH   6   8
ATOM      8  C   UNL     1       5.757   4.967  18.973  0.00  0.00    +0.000 C 
ATOM      9  C   UNL     1       6.489   4.725  20.323  0.00  0.00    +0.000 C 
ATOM     10  O   UNL     1       7.864   5.084  20.248  0.00  0.00    +0.000 OA
ATOM     11  C   UNL     1       8.075   5.828  19.057  0.00  0.00    +0.000 C 
ATOM     12  C   UNL     1       6.749   5.967  18.320  0.00  0.00    +0.000 C 
ATOM     13  S   UNL     1       7.146   5.612  16.581  0.00  0.00    +0.000 S 
ATOM     14  O   UNL     1       7.999   4.433  16.456  0.00  0.00    +0.000 OA
ATOM     15  O   UNL     1       7.593   6.845  15.979  0.00  0.00    +0.000 OA
ATOM     16  C   UNL     1       5.532   5.205  15.881  0.00  0.00    +0.000 C 
ATOM     17  C   UNL     1       5.661   4.501  14.523  0.00  0.00    +0.000 C 
ATOM     18  C   UNL     1       4.750   6.507  15.741  0.00  0.00    +0.000 C 
ATOM     19  C   UNL     1       4.937   4.192  16.864  0.00  0.00    +0.000 C 
ATOM     20  N   UNL     1       3.767   3.669  16.671  0.00  0.00    +0.000 NA
ATOM     21  N   UNL     1       5.645   3.863  18.010  0.00  0.00    +0.000 N 
ATOM     22  H   UNL     1       3.320   4.048  15.827  0.00  0.00    +0.000 HD
ATOM     23  H   UNL     1       5.309   2.997  18.423  0.00  0.00    +0.000 HD
ENDBRANCH   6   8
BRANCH   1  26
ATOM     24  C   UNL     1       1.424   8.907  18.921  0.00  0.00    +0.000 C 
ATOM     25  O   UNL     1       1.588   8.688  17.730  0.00  0.00    +0.000 OA
ATOM     26  N   UNL     1       1.855   8.060  19.952  0.00  0.00    +0.000 N 
ATOM     27  H   UNL     1       1.551   8.327  20.888  0.00  0.00    +0.000 HD
BRANCH  24  31
ATOM     28  C   UNL     1      -0.734  12.457  19.917  0.00  0.00    +0.000 A 
ATOM     29  C   UNL     1       0.117  12.336  18.826  0.00  0.00    +0.000 A 
ATOM     30  N   UNL     1       0.827  11.220  18.515  0.00  0.00    +0.000 NA
ATOM     31  C   UNL     1       0.661  10.142  19.338  0.00  0.00    +0.000 A 
ATOM     32  C   UNL     1      -0.165  10.165  20.479  0.00  0.00    +0.000 A 
ATOM     33  C   UNL     1      -0.406   9.022  21.426  0.00  0.00    +0.000 C 
ATOM     34  C   UNL     1      -0.884  11.346  20.734  0.00  0.00    +0.000 A 
BRANCH  28  36
ATOM     35  C   UNL     1      -2.586  13.577  20.853  0.00  0.00    +0.000 C 
ATOM     36  O   UNL     1      -1.386  13.644  20.083  0.00  0.00    +0.000 OA
ENDBRANCH  28  36
ENDBRANCH  24  31
ENDBRANCH   1  26
TORSDOF 4
ENDMDL
MODEL 6
REMARK VINA RESULT:      -7.3      3.558      9.356
REMARK  Name = 
REMARK  8 active torsions:
REMARK  status: ('A' for Active; 'I' for Inactive)
REMARK    1  A    between atoms: C_1  and  O_2
REMARK    2  A    between atoms: O_2  and  C_3
REMARK    3  A    between atoms: C_6  and  C_7
REMARK    4  A    between atoms: N_9  and  C_10
REMARK    5  A    between atoms: C_15  and  C_16
REMARK    6  A    between atoms: C_24  and  C_25
REMARK    7  A    between atoms: C_24  and  C_26
REMARK    8  A    between atoms: C_31  and  C_32
REMARK                            x       y       z     vdW  Elec       q    Type
REMARK                         _______ _______ _______ _____ _____    ______ ____
ROOT
ATOM      1  C   UNL     1       2.225   6.892  19.227  0.00  0.00    +0.000 A 
ATOM      2  C   UNL     1       1.451   5.824  19.650  0.00  0.00    +0.000 A 
ATOM      3  C   UNL     1       2.047   4.634  20.076  0.00  0.00    +0.000 A 
ATOM      4  C   UNL     1       3.424   4.456  19.977  0.00  0.00    +0.000 A 
ATOM      5  F   UNL     1       3.958   3.321  20.438  0.00  0.00    +0.000 F 
ATOM      6  C   UNL     1       4.222   5.402  19.347  0.00  0.00    +0.000 A 
ATOM      7  C   UNL     1       3.576   6.640  18.970  0.00  0.00    +0.000 A 
ENDROOT
BRANCH   6   8
ATOM      8  C   UNL     1       5.688   5.084  18.907  0.00  0.00    +0.000 C 
ATOM      9  C   UNL     1       6.367   4.907  20.294  0.00  0.00    +0.000 C 
ATOM     10  O   UNL     1       7.754   5.219  20.246  0.00  0.00    +0.000 OA
ATOM     11  C   UNL     1       8.028   5.880  19.019  0.00  0.00    +0.000 C 
ATOM     12  C   UNL     1       6.733   6.012  18.229  0.00  0.00    +0.000 C 
ATOM     13  S   UNL     1       7.176   5.536  16.530  0.00  0.00    +0.000 S 
ATOM     14  O   UNL     1       7.995   4.328  16.508  0.00  0.00    +0.000 OA
ATOM     15  O   UNL     1       7.682   6.716  15.869  0.00  0.00    +0.000 OA
ATOM     16  C   UNL     1       5.574   5.134  15.800  0.00  0.00    +0.000 C 
ATOM     17  C   UNL     1       5.725   4.343  14.494  0.00  0.00    +0.000 C 
ATOM     18  C   UNL     1       4.838   6.447  15.552  0.00  0.00    +0.000 C 
ATOM     19  C   UNL     1       4.914   4.203  16.823  0.00  0.00    +0.000 C 
ATOM     20  N   UNL     1       3.736   3.704  16.621  0.00  0.00    +0.000 NA
ATOM     21  N   UNL     1       5.573   3.926  18.011  0.00  0.00    +0.000 N 
ATOM     22  H   UNL     1       3.329   4.042  15.740  0.00  0.00    +0.000 HD
ATOM     23  H   UNL     1       5.197   3.098  18.464  0.00  0.00    +0.000 HD
ENDBRANCH   6   8
BRANCH   1  26
ATOM     24  C   UNL     1       1.063   8.863  20.204  0.00  0.00    +0.000 C 
ATOM     25  O   UNL     1       0.724   8.317  21.243  0.00  0.00    +0.000 OA
ATOM     26  N   UNL     1       1.702   8.217  19.137  0.00  0.00    +0.000 N 
ATOM     27  H   UNL     1       2.017   8.828  18.385  0.00  0.00    +0.000 HD
BRANCH  24  31
ATOM     28  C   UNL     1       0.602  13.097  19.866  0.00  0.00    +0.000 A 
ATOM     29  C   UNL     1       1.374  12.467  20.833  0.00  0.00    +0.000 A 
ATOM     30  N   UNL     1       1.507  11.120  20.964  0.00  0.00    +0.000 NA
ATOM     31  C   UNL     1       0.840  10.350  20.055  0.00  0.00    +0.000 A 
ATOM     32  C   UNL     1       0.018  10.889  19.046  0.00  0.00    +0.000 A 
ATOM     33  C   UNL     1      -0.739  10.110  18.005  0.00  0.00    +0.000 C 
ATOM     34  C   UNL     1      -0.063  12.289  18.955  0.00  0.00    +0.000 A 
BRANCH  28  36
ATOM     35  C   UNL     1       1.502  15.078  18.958  0.00  0.00    +0.000 C 
ATOM     36  O   UNL     1       0.584  14.461  19.861  0.00  0.00    +0.000 OA
ENDBRANCH  28  36
ENDBRANCH  24  31
ENDBRANCH   1  26
TORSDOF 4
ENDMDL
MODEL 7
REMARK VINA RESULT:      -7.3      6.563      8.192
REMARK  Name = 
REMARK  8 active torsions:
REMARK  status: ('A' for Active; 'I' for Inactive)
REMARK    1  A    between atoms: C_1  and  O_2
REMARK    2  A    between atoms: O_2  and  C_3
REMARK    3  A    between atoms: C_6  and  C_7
REMARK    4  A    between atoms: N_9  and  C_10
REMARK    5  A    between atoms: C_15  and  C_16
REMARK    6  A    between atoms: C_24  and  C_25
REMARK    7  A    between atoms: C_24  and  C_26
REMARK    8  A    between atoms: C_31  and  C_32
REMARK                            x       y       z     vdW  Elec       q    Type
REMARK                         _______ _______ _______ _____ _____    ______ ____
ROOT
ATOM      1  C   UNL     1       8.756   9.871  18.330  0.00  0.00    +0.000 A 
ATOM      2  C   UNL     1       8.838   9.647  19.695  0.00  0.00    +0.000 A 
ATOM      3  C   UNL     1       9.029  10.709  20.583  0.00  0.00    +0.000 A 
ATOM      4  C   UNL     1       9.253  11.997  20.108  0.00  0.00    +0.000 A 
ATOM      5  F   UNL     1       9.384  12.992  20.991  0.00  0.00    +0.000 F 
ATOM      6  C   UNL     1       9.411  12.240  18.750  0.00  0.00    +0.000 A 
ATOM      7  C   UNL     1       9.153  11.127  17.863  0.00  0.00    +0.000 A 
ENDROOT
BRANCH   6   8
ATOM      8  C   UNL     1      10.005  13.584  18.215  0.00  0.00    +0.000 C 
ATOM      9  C   UNL     1      11.331  13.075  17.583  0.00  0.00    +0.000 C 
ATOM     10  O   UNL     1      12.333  14.084  17.576  0.00  0.00    +0.000 OA
ATOM     11  C   UNL     1      11.911  15.150  18.415  0.00  0.00    +0.000 C 
ATOM     12  C   UNL     1      10.552  14.801  19.009  0.00  0.00    +0.000 C 
ATOM     13  S   UNL     1       9.567  16.320  18.837  0.00  0.00    +0.000 S 
ATOM     14  O   UNL     1       9.720  16.911  17.510  0.00  0.00    +0.000 OA
ATOM     15  O   UNL     1       9.842  17.146  19.988  0.00  0.00    +0.000 OA
ATOM     16  C   UNL     1       7.873  15.713  18.981  0.00  0.00    +0.000 C 
ATOM     17  C   UNL     1       6.852  16.748  18.489  0.00  0.00    +0.000 C 
ATOM     18  C   UNL     1       7.629  15.372  20.448  0.00  0.00    +0.000 C 
ATOM     19  C   UNL     1       7.814  14.522  18.019  0.00  0.00    +0.000 C 
ATOM     20  N   UNL     1       6.727  13.836  17.858  0.00  0.00    +0.000 NA
ATOM     21  N   UNL     1       8.962  14.140  17.343  0.00  0.00    +0.000 N 
ATOM     22  H   UNL     1       5.972  14.177  18.467  0.00  0.00    +0.000 HD
ATOM     23  H   UNL     1       8.748  13.552  16.542  0.00  0.00    +0.000 HD
ENDBRANCH   6   8
BRANCH   1  26
ATOM     24  C   UNL     1       7.943   7.578  17.809  0.00  0.00    +0.000 C 
ATOM     25  O   UNL     1       8.313   7.064  18.855  0.00  0.00    +0.000 OA
ATOM     26  N   UNL     1       8.209   8.902  17.436  0.00  0.00    +0.000 N 
ATOM     27  H   UNL     1       7.744   9.215  16.584  0.00  0.00    +0.000 HD
BRANCH  24  31
ATOM     28  C   UNL     1       5.684   5.158  15.108  0.00  0.00    +0.000 A 
ATOM     29  C   UNL     1       7.072   5.200  15.151  0.00  0.00    +0.000 A 
ATOM     30  N   UNL     1       7.799   5.985  15.990  0.00  0.00    +0.000 NA
ATOM     31  C   UNL     1       7.094   6.767  16.859  0.00  0.00    +0.000 A 
ATOM     32  C   UNL     1       5.686   6.810  16.886  0.00  0.00    +0.000 A 
ATOM     33  C   UNL     1       4.839   7.635  17.816  0.00  0.00    +0.000 C 
ATOM     34  C   UNL     1       4.995   5.962  16.005  0.00  0.00    +0.000 A 
BRANCH  28  36
ATOM     35  C   UNL     1       6.010   3.633  13.341  0.00  0.00    +0.000 C 
ATOM     36  O   UNL     1       5.105   4.305  14.216  0.00  0.00    +0.000 OA
ENDBRANCH  28  36
ENDBRANCH  24  31
ENDBRANCH   1  26
TORSDOF 4
ENDMDL
MODEL 8
REMARK VINA RESULT:      -7.2      3.704      9.468
REMARK  Name = 
REMARK  8 active torsions:
REMARK  status: ('A' for Active; 'I' for Inactive)
REMARK    1  A    between atoms: C_1  and  O_2
REMARK    2  A    between atoms: O_2  and  C_3
REMARK    3  A    between atoms: C_6  and  C_7
REMARK    4  A    between atoms: N_9  and  C_10
REMARK    5  A    between atoms: C_15  and  C_16
REMARK    6  A    between atoms: C_24  and  C_25
REMARK    7  A    between atoms: C_24  and  C_26
REMARK    8  A    between atoms: C_31  and  C_32
REMARK                            x       y       z     vdW  Elec       q    Type
REMARK                         _______ _______ _______ _____ _____    ______ ____
ROOT
ATOM      1  C   UNL     1       2.241   6.333  20.020  0.00  0.00    +0.000 A 
ATOM      2  C   UNL     1       1.513   5.156  20.097  0.00  0.00    +0.000 A 
ATOM      3  C   UNL     1       2.158   3.917  20.102  0.00  0.00    +0.000 A 
ATOM      4  C   UNL     1       3.535   3.834  19.918  0.00  0.00    +0.000 A 
ATOM      5  F   UNL     1       4.118   2.632  19.976  0.00  0.00    +0.000 F 
ATOM      6  C   UNL     1       4.282   4.961  19.605  0.00  0.00    +0.000 A 
ATOM      7  C   UNL     1       3.588   6.229  19.663  0.00  0.00    +0.000 A 
ENDROOT
BRANCH   6   8
ATOM      8  C   UNL     1       5.741   4.858  19.051  0.00  0.00    +0.000 C 
ATOM      9  C   UNL     1       6.520   4.550  20.361  0.00  0.00    +0.000 C 
ATOM     10  O   UNL     1       7.867   5.003  20.291  0.00  0.00    +0.000 OA
ATOM     11  C   UNL     1       8.001   5.859  19.166  0.00  0.00    +0.000 C 
ATOM     12  C   UNL     1       6.651   5.974  18.469  0.00  0.00    +0.000 C 
ATOM     13  S   UNL     1       7.027   5.795  16.699  0.00  0.00    +0.000 S 
ATOM     14  O   UNL     1       7.950   4.690  16.455  0.00  0.00    +0.000 OA
ATOM     15  O   UNL     1       7.380   7.102  16.198  0.00  0.00    +0.000 OA
ATOM     16  C   UNL     1       5.425   5.345  15.997  0.00  0.00    +0.000 C 
ATOM     17  C   UNL     1       5.565   4.771  14.581  0.00  0.00    +0.000 C 
ATOM     18  C   UNL     1       4.559   6.601  15.985  0.00  0.00    +0.000 C 
ATOM     19  C   UNL     1       4.920   4.215  16.899  0.00  0.00    +0.000 C 
ATOM     20  N   UNL     1       3.781   3.635  16.683  0.00  0.00    +0.000 NA
ATOM     21  N   UNL     1       5.675   3.836  17.998  0.00  0.00    +0.000 N 
ATOM     22  H   UNL     1       3.290   4.055  15.884  0.00  0.00    +0.000 HD
ATOM     23  H   UNL     1       5.406   2.918  18.340  0.00  0.00    +0.000 HD
ENDBRANCH   6   8
BRANCH   1  26
ATOM     24  C   UNL     1       1.483   8.633  19.452  0.00  0.00    +0.000 C 
ATOM     25  O   UNL     1       1.933   8.645  18.315  0.00  0.00    +0.000 OA
ATOM     26  N   UNL     1       1.677   7.595  20.373  0.00  0.00    +0.000 N 
ATOM     27  H   UNL     1       1.151   7.682  21.242  0.00  0.00    +0.000 HD
BRANCH  24  31
ATOM     28  C   UNL     1      -0.847  11.935  20.837  0.00  0.00    +0.000 A 
ATOM     29  C   UNL     1       0.185  11.347  21.556  0.00  0.00    +0.000 A 
ATOM     30  N   UNL     1       0.915  10.280  21.135  0.00  0.00    +0.000 NA
ATOM     31  C   UNL     1       0.608   9.779  19.902  0.00  0.00    +0.000 A 
ATOM     32  C   UNL     1      -0.430  10.292  19.100  0.00  0.00    +0.000 A 
ATOM     33  C   UNL     1      -0.823   9.803  17.733  0.00  0.00    +0.000 C 
ATOM     34  C   UNL     1      -1.135  11.406  19.587  0.00  0.00    +0.000 A 
BRANCH  28  36
ATOM     35  C   UNL     1      -2.533  12.695  22.299  0.00  0.00    +0.000 C 
ATOM     36  O   UNL     1      -1.475  13.010  21.395  0.00  0.00    +0.000 OA
ENDBRANCH  28  36
ENDBRANCH  24  31
ENDBRANCH   1  26
TORSDOF 4
ENDMDL
MODEL 9
REMARK VINA RESULT:      -7.2      0.696      1.255
REMARK  Name = 
REMARK  8 active torsions:
REMARK  status: ('A' for Active; 'I' for Inactive)
REMARK    1  A    between atoms: C_1  and  O_2
REMARK    2  A    between atoms: O_2  and  C_3
REMARK    3  A    between atoms: C_6  and  C_7
REMARK    4  A    between atoms: N_9  and  C_10
REMARK    5  A    between atoms: C_15  and  C_16
REMARK    6  A    between atoms: C_24  and  C_25
REMARK    7  A    between atoms: C_24  and  C_26
REMARK    8  A    between atoms: C_31  and  C_32
REMARK                            x       y       z     vdW  Elec       q    Type
REMARK                         _______ _______ _______ _____ _____    ______ ____
ROOT
ATOM      1  C   UNL     1       1.067   9.089  18.171  0.00  0.00    +0.000 A 
ATOM      2  C   UNL     1      -0.127   9.134  17.470  0.00  0.00    +0.000 A 
ATOM      3  C   UNL     1      -1.034  10.178  17.671  0.00  0.00    +0.000 A 
ATOM      4  C   UNL     1      -0.809  11.132  18.658  0.00  0.00    +0.000 A 
ATOM      5  F   UNL     1      -1.678  12.140  18.786  0.00  0.00    +0.000 F 
ATOM      6  C   UNL     1       0.253  11.005  19.544  0.00  0.00    +0.000 A 
ATOM      7  C   UNL     1       1.197   9.944  19.270  0.00  0.00    +0.000 A 
ENDROOT
BRANCH   6   8
ATOM      8  C   UNL     1       0.334  11.843  20.862  0.00  0.00    +0.000 C 
ATOM      9  C   UNL     1       0.056  10.735  21.917  0.00  0.00    +0.000 C 
ATOM     10  O   UNL     1      -0.531  11.268  23.099  0.00  0.00    +0.000 OA
ATOM     11  C   UNL     1      -0.955  12.598  22.835  0.00  0.00    +0.000 C 
ATOM     12  C   UNL     1      -0.629  12.942  21.388  0.00  0.00    +0.000 C 
ATOM     13  S   UNL     1       0.095  14.609  21.459  0.00  0.00    +0.000 S 
ATOM     14  O   UNL     1       1.074  14.722  22.538  0.00  0.00    +0.000 OA
ATOM     15  O   UNL     1      -0.994  15.555  21.424  0.00  0.00    +0.000 OA
ATOM     16  C   UNL     1       0.982  14.724  19.891  0.00  0.00    +0.000 C 
ATOM     17  C   UNL     1       1.985  15.885  19.887  0.00  0.00    +0.000 C 
ATOM     18  C   UNL     1      -0.056  14.904  18.787  0.00  0.00    +0.000 C 
ATOM     19  C   UNL     1       1.791  13.424  19.816  0.00  0.00    +0.000 C 
ATOM     20  N   UNL     1       2.564  13.166  18.810  0.00  0.00    +0.000 NA
ATOM     21  N   UNL     1       1.655  12.483  20.825  0.00  0.00    +0.000 N 
ATOM     22  H   UNL     1       2.521  13.908  18.101  0.00  0.00    +0.000 HD
ATOM     23  H   UNL     1       2.426  11.822  20.828  0.00  0.00    +0.000 HD
ENDBRANCH   6   8
BRANCH   1  26
ATOM     24  C   UNL     1       2.612   7.163  18.475  0.00  0.00    +0.000 C 
ATOM     25  O   UNL     1       2.254   6.882  19.610  0.00  0.00    +0.000 OA
ATOM     26  N   UNL     1       2.161   8.274  17.751  0.00  0.00    +0.000 N 
ATOM     27  H   UNL     1       2.469   8.314  16.780  0.00  0.00    +0.000 HD
BRANCH  24  31
ATOM     28  C   UNL     1       5.156   4.431  16.397  0.00  0.00    +0.000 A 
ATOM     29  C   UNL     1       3.905   4.105  16.907  0.00  0.00    +0.000 A 
ATOM     30  N   UNL     1       3.100   4.960  17.591  0.00  0.00    +0.000 NA
ATOM     31  C   UNL     1       3.564   6.234  17.760  0.00  0.00    +0.000 A 
ATOM     32  C   UNL     1       4.824   6.661  17.296  0.00  0.00    +0.000 A 
ATOM     33  C   UNL     1       5.401   8.042  17.434  0.00  0.00    +0.000 C 
ATOM     34  C   UNL     1       5.600   5.732  16.582  0.00  0.00    +0.000 A 
BRANCH  28  36
ATOM     35  C   UNL     1       6.308   3.837  14.428  0.00  0.00    +0.000 C 
ATOM     36  O   UNL     1       5.835   3.460  15.721  0.00  0.00    +0.000 OA
ENDBRANCH  28  36
ENDBRANCH  24  31
ENDBRANCH   1  26
TORSDOF 4
ENDMDL
