MODEL 1
REMARK VINA RESULT:      -8.7      0.000      0.000
REMARK  Name = 
REMARK  4 active torsions:
REMARK  status: ('A' for Active; 'I' for Inactive)
REMARK    1  A    between atoms: C_1  and  N_2
REMARK    2  A    between atoms: N_16  and  C_17
REMARK    3  A    between atoms: C_20  and  N_21
REMARK    4  A    between atoms: C_24  and  O_25
REMARK                            x       y       z     vdW  Elec       q    Type
REMARK                         _______ _______ _______ _____ _____    ______ ____
ROOT
ATOM      1  C   UNL     1      -0.221  11.420  18.470  0.00  0.00    +0.000 C 
ATOM      2  N   UNL     1      -1.204  11.248  19.535  0.00  0.00    +0.000 N 
ATOM      3  C   UNL     1      -2.508  11.683  19.314  0.00  0.00    +0.000 A 
ATOM      4  C   UNL     1      -3.259  11.162  18.243  0.00  0.00    +0.000 A 
ATOM      5  C   UNL     1      -4.594  11.527  18.043  0.00  0.00    +0.000 A 
ATOM      6  C   UNL     1      -5.192  12.454  18.888  0.00  0.00    +0.000 A 
ATOM      7  C   UNL     1      -4.461  12.994  19.942  0.00  0.00    +0.000 A 
ATOM      8  C   UNL     1      -3.140  12.586  20.174  0.00  0.00    +0.000 A 
ATOM      9  C   UNL     1      -2.478  13.143  21.367  0.00  0.00    +0.000 C 
ATOM     10  O   UNL     1      -2.685  14.313  21.688  0.00  0.00    +0.000 OA
ATOM     11  N   UNL     1      -1.801  12.317  22.227  0.00  0.00    +0.000 N 
ATOM     12  C   UNL     1      -1.123  11.112  21.970  0.00  0.00    +0.000 A 
ATOM     13  C   UNL     1      -0.654  10.368  23.035  0.00  0.00    +0.000 A 
ATOM     14  N   UNL     1       0.127   9.274  22.923  0.00  0.00    +0.000 NA
ATOM     15  C   UNL     1       0.507   8.949  21.685  0.00  0.00    +0.000 A 
ATOM     16  N   UNL     1       1.330   7.833  21.542  0.00  0.00    +0.000 N 
ATOM     17  N   UNL     1       0.104   9.627  20.597  0.00  0.00    +0.000 NA
ATOM     18  C   UNL     1      -0.737  10.666  20.716  0.00  0.00    +0.000 A 
ATOM     19  H   UNL     1      -1.681  12.728  23.142  0.00  0.00    +0.000 HD
ATOM     20  H   UNL     1       1.329   7.267  22.375  0.00  0.00    +0.000 HD
ENDROOT
BRANCH  16  21
ATOM     21  C   UNL     1       1.868   7.301  20.365  0.00  0.00    +0.000 A 
ATOM     22  C   UNL     1       2.220   5.953  20.265  0.00  0.00    +0.000 A 
ATOM     23  C   UNL     1       2.925   5.460  19.165  0.00  0.00    +0.000 A 
ATOM     24  C   UNL     1       3.297   6.290  18.105  0.00  0.00    +0.000 A 
ATOM     25  C   UNL     1       2.878   7.626  18.177  0.00  0.00    +0.000 A 
ATOM     26  C   UNL     1       2.180   8.129  19.287  0.00  0.00    +0.000 A 
BRANCH  24  27
ATOM     27  N   UNL     1       4.030   5.781  17.047  0.00  0.00    +0.000 N 
ATOM     28  C   UNL     1       4.944   6.618  16.278  0.00  0.00    +0.000 C 
ATOM     29  C   UNL     1       6.388   6.216  16.558  0.00  0.00    +0.000 C 
ATOM     30  C   UNL     1       6.601   4.718  16.349  0.00  0.00    +0.000 C 
ATOM     31  C   UNL     1       5.588   3.884  17.132  0.00  0.00    +0.000 C 
ATOM     32  C   UNL     1       4.148   4.330  16.873  0.00  0.00    +0.000 C 
BRANCH  30  33
ATOM     33  O   UNL     1       6.555   4.389  14.960  0.00  0.00    +0.000 OA
ATOM     34  H   UNL     1       6.059   5.076  14.488  0.00  0.00    +0.000 HD
ENDBRANCH  30  33
ENDBRANCH  24  27
ENDBRANCH  16  21
TORSDOF 3
ENDMDL
MODEL 2
REMARK VINA RESULT:      -8.6      2.176      9.745
REMARK  Name = 
REMARK  4 active torsions:
REMARK  status: ('A' for Active; 'I' for Inactive)
REMARK    1  A    between atoms: C_1  and  N_2
REMARK    2  A    between atoms: N_16  and  C_17
REMARK    3  A    between atoms: C_20  and  N_21
REMARK    4  A    between atoms: C_24  and  O_25
REMARK                            x       y       z     vdW  Elec       q    Type
REMARK                         _______ _______ _______ _____ _____    ______ ____
ROOT
ATOM      1  C   UNL     1       1.868   6.316  21.195  0.00  0.00    +0.000 C 
ATOM      2  N   UNL     1       2.203   5.817  19.866  0.00  0.00    +0.000 N 
ATOM      3  C   UNL     1       2.088   4.451  19.619  0.00  0.00    +0.000 A 
ATOM      4  C   UNL     1       0.851   3.801  19.787  0.00  0.00    +0.000 A 
ATOM      5  C   UNL     1       0.690   2.447  19.477  0.00  0.00    +0.000 A 
ATOM      6  C   UNL     1       1.778   1.706  19.029  0.00  0.00    +0.000 A 
ATOM      7  C   UNL     1       3.014   2.326  18.874  0.00  0.00    +0.000 A 
ATOM      8  C   UNL     1       3.159   3.697  19.134  0.00  0.00    +0.000 A 
ATOM      9  C   UNL     1       4.481   4.284  18.851  0.00  0.00    +0.000 C 
ATOM     10  O   UNL     1       5.500   3.637  19.092  0.00  0.00    +0.000 OA
ATOM     11  N   UNL     1       4.578   5.453  18.141  0.00  0.00    +0.000 N 
ATOM     12  C   UNL     1       3.680   6.533  18.061  0.00  0.00    +0.000 A 
ATOM     13  C   UNL     1       3.920   7.535  17.142  0.00  0.00    +0.000 A 
ATOM     14  N   UNL     1       3.221   8.686  17.059  0.00  0.00    +0.000 NA
ATOM     15  C   UNL     1       2.275   8.865  17.984  0.00  0.00    +0.000 A 
ATOM     16  N   UNL     1       1.549  10.053  17.933  0.00  0.00    +0.000 N 
ATOM     17  N   UNL     1       1.986   7.943  18.918  0.00  0.00    +0.000 NA
ATOM     18  C   UNL     1       2.636   6.770  18.941  0.00  0.00    +0.000 A 
ATOM     19  H   UNL     1       5.492   5.582  17.732  0.00  0.00    +0.000 HD
ATOM     20  H   UNL     1       1.666  10.518  17.047  0.00  0.00    +0.000 HD
ENDROOT
BRANCH  16  21
ATOM     21  C   UNL     1       0.524  10.478  18.788  0.00  0.00    +0.000 A 
ATOM     22  C   UNL     1      -0.789  10.631  18.337  0.00  0.00    +0.000 A 
ATOM     23  C   UNL     1      -1.769  11.229  19.131  0.00  0.00    +0.000 A 
ATOM     24  C   UNL     1      -1.486  11.687  20.420  0.00  0.00    +0.000 A 
ATOM     25  C   UNL     1      -0.186  11.465  20.893  0.00  0.00    +0.000 A 
ATOM     26  C   UNL     1       0.807  10.876  20.094  0.00  0.00    +0.000 A 
BRANCH  24  27
ATOM     27  N   UNL     1      -2.469  12.312  21.167  0.00  0.00    +0.000 N 
ATOM     28  C   UNL     1      -2.480  12.244  22.624  0.00  0.00    +0.000 C 
ATOM     29  C   UNL     1      -2.146  13.607  23.218  0.00  0.00    +0.000 C 
ATOM     30  C   UNL     1      -3.045  14.701  22.646  0.00  0.00    +0.000 C 
ATOM     31  C   UNL     1      -3.042  14.700  21.118  0.00  0.00    +0.000 C 
ATOM     32  C   UNL     1      -3.336  13.315  20.541  0.00  0.00    +0.000 C 
BRANCH  30  33
ATOM     33  O   UNL     1      -4.377  14.573  23.146  0.00  0.00    +0.000 OA
ATOM     34  H   UNL     1      -4.605  13.633  23.202  0.00  0.00    +0.000 HD
ENDBRANCH  30  33
ENDBRANCH  24  27
ENDBRANCH  16  21
TORSDOF 3
ENDMDL
MODEL 3
REMARK VINA RESULT:      -8.3      2.271      9.637
REMARK  Name = 
REMARK  4 active torsions:
REMARK  status: ('A' for Active; 'I' for Inactive)
REMARK    1  A    between atoms: C_1  and  N_2
REMARK    2  A    between atoms: N_16  and  C_17
REMARK    3  A    between atoms: C_20  and  N_21
REMARK    4  A    between atoms: C_24  and  O_25
REMARK                            x       y       z     vdW  Elec       q    Type
REMARK                         _______ _______ _______ _____ _____    ______ ____
ROOT
ATOM      1  C   UNL     1       1.974   6.798  21.398  0.00  0.00    +0.000 C 
ATOM      2  N   UNL     1       2.198   6.170  20.100  0.00  0.00    +0.000 N 
ATOM      3  C   UNL     1       2.029   4.792  19.989  0.00  0.00    +0.000 A 
ATOM      4  C   UNL     1       0.791   4.201  20.303  0.00  0.00    +0.000 A 
ATOM      5  C   UNL     1       0.572   2.830  20.131  0.00  0.00    +0.000 A 
ATOM      6  C   UNL     1       1.605   2.016  19.680  0.00  0.00    +0.000 A 
ATOM      7  C   UNL     1       2.842   2.579  19.382  0.00  0.00    +0.000 A 
ATOM      8  C   UNL     1       3.043   3.962  19.503  0.00  0.00    +0.000 A 
ATOM      9  C   UNL     1       4.356   4.476  19.076  0.00  0.00    +0.000 C 
ATOM     10  O   UNL     1       5.372   3.821  19.305  0.00  0.00    +0.000 OA
ATOM     11  N   UNL     1       4.432   5.573  18.256  0.00  0.00    +0.000 N 
ATOM     12  C   UNL     1       3.560   6.670  18.138  0.00  0.00    +0.000 A 
ATOM     13  C   UNL     1       3.760   7.577  17.116  0.00  0.00    +0.000 A 
ATOM     14  N   UNL     1       3.087   8.738  16.976  0.00  0.00    +0.000 NA
ATOM     15  C   UNL     1       2.216   9.031  17.944  0.00  0.00    +0.000 A 
ATOM     16  N   UNL     1       1.520  10.233  17.833  0.00  0.00    +0.000 N 
ATOM     17  N   UNL     1       1.970   8.208  18.976  0.00  0.00    +0.000 NA
ATOM     18  C   UNL     1       2.589   7.020  19.063  0.00  0.00    +0.000 A 
ATOM     19  H   UNL     1       5.318   5.634  17.775  0.00  0.00    +0.000 HD
ATOM     20  H   UNL     1       1.585  10.612  16.901  0.00  0.00    +0.000 HD
ENDROOT
BRANCH  16  21
ATOM     21  C   UNL     1       0.571  10.768  18.713  0.00  0.00    +0.000 A 
ATOM     22  C   UNL     1      -0.776  10.872  18.362  0.00  0.00    +0.000 A 
ATOM     23  C   UNL     1      -1.687  11.570  19.157  0.00  0.00    +0.000 A 
ATOM     24  C   UNL     1      -1.296  12.183  20.350  0.00  0.00    +0.000 A 
ATOM     25  C   UNL     1       0.042  12.013  20.734  0.00  0.00    +0.000 A 
ATOM     26  C   UNL     1       0.965  11.323  19.931  0.00  0.00    +0.000 A 
BRANCH  24  27
ATOM     27  N   UNL     1      -2.213  12.901  21.097  0.00  0.00    +0.000 N 
ATOM     28  C   UNL     1      -3.520  13.263  20.559  0.00  0.00    +0.000 C 
ATOM     29  C   UNL     1      -4.617  12.475  21.264  0.00  0.00    +0.000 C 
ATOM     30  C   UNL     1      -4.516  12.612  22.782  0.00  0.00    +0.000 C 
ATOM     31  C   UNL     1      -3.117  12.274  23.293  0.00  0.00    +0.000 C 
ATOM     32  C   UNL     1      -2.027  13.041  22.544  0.00  0.00    +0.000 C 
BRANCH  30  33
ATOM     33  O   UNL     1      -4.899  13.925  23.197  0.00  0.00    +0.000 OA
ATOM     34  H   UNL     1      -5.125  14.450  22.415  0.00  0.00    +0.000 HD
ENDBRANCH  30  33
ENDBRANCH  24  27
ENDBRANCH  16  21
TORSDOF 3
ENDMDL
MODEL 4
REMARK VINA RESULT:      -8.3      1.292      1.604
REMARK  Name = 
REMARK  4 active torsions:
REMARK  status: ('A' for Active; 'I' for Inactive)
REMARK    1  A    between atoms: C_1  and  N_2
REMARK    2  A    between atoms: N_16  and  C_17
REMARK    3  A    between atoms: C_20  and  N_21
REMARK    4  A    between atoms: C_24  and  O_25
REMARK                            x       y       z     vdW  Elec       q    Type
REMARK                         _______ _______ _______ _____ _____    ______ ____
ROOT
ATOM      1  C   UNL     1      -1.767  11.665  18.013  0.00  0.00    +0.000 C 
ATOM      2  N   UNL     1      -2.551  11.750  19.241  0.00  0.00    +0.000 N 
ATOM      3  C   UNL     1      -3.929  11.926  19.140  0.00  0.00    +0.000 A 
ATOM      4  C   UNL     1      -4.716  10.987  18.447  0.00  0.00    +0.000 A 
ATOM      5  C   UNL     1      -6.109  11.101  18.392  0.00  0.00    +0.000 A 
ATOM      6  C   UNL     1      -6.739  12.182  18.998  0.00  0.00    +0.000 A 
ATOM      7  C   UNL     1      -5.977  13.131  19.672  0.00  0.00    +0.000 A 
ATOM      8  C   UNL     1      -4.585  12.985  19.772  0.00  0.00    +0.000 A 
ATOM      9  C   UNL     1      -3.875  13.989  20.585  0.00  0.00    +0.000 C 
ATOM     10  O   UNL     1      -4.236  15.165  20.553  0.00  0.00    +0.000 OA
ATOM     11  N   UNL     1      -2.955  13.591  21.521  0.00  0.00    +0.000 N 
ATOM     12  C   UNL     1      -2.119  12.459  21.535  0.00  0.00    +0.000 A 
ATOM     13  C   UNL     1      -1.389  12.182  22.674  0.00  0.00    +0.000 A 
ATOM     14  N   UNL     1      -0.452  11.216  22.770  0.00  0.00    +0.000 NA
ATOM     15  C   UNL     1      -0.193  10.538  21.649  0.00  0.00    +0.000 A 
ATOM     16  N   UNL     1       0.784   9.546  21.716  0.00  0.00    +0.000 N 
ATOM     17  N   UNL     1      -0.851  10.753  20.499  0.00  0.00    +0.000 NA
ATOM     18  C   UNL     1      -1.835  11.663  20.437  0.00  0.00    +0.000 A 
ATOM     19  H   UNL     1      -2.785  14.299  22.220  0.00  0.00    +0.000 HD
ATOM     20  H   UNL     1       0.994   9.300  22.671  0.00  0.00    +0.000 HD
ENDROOT
BRANCH  16  21
ATOM     21  C   UNL     1       1.242   8.712  20.688  0.00  0.00    +0.000 A 
ATOM     22  C   UNL     1       1.546   7.369  20.916  0.00  0.00    +0.000 A 
ATOM     23  C   UNL     1       2.176   6.587  19.946  0.00  0.00    +0.000 A 
ATOM     24  C   UNL     1       2.516   7.108  18.695  0.00  0.00    +0.000 A 
ATOM     25  C   UNL     1       2.142   8.436  18.447  0.00  0.00    +0.000 A 
ATOM     26  C   UNL     1       1.520   9.230  19.424  0.00  0.00    +0.000 A 
BRANCH  24  27
ATOM     27  N   UNL     1       3.175   6.320  17.769  0.00  0.00    +0.000 N 
ATOM     28  C   UNL     1       4.358   6.798  17.063  0.00  0.00    +0.000 C 
ATOM     29  C   UNL     1       5.596   6.046  17.539  0.00  0.00    +0.000 C 
ATOM     30  C   UNL     1       5.398   4.534  17.456  0.00  0.00    +0.000 C 
ATOM     31  C   UNL     1       4.120   4.087  18.164  0.00  0.00    +0.000 C 
ATOM     32  C   UNL     1       2.897   4.882  17.705  0.00  0.00    +0.000 C 
BRANCH  30  33
ATOM     33  O   UNL     1       5.397   4.099  16.095  0.00  0.00    +0.000 OA
ATOM     34  H   UNL     1       5.309   4.871  15.516  0.00  0.00    +0.000 HD
ENDBRANCH  30  33
ENDBRANCH  24  27
ENDBRANCH  16  21
TORSDOF 3
ENDMDL
MODEL 5
REMARK VINA RESULT:      -8.2      1.186      1.417
REMARK  Name = 
REMARK  4 active torsions:
REMARK  status: ('A' for Active; 'I' for Inactive)
REMARK    1  A    between atoms: C_1  and  N_2
REMARK    2  A    between atoms: N_16  and  C_17
REMARK    3  A    between atoms: C_20  and  N_21
REMARK    4  A    between atoms: C_24  and  O_25
REMARK                            x       y       z     vdW  Elec       q    Type
REMARK                         _______ _______ _______ _____ _____    ______ ____
ROOT
ATOM      1  C   UNL     1       0.750  11.226  18.310  0.00  0.00    +0.000 C 
ATOM      2  N   UNL     1      -0.394  10.819  19.119  0.00  0.00    +0.000 N 
ATOM      3  C   UNL     1      -1.663  11.249  18.741  0.00  0.00    +0.000 A 
ATOM      4  C   UNL     1      -2.173  10.927  17.470  0.00  0.00    +0.000 A 
ATOM      5  C   UNL     1      -3.472  11.284  17.093  0.00  0.00    +0.000 A 
ATOM      6  C   UNL     1      -4.272  12.009  17.969  0.00  0.00    +0.000 A 
ATOM      7  C   UNL     1      -3.779  12.353  19.224  0.00  0.00    +0.000 A 
ATOM      8  C   UNL     1      -2.496  11.947  19.620  0.00  0.00    +0.000 A 
ATOM      9  C   UNL     1      -2.098  12.278  21.000  0.00  0.00    +0.000 C 
ATOM     10  O   UNL     1      -2.435  13.355  21.490  0.00  0.00    +0.000 OA
ATOM     11  N   UNL     1      -1.533  11.319  21.802  0.00  0.00    +0.000 N 
ATOM     12  C   UNL     1      -0.742  10.209  21.455  0.00  0.00    +0.000 A 
ATOM     13  C   UNL     1      -0.424   9.284  22.431  0.00  0.00    +0.000 A 
ATOM     14  N   UNL     1       0.435   8.257  22.265  0.00  0.00    +0.000 NA
ATOM     15  C   UNL     1       1.051   8.194  21.083  0.00  0.00    +0.000 A 
ATOM     16  N   UNL     1       1.958   7.153  20.891  0.00  0.00    +0.000 N 
ATOM     17  N   UNL     1       0.806   9.059  20.085  0.00  0.00    +0.000 NA
ATOM     18  C   UNL     1      -0.109  10.029  20.236  0.00  0.00    +0.000 A 
ATOM     19  H   UNL     1      -1.606  11.546  22.783  0.00  0.00    +0.000 HD
ATOM     20  H   UNL     1       1.845   6.433  21.588  0.00  0.00    +0.000 HD
ENDROOT
BRANCH  16  21
ATOM     21  C   UNL     1       2.732   6.878  19.758  0.00  0.00    +0.000 A 
ATOM     22  C   UNL     1       3.651   5.826  19.736  0.00  0.00    +0.000 A 
ATOM     23  C   UNL     1       4.553   5.665  18.683  0.00  0.00    +0.000 A 
ATOM     24  C   UNL     1       4.567   6.538  17.593  0.00  0.00    +0.000 A 
ATOM     25  C   UNL     1       3.595   7.548  17.585  0.00  0.00    +0.000 A 
ATOM     26  C   UNL     1       2.694   7.722  18.649  0.00  0.00    +0.000 A 
BRANCH  24  27
ATOM     27  N   UNL     1       5.500   6.375  16.583  0.00  0.00    +0.000 N 
ATOM     28  C   UNL     1       6.904   6.111  16.876  0.00  0.00    +0.000 C 
ATOM     29  C   UNL     1       7.265   4.684  16.482  0.00  0.00    +0.000 C 
ATOM     30  C   UNL     1       6.870   4.385  15.037  0.00  0.00    +0.000 C 
ATOM     31  C   UNL     1       5.406   4.726  14.765  0.00  0.00    +0.000 C 
ATOM     32  C   UNL     1       5.051   6.146  15.206  0.00  0.00    +0.000 C 
BRANCH  30  33
ATOM     33  O   UNL     1       7.725   5.079  14.126  0.00  0.00    +0.000 OA
ATOM     34  H   UNL     1       7.244   5.833  13.753  0.00  0.00    +0.000 HD
ENDBRANCH  30  33
ENDBRANCH  24  27
ENDBRANCH  16  21
TORSDOF 3
ENDMDL
MODEL 6
REMARK VINA RESULT:      -8.2      3.269      4.451
REMARK  Name = 
REMARK  4 active torsions:
REMARK  status: ('A' for Active; 'I' for Inactive)
REMARK    1  A    between atoms: C_1  and  N_2
REMARK    2  A    between atoms: N_16  and  C_17
REMARK    3  A    between atoms: C_20  and  N_21
REMARK    4  A    between atoms: C_24  and  O_25
REMARK                            x       y       z     vdW  Elec       q    Type
REMARK                         _______ _______ _______ _____ _____    ______ ____
ROOT
ATOM      1  C   UNL     1       2.935  13.586  20.203  0.00  0.00    +0.000 C 
ATOM      2  N   UNL     1       1.763  14.166  19.554  0.00  0.00    +0.000 N 
ATOM      3  C   UNL     1       1.902  15.383  18.893  0.00  0.00    +0.000 A 
ATOM      4  C   UNL     1       2.821  15.516  17.834  0.00  0.00    +0.000 A 
ATOM      5  C   UNL     1       2.928  16.705  17.106  0.00  0.00    +0.000 A 
ATOM      6  C   UNL     1       2.146  17.801  17.451  0.00  0.00    +0.000 A 
ATOM      7  C   UNL     1       1.244  17.695  18.506  0.00  0.00    +0.000 A 
ATOM      8  C   UNL     1       1.099  16.485  19.200  0.00  0.00    +0.000 A 
ATOM      9  C   UNL     1       0.055  16.443  20.239  0.00  0.00    +0.000 C 
ATOM     10  O   UNL     1      -0.141  17.431  20.947  0.00  0.00    +0.000 OA
ATOM     11  N   UNL     1      -0.826  15.394  20.287  0.00  0.00    +0.000 N 
ATOM     12  C   UNL     1      -0.650  14.053  19.900  0.00  0.00    +0.000 A 
ATOM     13  C   UNL     1      -1.744  13.211  19.889  0.00  0.00    +0.000 A 
ATOM     14  N   UNL     1      -1.687  11.880  19.674  0.00  0.00    +0.000 NA
ATOM     15  C   UNL     1      -0.466  11.362  19.527  0.00  0.00    +0.000 A 
ATOM     16  N   UNL     1      -0.377   9.986  19.321  0.00  0.00    +0.000 N 
ATOM     17  N   UNL     1       0.649  12.110  19.535  0.00  0.00    +0.000 NA
ATOM     18  C   UNL     1       0.574  13.443  19.671  0.00  0.00    +0.000 A 
ATOM     19  H   UNL     1      -1.667  15.619  20.798  0.00  0.00    +0.000 HD
ATOM     20  H   UNL     1      -1.269   9.594  19.062  0.00  0.00    +0.000 HD
ENDROOT
BRANCH  16  21
ATOM     21  C   UNL     1       0.775   9.209  19.152  0.00  0.00    +0.000 A 
ATOM     22  C   UNL     1       1.474   9.190  17.944  0.00  0.00    +0.000 A 
ATOM     23  C   UNL     1       2.508   8.281  17.712  0.00  0.00    +0.000 A 
ATOM     24  C   UNL     1       2.903   7.359  18.685  0.00  0.00    +0.000 A 
ATOM     25  C   UNL     1       2.246   7.432  19.921  0.00  0.00    +0.000 A 
ATOM     26  C   UNL     1       1.197   8.336  20.155  0.00  0.00    +0.000 A 
BRANCH  24  27
ATOM     27  N   UNL     1       3.905   6.445  18.411  0.00  0.00    +0.000 N 
ATOM     28  C   UNL     1       3.759   5.031  18.740  0.00  0.00    +0.000 C 
ATOM     29  C   UNL     1       3.622   4.205  17.467  0.00  0.00    +0.000 C 
ATOM     30  C   UNL     1       4.757   4.496  16.486  0.00  0.00    +0.000 C 
ATOM     31  C   UNL     1       4.904   5.992  16.214  0.00  0.00    +0.000 C 
ATOM     32  C   UNL     1       4.996   6.809  17.503  0.00  0.00    +0.000 C 
BRANCH  30  33
ATOM     33  O   UNL     1       5.988   3.948  16.962  0.00  0.00    +0.000 OA
ATOM     34  H   UNL     1       6.051   3.022  16.685  0.00  0.00    +0.000 HD
ENDBRANCH  30  33
ENDBRANCH  24  27
ENDBRANCH  16  21
TORSDOF 3
ENDMDL
MODEL 7
REMARK VINA RESULT:      -8.1      0.924      1.120
REMARK  Name = 
REMARK  4 active torsions:
REMARK  status: ('A' for Active; 'I' for Inactive)
REMARK    1  A    between atoms: C_1  and  N_2
REMARK    2  A    between atoms: N_16  and  C_17
REMARK    3  A    between atoms: C_20  and  N_21
REMARK    4  A    between atoms: C_24  and  O_25
REMARK                            x       y       z     vdW  Elec       q    Type
REMARK                         _______ _______ _______ _____ _____    ______ ____
ROOT
ATOM      1  C   UNL     1      -0.009  10.457  17.956  0.00  0.00    +0.000 C 
ATOM      2  N   UNL     1      -1.015  10.536  19.010  0.00  0.00    +0.000 N 
ATOM      3  C   UNL     1      -2.306  10.932  18.670  0.00  0.00    +0.000 A 
ATOM      4  C   UNL     1      -3.045  10.204  17.720  0.00  0.00    +0.000 A 
ATOM      5  C   UNL     1      -4.369  10.537  17.413  0.00  0.00    +0.000 A 
ATOM      6  C   UNL     1      -4.965  11.635  18.024  0.00  0.00    +0.000 A 
ATOM      7  C   UNL     1      -4.243  12.379  18.953  0.00  0.00    +0.000 A 
ATOM      8  C   UNL     1      -2.935  12.010  19.298  0.00  0.00    +0.000 A 
ATOM      9  C   UNL     1      -2.286  12.802  20.358  0.00  0.00    +0.000 C 
ATOM     10  O   UNL     1      -2.475  14.017  20.414  0.00  0.00    +0.000 OA
ATOM     11  N   UNL     1      -1.642  12.172  21.392  0.00  0.00    +0.000 N 
ATOM     12  C   UNL     1      -0.984  10.929  21.417  0.00  0.00    +0.000 A 
ATOM     13  C   UNL     1      -0.551  10.426  22.629  0.00  0.00    +0.000 A 
ATOM     14  N   UNL     1       0.209   9.322  22.774  0.00  0.00    +0.000 NA
ATOM     15  C   UNL     1       0.607   8.731  21.645  0.00  0.00    +0.000 A 
ATOM     16  N   UNL     1       1.409   7.598  21.766  0.00  0.00    +0.000 N 
ATOM     17  N   UNL     1       0.238   9.163  20.428  0.00  0.00    +0.000 NA
ATOM     18  C   UNL     1      -0.583  10.215  20.299  0.00  0.00    +0.000 A 
ATOM     19  H   UNL     1      -1.532  12.769  22.199  0.00  0.00    +0.000 HD
ATOM     20  H   UNL     1       1.381   7.225  22.703  0.00  0.00    +0.000 HD
ENDROOT
BRANCH  16  21
ATOM     21  C   UNL     1       1.959   6.814  20.745  0.00  0.00    +0.000 A 
ATOM     22  C   UNL     1       2.131   5.436  20.892  0.00  0.00    +0.000 A 
ATOM     23  C   UNL     1       2.845   4.684  19.957  0.00  0.00    +0.000 A 
ATOM     24  C   UNL     1       3.407   5.273  18.822  0.00  0.00    +0.000 A 
ATOM     25  C   UNL     1       3.170   6.644  18.643  0.00  0.00    +0.000 A 
ATOM     26  C   UNL     1       2.463   7.406  19.588  0.00  0.00    +0.000 A 
BRANCH  24  27
ATOM     27  N   UNL     1       4.144   4.509  17.933  0.00  0.00    +0.000 N 
ATOM     28  C   UNL     1       3.911   4.575  16.495  0.00  0.00    +0.000 C 
ATOM     29  C   UNL     1       5.089   5.250  15.801  0.00  0.00    +0.000 C 
ATOM     30  C   UNL     1       6.414   4.593  16.182  0.00  0.00    +0.000 C 
ATOM     31  C   UNL     1       6.588   4.500  17.697  0.00  0.00    +0.000 C 
ATOM     32  C   UNL     1       5.379   3.860  18.380  0.00  0.00    +0.000 C 
BRANCH  30  33
ATOM     33  O   UNL     1       6.528   3.301  15.583  0.00  0.00    +0.000 OA
ATOM     34  H   UNL     1       6.332   2.625  16.249  0.00  0.00    +0.000 HD
ENDBRANCH  30  33
ENDBRANCH  24  27
ENDBRANCH  16  21
TORSDOF 3
ENDMDL
MODEL 8
REMARK VINA RESULT:      -7.8      3.401      4.409
REMARK  Name = 
REMARK  4 active torsions:
REMARK  status: ('A' for Active; 'I' for Inactive)
REMARK    1  A    between atoms: C_1  and  N_2
REMARK    2  A    between atoms: N_16  and  C_17
REMARK    3  A    between atoms: C_20  and  N_21
REMARK    4  A    between atoms: C_24  and  O_25
REMARK                            x       y       z     vdW  Elec       q    Type
REMARK                         _______ _______ _______ _____ _____    ______ ____
ROOT
ATOM      1  C   UNL     1       3.316  13.567  19.896  0.00  0.00    +0.000 C 
ATOM      2  N   UNL     1       2.062  14.184  19.477  0.00  0.00    +0.000 N 
ATOM      3  C   UNL     1       2.113  15.390  18.783  0.00  0.00    +0.000 A 
ATOM      4  C   UNL     1       2.813  15.479  17.565  0.00  0.00    +0.000 A 
ATOM      5  C   UNL     1       2.819  16.658  16.812  0.00  0.00    +0.000 A 
ATOM      6  C   UNL     1       2.156  17.785  17.285  0.00  0.00    +0.000 A 
ATOM      7  C   UNL     1       1.473  17.722  18.495  0.00  0.00    +0.000 A 
ATOM      8  C   UNL     1       1.423  16.523  19.222  0.00  0.00    +0.000 A 
ATOM      9  C   UNL     1       0.598  16.529  20.444  0.00  0.00    +0.000 C 
ATOM     10  O   UNL     1       0.577  17.528  21.161  0.00  0.00    +0.000 OA
ATOM     11  N   UNL     1      -0.293  15.513  20.677  0.00  0.00    +0.000 N 
ATOM     12  C   UNL     1      -0.241  14.163  20.283  0.00  0.00    +0.000 A 
ATOM     13  C   UNL     1      -1.345  13.362  20.496  0.00  0.00    +0.000 A 
ATOM     14  N   UNL     1      -1.378  12.028  20.295  0.00  0.00    +0.000 NA
ATOM     15  C   UNL     1      -0.226  11.464  19.922  0.00  0.00    +0.000 A 
ATOM     16  N   UNL     1      -0.227  10.084  19.725  0.00  0.00    +0.000 N 
ATOM     17  N   UNL     1       0.895  12.171  19.704  0.00  0.00    +0.000 NA
ATOM     18  C   UNL     1       0.893  13.506  19.832  0.00  0.00    +0.000 A 
ATOM     19  H   UNL     1      -1.011  15.773  21.337  0.00  0.00    +0.000 HD
ATOM     20  H   UNL     1      -1.165   9.723  19.649  0.00  0.00    +0.000 HD
ENDROOT
BRANCH  16  21
ATOM     21  C   UNL     1       0.844   9.264  19.349  0.00  0.00    +0.000 A 
ATOM     22  C   UNL     1       1.354   9.277  18.049  0.00  0.00    +0.000 A 
ATOM     23  C   UNL     1       2.291   8.334  17.622  0.00  0.00    +0.000 A 
ATOM     24  C   UNL     1       2.774   7.343  18.481  0.00  0.00    +0.000 A 
ATOM     25  C   UNL     1       2.313   7.381  19.804  0.00  0.00    +0.000 A 
ATOM     26  C   UNL     1       1.361   8.319  20.234  0.00  0.00    +0.000 A 
BRANCH  24  27
ATOM     27  N   UNL     1       3.673   6.399  18.018  0.00  0.00    +0.000 N 
ATOM     28  C   UNL     1       4.596   6.693  16.927  0.00  0.00    +0.000 C 
ATOM     29  C   UNL     1       6.025   6.771  17.452  0.00  0.00    +0.000 C 
ATOM     30  C   UNL     1       6.395   5.523  18.253  0.00  0.00    +0.000 C 
ATOM     31  C   UNL     1       5.372   5.226  19.349  0.00  0.00    +0.000 C 
ATOM     32  C   UNL     1       3.941   5.196  18.811  0.00  0.00    +0.000 C 
BRANCH  30  33
ATOM     33  O   UNL     1       6.548   4.396  17.390  0.00  0.00    +0.000 OA
ATOM     34  H   UNL     1       5.999   3.668  17.719  0.00  0.00    +0.000 HD
ENDBRANCH  30  33
ENDBRANCH  24  27
ENDBRANCH  16  21
TORSDOF 3
ENDMDL
MODEL 9
REMARK VINA RESULT:      -7.7      4.546      6.172
REMARK  Name = 
REMARK  4 active torsions:
REMARK  status: ('A' for Active; 'I' for Inactive)
REMARK    1  A    between atoms: C_1  and  N_2
REMARK    2  A    between atoms: N_16  and  C_17
REMARK    3  A    between atoms: C_20  and  N_21
REMARK    4  A    between atoms: C_24  and  O_25
REMARK                            x       y       z     vdW  Elec       q    Type
REMARK                         _______ _______ _______ _____ _____    ______ ____
ROOT
ATOM      1  C   UNL     1       3.421  13.471  21.644  0.00  0.00    +0.000 C 
ATOM      2  N   UNL     1       3.133  14.408  20.563  0.00  0.00    +0.000 N 
ATOM      3  C   UNL     1       4.033  15.442  20.322  0.00  0.00    +0.000 A 
ATOM      4  C   UNL     1       5.375  15.157  20.006  0.00  0.00    +0.000 A 
ATOM      5  C   UNL     1       6.282  16.173  19.688  0.00  0.00    +0.000 A 
ATOM      6  C   UNL     1       5.872  17.501  19.719  0.00  0.00    +0.000 A 
ATOM      7  C   UNL     1       4.554  17.805  20.046  0.00  0.00    +0.000 A 
ATOM      8  C   UNL     1       3.633  16.781  20.312  0.00  0.00    +0.000 A 
ATOM      9  C   UNL     1       2.240  17.196  20.557  0.00  0.00    +0.000 C 
ATOM     10  O   UNL     1       2.013  18.226  21.192  0.00  0.00    +0.000 OA
ATOM     11  N   UNL     1       1.209  16.559  19.916  0.00  0.00    +0.000 N 
ATOM     12  C   UNL     1       1.114  15.229  19.466  0.00  0.00    +0.000 A 
ATOM     13  C   UNL     1       0.031  14.861  18.693  0.00  0.00    +0.000 A 
ATOM     14  N   UNL     1      -0.250  13.596  18.317  0.00  0.00    +0.000 NA
ATOM     15  C   UNL     1       0.562  12.649  18.794  0.00  0.00    +0.000 A 
ATOM     16  N   UNL     1       0.285  11.331  18.435  0.00  0.00    +0.000 N 
ATOM     17  N   UNL     1       1.631  12.924  19.559  0.00  0.00    +0.000 NA
ATOM     18  C   UNL     1       1.945  14.193  19.861  0.00  0.00    +0.000 A 
ATOM     19  H   UNL     1       0.365  17.114  19.895  0.00  0.00    +0.000 HD
ATOM     20  H   UNL     1      -0.353  11.288  17.655  0.00  0.00    +0.000 HD
ENDROOT
BRANCH  16  21
ATOM     21  C   UNL     1       0.971  10.170  18.810  0.00  0.00    +0.000 A 
ATOM     22  C   UNL     1       1.708   9.425  17.887  0.00  0.00    +0.000 A 
ATOM     23  C   UNL     1       2.237   8.175  18.212  0.00  0.00    +0.000 A 
ATOM     24  C   UNL     1       2.066   7.617  19.482  0.00  0.00    +0.000 A 
ATOM     25  C   UNL     1       1.388   8.401  20.425  0.00  0.00    +0.000 A 
ATOM     26  C   UNL     1       0.843   9.654  20.099  0.00  0.00    +0.000 A 
BRANCH  24  27
ATOM     27  N   UNL     1       2.568   6.358  19.761  0.00  0.00    +0.000 N 
ATOM     28  C   UNL     1       1.903   5.463  20.701  0.00  0.00    +0.000 C 
ATOM     29  C   UNL     1       1.286   4.283  19.959  0.00  0.00    +0.000 C 
ATOM     30  C   UNL     1       2.310   3.587  19.064  0.00  0.00    +0.000 C 
ATOM     31  C   UNL     1       3.016   4.573  18.135  0.00  0.00    +0.000 C 
ATOM     32  C   UNL     1       3.591   5.771  18.892  0.00  0.00    +0.000 C 
BRANCH  30  33
ATOM     33  O   UNL     1       3.261   2.868  19.850  0.00  0.00    +0.000 OA
ATOM     34  H   UNL     1       2.812   2.486  20.620  0.00  0.00    +0.000 HD
ENDBRANCH  30  33
ENDBRANCH  24  27
ENDBRANCH  16  21
TORSDOF 3
ENDMDL
