MODEL 1
REMARK VINA RESULT:     -10.0      0.000      0.000
REMARK  Name = 
REMARK  5 active torsions:
REMARK  status: ('A' for Active; 'I' for Inactive)
REMARK    1  A    between atoms: C_2  and  C_4
REMARK    2  A    between atoms: C_8  and  C_9
REMARK    3  A    between atoms: C_9  and  N_10
REMARK    4  A    between atoms: C_13  and  C_14
REMARK    5  A    between atoms: C_23  and  C_24
REMARK                            x       y       z     vdW  Elec       q    Type
REMARK                         _______ _______ _______ _____ _____    ______ ____
ROOT
ATOM      1  N   UNL     1       5.838   6.160  15.977  0.00  0.00    +0.000 N 
ATOM      2  C   UNL     1       4.903   5.968  16.927  0.00  0.00    +0.000 A 
ATOM      3  N   UNL     1       4.133   6.939  17.341  0.00  0.00    +0.000 NA
ATOM      4  C   UNL     1       3.260   6.505  18.334  0.00  0.00    +0.000 A 
ATOM      5  C   UNL     1       3.324   5.147  18.595  0.00  0.00    +0.000 A 
ATOM      6  S   UNL     1       4.596   4.458  17.681  0.00  0.00    +0.000 S 
ATOM      7  H   UNL     1       5.584   6.785  15.218  0.00  0.00    +0.000 HD
ENDROOT
BRANCH   4   8
ATOM      8  C   UNL     1       2.369   7.485  18.951  0.00  0.00    +0.000 A 
ATOM      9  C   UNL     1       1.963   7.419  20.305  0.00  0.00    +0.000 A 
ATOM     10  C   UNL     1       1.200   8.439  20.889  0.00  0.00    +0.000 A 
ATOM     11  C   UNL     1       0.939   9.545  20.114  0.00  0.00    +0.000 A 
ATOM     12  C   UNL     1       1.321   9.614  18.793  0.00  0.00    +0.000 A 
ATOM     13  C   UNL     1       2.002   8.595  18.175  0.00  0.00    +0.000 A 
ATOM     14  O   UNL     1       1.043  10.828  18.242  0.00  0.00    +0.000 OA
ATOM     15  C   UNL     1       0.807  11.570  19.452  0.00  0.00    +0.000 C 
ATOM     16  O   UNL     1       0.393  10.717  20.542  0.00  0.00    +0.000 OA
ENDBRANCH   4   8
BRANCH   5  17
ATOM     17  C   UNL     1       2.493   4.273  19.430  0.00  0.00    +0.000 A 
ATOM     18  C   UNL     1       1.320   3.674  19.001  0.00  0.00    +0.000 A 
ATOM     19  C   UNL     1       0.595   2.898  19.899  0.00  0.00    +0.000 A 
ATOM     20  C   UNL     1       1.078   2.721  21.183  0.00  0.00    +0.000 A 
ATOM     21  C   UNL     1       2.263   3.343  21.540  0.00  0.00    +0.000 A 
ATOM     22  N   UNL     1       2.958   4.120  20.693  0.00  0.00    +0.000 NA
ENDBRANCH   5  17
BRANCH   1  23
ATOM     23  C   UNL     1       6.853   5.179  15.692  0.00  0.00    +0.000 C 
BRANCH  23  28
ATOM     24  C   UNL     1       6.259   3.625  12.270  0.00  0.00    +0.000 A 
ATOM     25  C   UNL     1       7.217   4.283  11.489  0.00  0.00    +0.000 A 
ATOM     26  C   UNL     1       8.033   5.254  12.064  0.00  0.00    +0.000 A 
ATOM     27  C   UNL     1       7.901   5.564  13.418  0.00  0.00    +0.000 A 
ATOM     28  C   UNL     1       6.936   4.918  14.210  0.00  0.00    +0.000 A 
ATOM     29  C   UNL     1       6.111   3.954  13.621  0.00  0.00    +0.000 A 
BRANCH  24  31
ATOM     30  N   UNL     1       5.938   1.332  11.519  0.00  0.00    +0.000 N 
ATOM     31  C   UNL     1       5.380   2.568  11.712  0.00  0.00    +0.000 C 
ATOM     32  O   UNL     1       4.194   2.769  11.484  0.00  0.00    +0.000 OA
ATOM     33  H   UNL     1       5.300   0.594  11.256  0.00  0.00    +0.000 HD
ATOM     34  H   UNL     1       6.815   1.070  11.943  0.00  0.00    +0.000 HD
ENDBRANCH  24  31
ENDBRANCH  23  28
ENDBRANCH   1  23
TORSDOF 5
ENDMDL
MODEL 2
REMARK VINA RESULT:      -9.8      0.724      1.371
REMARK  Name = 
REMARK  5 active torsions:
REMARK  status: ('A' for Active; 'I' for Inactive)
REMARK    1  A    between atoms: C_2  and  C_4
REMARK    2  A    between atoms: C_8  and  C_9
REMARK    3  A    between atoms: C_9  and  N_10
REMARK    4  A    between atoms: C_13  and  C_14
REMARK    5  A    between atoms: C_23  and  C_24
REMARK                            x       y       z     vdW  Elec       q    Type
REMARK                         _______ _______ _______ _____ _____    ______ ____
ROOT
ATOM      1  N   UNL     1       5.884   6.187  15.790  0.00  0.00    +0.000 N 
ATOM      2  C   UNL     1       4.942   6.049  16.744  0.00  0.00    +0.000 A 
ATOM      3  N   UNL     1       4.204   7.054  17.132  0.00  0.00    +0.000 NA
ATOM      4  C   UNL     1       3.317   6.674  18.135  0.00  0.00    +0.000 A 
ATOM      5  C   UNL     1       3.338   5.322  18.431  0.00  0.00    +0.000 A 
ATOM      6  S   UNL     1       4.588   4.569  17.537  0.00  0.00    +0.000 S 
ATOM      7  H   UNL     1       5.650   6.800  15.015  0.00  0.00    +0.000 HD
ENDROOT
BRANCH   4   8
ATOM      8  C   UNL     1       2.458   7.697  18.725  0.00  0.00    +0.000 A 
ATOM      9  C   UNL     1       1.767   8.666  17.959  0.00  0.00    +0.000 A 
ATOM     10  C   UNL     1       0.864   9.559  18.552  0.00  0.00    +0.000 A 
ATOM     11  C   UNL     1       0.614   9.392  19.894  0.00  0.00    +0.000 A 
ATOM     12  C   UNL     1       1.287   8.459  20.650  0.00  0.00    +0.000 A 
ATOM     13  C   UNL     1       2.233   7.625  20.109  0.00  0.00    +0.000 A 
ATOM     14  O   UNL     1       0.821   8.403  21.929  0.00  0.00    +0.000 OA
ATOM     15  C   UNL     1      -0.415   9.116  21.744  0.00  0.00    +0.000 C 
ATOM     16  O   UNL     1      -0.362  10.013  20.614  0.00  0.00    +0.000 OA
ENDBRANCH   4   8
BRANCH   5  17
ATOM     17  C   UNL     1       2.480   4.496  19.288  0.00  0.00    +0.000 A 
ATOM     18  C   UNL     1       1.329   3.860  18.852  0.00  0.00    +0.000 A 
ATOM     19  C   UNL     1       0.574   3.137  19.770  0.00  0.00    +0.000 A 
ATOM     20  C   UNL     1       1.006   3.048  21.080  0.00  0.00    +0.000 A 
ATOM     21  C   UNL     1       2.171   3.702  21.443  0.00  0.00    +0.000 A 
ATOM     22  N   UNL     1       2.895   4.429  20.575  0.00  0.00    +0.000 NA
ENDBRANCH   5  17
BRANCH   1  23
ATOM     23  C   UNL     1       6.867   5.168  15.532  0.00  0.00    +0.000 C 
BRANCH  23  28
ATOM     24  C   UNL     1       6.294   3.524  12.148  0.00  0.00    +0.000 A 
ATOM     25  C   UNL     1       7.236   4.183  11.349  0.00  0.00    +0.000 A 
ATOM     26  C   UNL     1       8.034   5.183  11.899  0.00  0.00    +0.000 A 
ATOM     27  C   UNL     1       7.901   5.522  13.246  0.00  0.00    +0.000 A 
ATOM     28  C   UNL     1       6.951   4.875  14.055  0.00  0.00    +0.000 A 
ATOM     29  C   UNL     1       6.144   3.881  13.491  0.00  0.00    +0.000 A 
BRANCH  24  31
ATOM     30  N   UNL     1       5.991   1.188  11.536  0.00  0.00    +0.000 N 
ATOM     31  C   UNL     1       5.436   2.437  11.618  0.00  0.00    +0.000 C 
ATOM     32  O   UNL     1       4.264   2.630  11.316  0.00  0.00    +0.000 OA
ATOM     33  H   UNL     1       5.361   0.438  11.290  0.00  0.00    +0.000 HD
ATOM     34  H   UNL     1       6.843   0.951  12.020  0.00  0.00    +0.000 HD
ENDBRANCH  24  31
ENDBRANCH  23  28
ENDBRANCH   1  23
TORSDOF 5
ENDMDL
MODEL 3
REMARK VINA RESULT:      -8.4      2.959      8.946
REMARK  Name = 
REMARK  5 active torsions:
REMARK  status: ('A' for Active; 'I' for Inactive)
REMARK    1  A    between atoms: C_2  and  C_4
REMARK    2  A    between atoms: C_8  and  C_9
REMARK    3  A    between atoms: C_9  and  N_10
REMARK    4  A    between atoms: C_13  and  C_14
REMARK    5  A    between atoms: C_23  and  C_24
REMARK                            x       y       z     vdW  Elec       q    Type
REMARK                         _______ _______ _______ _____ _____    ______ ____
ROOT
ATOM      1  N   UNL     1       1.653  10.112  18.007  0.00  0.00    +0.000 N 
ATOM      2  C   UNL     1       2.054   8.842  18.213  0.00  0.00    +0.000 A 
ATOM      3  N   UNL     1       3.217   8.413  17.801  0.00  0.00    +0.000 NA
ATOM      4  C   UNL     1       3.402   7.069  18.114  0.00  0.00    +0.000 A 
ATOM      5  C   UNL     1       2.379   6.514  18.864  0.00  0.00    +0.000 A 
ATOM      6  S   UNL     1       1.122   7.663  19.040  0.00  0.00    +0.000 S 
ATOM      7  H   UNL     1       2.368  10.827  18.094  0.00  0.00    +0.000 HD
ENDROOT
BRANCH   4   8
ATOM      8  C   UNL     1       4.629   6.415  17.669  0.00  0.00    +0.000 A 
ATOM      9  C   UNL     1       5.420   5.595  18.509  0.00  0.00    +0.000 A 
ATOM     10  C   UNL     1       6.528   4.895  18.014  0.00  0.00    +0.000 A 
ATOM     11  C   UNL     1       6.759   4.971  16.660  0.00  0.00    +0.000 A 
ATOM     12  C   UNL     1       6.003   5.774  15.836  0.00  0.00    +0.000 A 
ATOM     13  C   UNL     1       4.960   6.530  16.310  0.00  0.00    +0.000 A 
ATOM     14  O   UNL     1       6.344   5.630  14.526  0.00  0.00    +0.000 OA
ATOM     15  C   UNL     1       7.104   4.412  14.629  0.00  0.00    +0.000 C 
ATOM     16  O   UNL     1       7.650   4.221  15.952  0.00  0.00    +0.000 OA
ENDBRANCH   4   8
BRANCH   5  17
ATOM     17  C   UNL     1       2.248   5.210  19.523  0.00  0.00    +0.000 A 
ATOM     18  C   UNL     1       2.241   5.031  20.897  0.00  0.00    +0.000 A 
ATOM     19  C   UNL     1       2.154   3.740  21.405  0.00  0.00    +0.000 A 
ATOM     20  C   UNL     1       2.044   2.675  20.529  0.00  0.00    +0.000 A 
ATOM     21  C   UNL     1       2.048   2.929  19.168  0.00  0.00    +0.000 A 
ATOM     22  N   UNL     1       2.163   4.168  18.663  0.00  0.00    +0.000 NA
ENDBRANCH   5  17
BRANCH   1  23
ATOM     23  C   UNL     1       0.292  10.529  18.224  0.00  0.00    +0.000 C 
BRANCH  23  28
ATOM     24  C   UNL     1      -0.599  11.583  21.770  0.00  0.00    +0.000 A 
ATOM     25  C   UNL     1      -0.200  12.925  21.776  0.00  0.00    +0.000 A 
ATOM     26  C   UNL     1       0.388  13.479  20.642  0.00  0.00    +0.000 A 
ATOM     27  C   UNL     1       0.572  12.701  19.499  0.00  0.00    +0.000 A 
ATOM     28  C   UNL     1       0.185  11.349  19.484  0.00  0.00    +0.000 A 
ATOM     29  C   UNL     1      -0.392  10.797  20.633  0.00  0.00    +0.000 A 
BRANCH  24  31
ATOM     30  N   UNL     1      -0.702   9.786  23.407  0.00  0.00    +0.000 N 
ATOM     31  C   UNL     1      -1.251  10.951  22.943  0.00  0.00    +0.000 C 
ATOM     32  O   UNL     1      -2.202  11.472  23.510  0.00  0.00    +0.000 OA
ATOM     33  H   UNL     1      -1.078   9.433  24.276  0.00  0.00    +0.000 HD
ATOM     34  H   UNL     1       0.222   9.486  23.136  0.00  0.00    +0.000 HD
ENDBRANCH  24  31
ENDBRANCH  23  28
ENDBRANCH   1  23
TORSDOF 5
ENDMDL
MODEL 4
REMARK VINA RESULT:      -8.3      3.017      8.950
REMARK  Name = 
REMARK  5 active torsions:
REMARK  status: ('A' for Active; 'I' for Inactive)
REMARK    1  A    between atoms: C_2  and  C_4
REMARK    2  A    between atoms: C_8  and  C_9
REMARK    3  A    between atoms: C_9  and  N_10
REMARK    4  A    between atoms: C_13  and  C_14
REMARK    5  A    between atoms: C_23  and  C_24
REMARK                            x       y       z     vdW  Elec       q    Type
REMARK                         _______ _______ _______ _____ _____    ______ ____
ROOT
ATOM      1  N   UNL     1       1.626   8.252  20.625  0.00  0.00    +0.000 N 
ATOM      2  C   UNL     1       2.242   7.201  20.050  0.00  0.00    +0.000 A 
ATOM      3  N   UNL     1       3.229   7.358  19.209  0.00  0.00    +0.000 NA
ATOM      4  C   UNL     1       3.692   6.133  18.736  0.00  0.00    +0.000 A 
ATOM      5  C   UNL     1       3.086   5.033  19.319  0.00  0.00    +0.000 A 
ATOM      6  S   UNL     1       1.831   5.563  20.355  0.00  0.00    +0.000 S 
ATOM      7  H   UNL     1       2.222   9.030  20.890  0.00  0.00    +0.000 HD
ENDROOT
BRANCH   4   8
ATOM      8  C   UNL     1       4.758   6.132  17.738  0.00  0.00    +0.000 A 
ATOM      9  C   UNL     1       6.075   6.573  18.010  0.00  0.00    +0.000 A 
ATOM     10  C   UNL     1       7.097   6.450  17.059  0.00  0.00    +0.000 A 
ATOM     11  C   UNL     1       6.783   5.806  15.886  0.00  0.00    +0.000 A 
ATOM     12  C   UNL     1       5.503   5.383  15.607  0.00  0.00    +0.000 A 
ATOM     13  C   UNL     1       4.467   5.560  16.490  0.00  0.00    +0.000 A 
ATOM     14  O   UNL     1       5.434   4.692  14.436  0.00  0.00    +0.000 OA
ATOM     15  C   UNL     1       6.838   4.436  14.249  0.00  0.00    +0.000 C 
ATOM     16  O   UNL     1       7.664   5.410  14.924  0.00  0.00    +0.000 OA
ENDBRANCH   4   8
BRANCH   5  17
ATOM     17  C   UNL     1       3.374   3.597  19.228  0.00  0.00    +0.000 A 
ATOM     18  C   UNL     1       4.295   2.938  20.025  0.00  0.00    +0.000 A 
ATOM     19  C   UNL     1       4.513   1.580  19.816  0.00  0.00    +0.000 A 
ATOM     20  C   UNL     1       3.784   0.920  18.844  0.00  0.00    +0.000 A 
ATOM     21  C   UNL     1       2.873   1.641  18.090  0.00  0.00    +0.000 A 
ATOM     22  N   UNL     1       2.674   2.959  18.260  0.00  0.00    +0.000 NA
ENDBRANCH   5  17
BRANCH   1  23
ATOM     23  C   UNL     1       0.388   8.114  21.347  0.00  0.00    +0.000 C 
BRANCH  23  28
ATOM     24  C   UNL     1      -0.974  11.594  20.633  0.00  0.00    +0.000 A 
ATOM     25  C   UNL     1      -1.295  12.043  21.920  0.00  0.00    +0.000 A 
ATOM     26  C   UNL     1      -1.100  11.206  23.015  0.00  0.00    +0.000 A 
ATOM     27  C   UNL     1      -0.579   9.925  22.831  0.00  0.00    +0.000 A 
ATOM     28  C   UNL     1      -0.264   9.459  21.543  0.00  0.00    +0.000 A 
ATOM     29  C   UNL     1      -0.476  10.301  20.447  0.00  0.00    +0.000 A 
BRANCH  24  31
ATOM     30  N   UNL     1      -1.597  13.728  19.642  0.00  0.00    +0.000 N 
ATOM     31  C   UNL     1      -1.142  12.453  19.435  0.00  0.00    +0.000 C 
ATOM     32  O   UNL     1      -0.836  12.065  18.315  0.00  0.00    +0.000 OA
ATOM     33  H   UNL     1      -1.589  14.338  18.837  0.00  0.00    +0.000 HD
ATOM     34  H   UNL     1      -1.597  14.153  20.557  0.00  0.00    +0.000 HD
ENDBRANCH  24  31
ENDBRANCH  23  28
ENDBRANCH   1  23
TORSDOF 5
ENDMDL
MODEL 5
REMARK VINA RESULT:      -8.3      3.997      6.924
REMARK  Name = 
REMARK  5 active torsions:
REMARK  status: ('A' for Active; 'I' for Inactive)
REMARK    1  A    between atoms: C_2  and  C_4
REMARK    2  A    between atoms: C_8  and  C_9
REMARK    3  A    between atoms: C_9  and  N_10
REMARK    4  A    between atoms: C_13  and  C_14
REMARK    5  A    between atoms: C_23  and  C_24
REMARK                            x       y       z     vdW  Elec       q    Type
REMARK                         _______ _______ _______ _____ _____    ______ ____
ROOT
ATOM      1  N   UNL     1       2.368   8.447  17.839  0.00  0.00    +0.000 N 
ATOM      2  C   UNL     1       1.845   9.543  18.422  0.00  0.00    +0.000 A 
ATOM      3  N   UNL     1       2.183  10.748  18.050  0.00  0.00    +0.000 NA
ATOM      4  C   UNL     1       1.526  11.715  18.806  0.00  0.00    +0.000 A 
ATOM      5  C   UNL     1       0.602  11.206  19.703  0.00  0.00    +0.000 A 
ATOM      6  S   UNL     1       0.682   9.496  19.683  0.00  0.00    +0.000 S 
ATOM      7  H   UNL     1       2.515   8.501  16.836  0.00  0.00    +0.000 HD
ENDROOT
BRANCH   4   8
ATOM      8  C   UNL     1       1.838  13.120  18.557  0.00  0.00    +0.000 A 
ATOM      9  C   UNL     1       0.920  14.172  18.793  0.00  0.00    +0.000 A 
ATOM     10  C   UNL     1       1.295  15.514  18.651  0.00  0.00    +0.000 A 
ATOM     11  C   UNL     1       2.615  15.765  18.356  0.00  0.00    +0.000 A 
ATOM     12  C   UNL     1       3.513  14.749  18.115  0.00  0.00    +0.000 A 
ATOM     13  C   UNL     1       3.152  13.427  18.173  0.00  0.00    +0.000 A 
ATOM     14  O   UNL     1       4.779  15.217  17.933  0.00  0.00    +0.000 OA
ATOM     15  C   UNL     1       4.599  16.546  18.453  0.00  0.00    +0.000 C 
ATOM     16  O   UNL     1       3.225  16.983  18.369  0.00  0.00    +0.000 OA
ENDBRANCH   4   8
BRANCH   5  17
ATOM     17  C   UNL     1      -0.392  11.861  20.559  0.00  0.00    +0.000 A 
ATOM     18  C   UNL     1      -1.707  12.090  20.187  0.00  0.00    +0.000 A 
ATOM     19  C   UNL     1      -2.547  12.760  21.069  0.00  0.00    +0.000 A 
ATOM     20  C   UNL     1      -2.058  13.152  22.302  0.00  0.00    +0.000 A 
ATOM     21  C   UNL     1      -0.736  12.883  22.610  0.00  0.00    +0.000 A 
ATOM     22  N   UNL     1       0.096  12.264  21.756  0.00  0.00    +0.000 NA
ENDBRANCH   5  17
BRANCH   1  23
ATOM     23  C   UNL     1       2.204   7.130  18.397  0.00  0.00    +0.000 C 
BRANCH  23  28
ATOM     24  C   UNL     1       5.492   5.870  16.953  0.00  0.00    +0.000 A 
ATOM     25  C   UNL     1       5.208   4.516  16.739  0.00  0.00    +0.000 A 
ATOM     26  C   UNL     1       3.962   4.004  17.093  0.00  0.00    +0.000 A 
ATOM     27  C   UNL     1       2.996   4.841  17.652  0.00  0.00    +0.000 A 
ATOM     28  C   UNL     1       3.274   6.200  17.882  0.00  0.00    +0.000 A 
ATOM     29  C   UNL     1       4.533   6.703  17.537  0.00  0.00    +0.000 A 
BRANCH  24  31
ATOM     30  N   UNL     1       7.189   7.587  17.260  0.00  0.00    +0.000 N 
ATOM     31  C   UNL     1       6.795   6.470  16.574  0.00  0.00    +0.000 C 
ATOM     32  O   UNL     1       7.516   5.961  15.726  0.00  0.00    +0.000 OA
ATOM     33  H   UNL     1       8.128   7.912  17.078  0.00  0.00    +0.000 HD
ATOM     34  H   UNL     1       6.754   7.863  18.128  0.00  0.00    +0.000 HD
ENDBRANCH  24  31
ENDBRANCH  23  28
ENDBRANCH   1  23
TORSDOF 5
ENDMDL
MODEL 6
REMARK VINA RESULT:      -8.2      4.247      7.524
REMARK  Name = 
REMARK  5 active torsions:
REMARK  status: ('A' for Active; 'I' for Inactive)
REMARK    1  A    between atoms: C_2  and  C_4
REMARK    2  A    between atoms: C_8  and  C_9
REMARK    3  A    between atoms: C_9  and  N_10
REMARK    4  A    between atoms: C_13  and  C_14
REMARK    5  A    between atoms: C_23  and  C_24
REMARK                            x       y       z     vdW  Elec       q    Type
REMARK                         _______ _______ _______ _____ _____    ______ ____
ROOT
ATOM      1  N   UNL     1       1.482   8.481  17.823  0.00  0.00    +0.000 N 
ATOM      2  C   UNL     1       0.806   9.617  18.081  0.00  0.00    +0.000 A 
ATOM      3  N   UNL     1      -0.471   9.729  17.827  0.00  0.00    +0.000 NA
ATOM      4  C   UNL     1      -0.944  10.995  18.162  0.00  0.00    +0.000 A 
ATOM      5  C   UNL     1      -0.005  11.812  18.769  0.00  0.00    +0.000 A 
ATOM      6  S   UNL     1       1.511  11.018  18.776  0.00  0.00    +0.000 S 
ATOM      7  H   UNL     1       0.987   7.613  18.005  0.00  0.00    +0.000 HD
ENDROOT
BRANCH   4   8
ATOM      8  C   UNL     1      -2.343  11.308  17.884  0.00  0.00    +0.000 A 
ATOM      9  C   UNL     1      -2.954  11.080  16.627  0.00  0.00    +0.000 A 
ATOM     10  C   UNL     1      -4.326  11.288  16.434  0.00  0.00    +0.000 A 
ATOM     11  C   UNL     1      -5.066  11.638  17.539  0.00  0.00    +0.000 A 
ATOM     12  C   UNL     1      -4.480  11.872  18.763  0.00  0.00    +0.000 A 
ATOM     13  C   UNL     1      -3.128  11.750  18.960  0.00  0.00    +0.000 A 
ATOM     14  O   UNL     1      -5.403  12.116  19.734  0.00  0.00    +0.000 OA
ATOM     15  C   UNL     1      -6.575  11.642  19.049  0.00  0.00    +0.000 C 
ATOM     16  O   UNL     1      -6.425  11.694  17.613  0.00  0.00    +0.000 OA
ENDBRANCH   4   8
BRANCH   5  17
ATOM     17  C   UNL     1      -0.121  13.129  19.404  0.00  0.00    +0.000 A 
ATOM     18  C   UNL     1      -0.237  14.320  18.707  0.00  0.00    +0.000 A 
ATOM     19  C   UNL     1      -0.297  15.513  19.420  0.00  0.00    +0.000 A 
ATOM     20  C   UNL     1      -0.272  15.475  20.803  0.00  0.00    +0.000 A 
ATOM     21  C   UNL     1      -0.164  14.247  21.433  0.00  0.00    +0.000 A 
ATOM     22  N   UNL     1      -0.074  13.090  20.757  0.00  0.00    +0.000 NA
ENDBRANCH   5  17
BRANCH   1  23
ATOM     23  C   UNL     1       2.920   8.421  17.858  0.00  0.00    +0.000 C 
BRANCH  23  28
ATOM     24  C   UNL     1       5.023   5.448  16.755  0.00  0.00    +0.000 A 
ATOM     25  C   UNL     1       4.205   4.371  17.120  0.00  0.00    +0.000 A 
ATOM     26  C   UNL     1       2.987   4.608  17.753  0.00  0.00    +0.000 A 
ATOM     27  C   UNL     1       2.580   5.916  18.016  0.00  0.00    +0.000 A 
ATOM     28  C   UNL     1       3.397   7.004  17.664  0.00  0.00    +0.000 A 
ATOM     29  C   UNL     1       4.625   6.757  17.041  0.00  0.00    +0.000 A 
BRANCH  24  31
ATOM     30  N   UNL     1       7.295   6.183  16.287  0.00  0.00    +0.000 N 
ATOM     31  C   UNL     1       6.318   5.251  16.059  0.00  0.00    +0.000 C 
ATOM     32  O   UNL     1       6.529   4.272  15.355  0.00  0.00    +0.000 OA
ATOM     33  H   UNL     1       8.206   5.972  15.906  0.00  0.00    +0.000 HD
ATOM     34  H   UNL     1       7.243   6.834  17.055  0.00  0.00    +0.000 HD
ENDBRANCH  24  31
ENDBRANCH  23  28
ENDBRANCH   1  23
TORSDOF 5
ENDMDL
MODEL 7
REMARK VINA RESULT:      -8.2      3.123      8.550
REMARK  Name = 
REMARK  5 active torsions:
REMARK  status: ('A' for Active; 'I' for Inactive)
REMARK    1  A    between atoms: C_2  and  C_4
REMARK    2  A    between atoms: C_8  and  C_9
REMARK    3  A    between atoms: C_9  and  N_10
REMARK    4  A    between atoms: C_13  and  C_14
REMARK    5  A    between atoms: C_23  and  C_24
REMARK                            x       y       z     vdW  Elec       q    Type
REMARK                         _______ _______ _______ _____ _____    ______ ____
ROOT
ATOM      1  N   UNL     1       2.102  10.047  18.218  0.00  0.00    +0.000 N 
ATOM      2  C   UNL     1       2.263   8.722  18.402  0.00  0.00    +0.000 A 
ATOM      3  N   UNL     1       3.177   8.044  17.760  0.00  0.00    +0.000 NA
ATOM      4  C   UNL     1       3.141   6.695  18.102  0.00  0.00    +0.000 A 
ATOM      5  C   UNL     1       2.230   6.385  19.098  0.00  0.00    +0.000 A 
ATOM      6  S   UNL     1       1.325   7.783  19.489  0.00  0.00    +0.000 S 
ATOM      7  H   UNL     1       2.953  10.589  18.096  0.00  0.00    +0.000 HD
ENDROOT
BRANCH   4   8
ATOM      8  C   UNL     1       4.060   5.784  17.427  0.00  0.00    +0.000 A 
ATOM      9  C   UNL     1       3.742   4.436  17.137  0.00  0.00    +0.000 A 
ATOM     10  C   UNL     1       4.606   3.626  16.387  0.00  0.00    +0.000 A 
ATOM     11  C   UNL     1       5.733   4.225  15.874  0.00  0.00    +0.000 A 
ATOM     12  C   UNL     1       6.057   5.532  16.159  0.00  0.00    +0.000 A 
ATOM     13  C   UNL     1       5.266   6.324  16.954  0.00  0.00    +0.000 A 
ATOM     14  O   UNL     1       7.161   5.947  15.478  0.00  0.00    +0.000 OA
ATOM     15  C   UNL     1       7.228   4.891  14.504  0.00  0.00    +0.000 C 
ATOM     16  O   UNL     1       6.592   3.680  14.968  0.00  0.00    +0.000 OA
ENDBRANCH   4   8
BRANCH   5  17
ATOM     17  C   UNL     1       1.986   5.147  19.846  0.00  0.00    +0.000 A 
ATOM     18  C   UNL     1       2.539   4.865  21.085  0.00  0.00    +0.000 A 
ATOM     19  C   UNL     1       2.266   3.637  21.678  0.00  0.00    +0.000 A 
ATOM     20  C   UNL     1       1.429   2.746  21.032  0.00  0.00    +0.000 A 
ATOM     21  C   UNL     1       0.904   3.098  19.800  0.00  0.00    +0.000 A 
ATOM     22  N   UNL     1       1.183   4.267  19.201  0.00  0.00    +0.000 NA
ENDBRANCH   5  17
BRANCH   1  23
ATOM     23  C   UNL     1       0.952  10.756  18.716  0.00  0.00    +0.000 C 
BRANCH  23  28
ATOM     24  C   UNL     1       2.629  14.166  18.910  0.00  0.00    +0.000 A 
ATOM     25  C   UNL     1       2.247  14.598  20.186  0.00  0.00    +0.000 A 
ATOM     26  C   UNL     1       1.419  13.799  20.970  0.00  0.00    +0.000 A 
ATOM     27  C   UNL     1       0.978  12.566  20.489  0.00  0.00    +0.000 A 
ATOM     28  C   UNL     1       1.346  12.127  19.205  0.00  0.00    +0.000 A 
ATOM     29  C   UNL     1       2.166  12.942  18.418  0.00  0.00    +0.000 A 
BRANCH  24  31
ATOM     30  N   UNL     1       4.681  14.369  17.618  0.00  0.00    +0.000 N 
ATOM     31  C   UNL     1       3.527  14.969  18.044  0.00  0.00    +0.000 C 
ATOM     32  O   UNL     1       3.228  16.098  17.677  0.00  0.00    +0.000 OA
ATOM     33  H   UNL     1       5.220  14.880  16.933  0.00  0.00    +0.000 HD
ATOM     34  H   UNL     1       4.818  13.371  17.679  0.00  0.00    +0.000 HD
ENDBRANCH  24  31
ENDBRANCH  23  28
ENDBRANCH   1  23
TORSDOF 5
ENDMDL
MODEL 8
REMARK VINA RESULT:      -8.2      3.056      8.483
REMARK  Name = 
REMARK  5 active torsions:
REMARK  status: ('A' for Active; 'I' for Inactive)
REMARK    1  A    between atoms: C_2  and  C_4
REMARK    2  A    between atoms: C_8  and  C_9
REMARK    3  A    between atoms: C_9  and  N_10
REMARK    4  A    between atoms: C_13  and  C_14
REMARK    5  A    between atoms: C_23  and  C_24
REMARK                            x       y       z     vdW  Elec       q    Type
REMARK                         _______ _______ _______ _____ _____    ______ ____
ROOT
ATOM      1  N   UNL     1       2.092   9.973  18.332  0.00  0.00    +0.000 N 
ATOM      2  C   UNL     1       2.254   8.643  18.474  0.00  0.00    +0.000 A 
ATOM      3  N   UNL     1       3.175   7.989  17.817  0.00  0.00    +0.000 NA
ATOM      4  C   UNL     1       3.140   6.629  18.113  0.00  0.00    +0.000 A 
ATOM      5  C   UNL     1       2.223   6.283  19.091  0.00  0.00    +0.000 A 
ATOM      6  S   UNL     1       1.310   7.666  19.521  0.00  0.00    +0.000 S 
ATOM      7  H   UNL     1       2.941  10.520  18.235  0.00  0.00    +0.000 HD
ENDROOT
BRANCH   4   8
ATOM      8  C   UNL     1       4.067   5.743  17.415  0.00  0.00    +0.000 A 
ATOM      9  C   UNL     1       3.749   4.408  17.065  0.00  0.00    +0.000 A 
ATOM     10  C   UNL     1       4.622   3.627  16.296  0.00  0.00    +0.000 A 
ATOM     11  C   UNL     1       5.758   4.242  15.825  0.00  0.00    +0.000 A 
ATOM     12  C   UNL     1       6.081   5.536  16.168  0.00  0.00    +0.000 A 
ATOM     13  C   UNL     1       5.281   6.297  16.982  0.00  0.00    +0.000 A 
ATOM     14  O   UNL     1       7.196   5.975  15.521  0.00  0.00    +0.000 OA
ATOM     15  C   UNL     1       7.275   4.959  14.505  0.00  0.00    +0.000 C 
ATOM     16  O   UNL     1       6.629   3.732  14.910  0.00  0.00    +0.000 OA
ENDBRANCH   4   8
BRANCH   5  17
ATOM     17  C   UNL     1       1.975   5.021  19.796  0.00  0.00    +0.000 A 
ATOM     18  C   UNL     1       1.218   3.980  19.282  0.00  0.00    +0.000 A 
ATOM     19  C   UNL     1       1.018   2.847  20.063  0.00  0.00    +0.000 A 
ATOM     20  C   UNL     1       1.604   2.776  21.314  0.00  0.00    +0.000 A 
ATOM     21  C   UNL     1       2.355   3.850  21.759  0.00  0.00    +0.000 A 
ATOM     22  N   UNL     1       2.531   4.963  21.029  0.00  0.00    +0.000 NA
ENDBRANCH   5  17
BRANCH   1  23
ATOM     23  C   UNL     1       0.936  10.662  18.845  0.00  0.00    +0.000 C 
BRANCH  23  28
ATOM     24  C   UNL     1       2.604  14.081  18.761  0.00  0.00    +0.000 A 
ATOM     25  C   UNL     1       1.496  14.937  18.787  0.00  0.00    +0.000 A 
ATOM     26  C   UNL     1       0.209  14.407  18.798  0.00  0.00    +0.000 A 
ATOM     27  C   UNL     1       0.023  13.025  18.792  0.00  0.00    +0.000 A 
ATOM     28  C   UNL     1       1.127  12.154  18.755  0.00  0.00    +0.000 A 
ATOM     29  C   UNL     1       2.416  12.696  18.729  0.00  0.00    +0.000 A 
BRANCH  24  31
ATOM     30  N   UNL     1       4.699  14.506  17.599  0.00  0.00    +0.000 N 
ATOM     31  C   UNL     1       3.995  14.594  18.770  0.00  0.00    +0.000 C 
ATOM     32  O   UNL     1       4.480  15.124  19.762  0.00  0.00    +0.000 OA
ATOM     33  H   UNL     1       5.598  14.968  17.586  0.00  0.00    +0.000 HD
ATOM     34  H   UNL     1       4.246  14.328  16.716  0.00  0.00    +0.000 HD
ENDBRANCH  24  31
ENDBRANCH  23  28
ENDBRANCH   1  23
TORSDOF 5
ENDMDL
MODEL 9
REMARK VINA RESULT:      -8.2      2.818      8.878
REMARK  Name = 
REMARK  5 active torsions:
REMARK  status: ('A' for Active; 'I' for Inactive)
REMARK    1  A    between atoms: C_2  and  C_4
REMARK    2  A    between atoms: C_8  and  C_9
REMARK    3  A    between atoms: C_9  and  N_10
REMARK    4  A    between atoms: C_13  and  C_14
REMARK    5  A    between atoms: C_23  and  C_24
REMARK                            x       y       z     vdW  Elec       q    Type
REMARK                         _______ _______ _______ _____ _____    ______ ____
ROOT
ATOM      1  N   UNL     1       1.643   8.286  20.586  0.00  0.00    +0.000 N 
ATOM      2  C   UNL     1       2.234   7.230  19.993  0.00  0.00    +0.000 A 
ATOM      3  N   UNL     1       3.235   7.377  19.167  0.00  0.00    +0.000 NA
ATOM      4  C   UNL     1       3.666   6.151  18.670  0.00  0.00    +0.000 A 
ATOM      5  C   UNL     1       3.022   5.056  19.220  0.00  0.00    +0.000 A 
ATOM      6  S   UNL     1       1.772   5.599  20.255  0.00  0.00    +0.000 S 
ATOM      7  H   UNL     1       2.258   9.040  20.875  0.00  0.00    +0.000 HD
ENDROOT
BRANCH   4   8
ATOM      8  C   UNL     1       4.742   6.142  17.683  0.00  0.00    +0.000 A 
ATOM      9  C   UNL     1       6.059   6.578  17.967  0.00  0.00    +0.000 A 
ATOM     10  C   UNL     1       7.090   6.448  17.027  0.00  0.00    +0.000 A 
ATOM     11  C   UNL     1       6.786   5.799  15.853  0.00  0.00    +0.000 A 
ATOM     12  C   UNL     1       5.507   5.380  15.563  0.00  0.00    +0.000 A 
ATOM     13  C   UNL     1       4.463   5.565  16.435  0.00  0.00    +0.000 A 
ATOM     14  O   UNL     1       5.448   4.684  14.394  0.00  0.00    +0.000 OA
ATOM     15  C   UNL     1       6.852   4.423  14.223  0.00  0.00    +0.000 C 
ATOM     16  O   UNL     1       7.675   5.396  14.903  0.00  0.00    +0.000 OA
ENDBRANCH   4   8
BRANCH   5  17
ATOM     17  C   UNL     1       3.269   3.615  19.099  0.00  0.00    +0.000 A 
ATOM     18  C   UNL     1       2.590   2.781  18.225  0.00  0.00    +0.000 A 
ATOM     19  C   UNL     1       2.882   1.421  18.230  0.00  0.00    +0.000 A 
ATOM     20  C   UNL     1       3.861   0.944  19.083  0.00  0.00    +0.000 A 
ATOM     21  C   UNL     1       4.505   1.837  19.923  0.00  0.00    +0.000 A 
ATOM     22  N   UNL     1       4.212   3.147  19.950  0.00  0.00    +0.000 NA
ENDBRANCH   5  17
BRANCH   1  23
ATOM     23  C   UNL     1       0.393   8.167  21.292  0.00  0.00    +0.000 C 
BRANCH  23  28
ATOM     24  C   UNL     1      -0.795  11.722  20.637  0.00  0.00    +0.000 A 
ATOM     25  C   UNL     1      -1.203  12.125  21.914  0.00  0.00    +0.000 A 
ATOM     26  C   UNL     1      -1.124  11.233  22.981  0.00  0.00    +0.000 A 
ATOM     27  C   UNL     1      -0.631   9.945  22.779  0.00  0.00    +0.000 A 
ATOM     28  C   UNL     1      -0.229   9.525  21.499  0.00  0.00    +0.000 A 
ATOM     29  C   UNL     1      -0.325  10.421  20.430  0.00  0.00    +0.000 A 
BRANCH  24  31
ATOM     30  N   UNL     1      -0.539  12.104  18.247  0.00  0.00    +0.000 N 
ATOM     31  C   UNL     1      -0.839  12.639  19.471  0.00  0.00    +0.000 C 
ATOM     32  O   UNL     1      -1.180  13.809  19.584  0.00  0.00    +0.000 OA
ATOM     33  H   UNL     1      -0.691  12.707  17.450  0.00  0.00    +0.000 HD
ATOM     34  H   UNL     1      -0.521  11.108  18.089  0.00  0.00    +0.000 HD
ENDBRANCH  24  31
ENDBRANCH  23  28
ENDBRANCH   1  23
TORSDOF 5
ENDMDL
