MODEL 1
REMARK VINA RESULT:      -6.1      0.000      0.000
REMARK  Name = 
REMARK  3 active torsions:
REMARK  status: ('A' for Active; 'I' for Inactive)
REMARK    1  A    between atoms: C_1  and  C_2
REMARK    2  A    between atoms: C_2  and  C_4
REMARK    3  A    between atoms: C_5  and  C_6
REMARK                            x       y       z     vdW  Elec       q    Type
REMARK                         _______ _______ _______ _____ _____    ______ ____
ROOT
ATOM      1  C   UNL     1       2.744   4.829  18.418  0.00  0.00    +0.000 A 
ATOM      2  C   UNL     1       2.637   5.360  19.715  0.00  0.00    +0.000 A 
ATOM      3  C   UNL     1       1.759   4.805  20.649  0.00  0.00    +0.000 A 
ATOM      4  C   UNL     1       0.960   3.723  20.291  0.00  0.00    +0.000 A 
ATOM      5  C   UNL     1       1.040   3.216  19.000  0.00  0.00    +0.000 A 
ATOM      6  F   UNL     1       0.263   2.182  18.653  0.00  0.00    +0.000 F 
ATOM      7  C   UNL     1       1.915   3.759  18.062  0.00  0.00    +0.000 A 
ENDROOT
BRANCH   1   9
ATOM      8  C   UNL     1       4.544   4.635  16.733  0.00  0.00    +0.000 C 
ATOM      9  C   UNL     1       3.668   5.384  17.419  0.00  0.00    +0.000 C 
BRANCH   8  11
ATOM     10  C   UNL     1       5.934   4.323  14.632  0.00  0.00    +0.000 C 
ATOM     11  C   UNL     1       5.453   5.243  15.722  0.00  0.00    +0.000 C 
ATOM     12  O   UNL     1       5.791   6.422  15.778  0.00  0.00    +0.000 OA
ENDBRANCH   8  11
ENDBRANCH   1   9
TORSDOF 2
ENDMDL
MODEL 2
REMARK VINA RESULT:      -6.1      1.050      1.387
REMARK  Name = 
REMARK  3 active torsions:
REMARK  status: ('A' for Active; 'I' for Inactive)
REMARK    1  A    between atoms: C_1  and  C_2
REMARK    2  A    between atoms: C_2  and  C_4
REMARK    3  A    between atoms: C_5  and  C_6
REMARK                            x       y       z     vdW  Elec       q    Type
REMARK                         _______ _______ _______ _____ _____    ______ ____
ROOT
ATOM      1  C   UNL     1       3.483   4.016  17.374  0.00  0.00    +0.000 A 
ATOM      2  C   UNL     1       3.277   5.142  18.188  0.00  0.00    +0.000 A 
ATOM      3  C   UNL     1       2.242   5.170  19.127  0.00  0.00    +0.000 A 
ATOM      4  C   UNL     1       1.388   4.079  19.248  0.00  0.00    +0.000 A 
ATOM      5  C   UNL     1       1.569   2.976  18.422  0.00  0.00    +0.000 A 
ATOM      6  F   UNL     1       0.740   1.931  18.533  0.00  0.00    +0.000 F 
ATOM      7  C   UNL     1       2.599   2.937  17.486  0.00  0.00    +0.000 A 
ENDROOT
BRANCH   1   9
ATOM      8  C   UNL     1       5.358   4.997  16.093  0.00  0.00    +0.000 C 
ATOM      9  C   UNL     1       4.570   3.952  16.386  0.00  0.00    +0.000 C 
BRANCH   8  11
ATOM     10  C   UNL     1       6.195   3.947  13.939  0.00  0.00    +0.000 C 
ATOM     11  C   UNL     1       6.455   4.879  15.093  0.00  0.00    +0.000 C 
ATOM     12  O   UNL     1       7.507   5.502  15.206  0.00  0.00    +0.000 OA
ENDBRANCH   8  11
ENDBRANCH   1   9
TORSDOF 2
ENDMDL
MODEL 3
REMARK VINA RESULT:      -6.1      4.900      5.527
REMARK  Name = 
REMARK  3 active torsions:
REMARK  status: ('A' for Active; 'I' for Inactive)
REMARK    1  A    between atoms: C_1  and  C_2
REMARK    2  A    between atoms: C_2  and  C_4
REMARK    3  A    between atoms: C_5  and  C_6
REMARK                            x       y       z     vdW  Elec       q    Type
REMARK                         _______ _______ _______ _____ _____    ______ ____
ROOT
ATOM      1  C   UNL     1       5.854   4.911  15.318  0.00  0.00    +0.000 A 
ATOM      2  C   UNL     1       5.296   6.120  15.764  0.00  0.00    +0.000 A 
ATOM      3  C   UNL     1       5.754   6.736  16.932  0.00  0.00    +0.000 A 
ATOM      4  C   UNL     1       6.763   6.137  17.680  0.00  0.00    +0.000 A 
ATOM      5  C   UNL     1       7.296   4.925  17.258  0.00  0.00    +0.000 A 
ATOM      6  F   UNL     1       8.260   4.344  17.984  0.00  0.00    +0.000 F 
ATOM      7  C   UNL     1       6.849   4.305  16.093  0.00  0.00    +0.000 A 
ENDROOT
BRANCH   1   9
ATOM      8  C   UNL     1       6.234   3.626  13.238  0.00  0.00    +0.000 C 
ATOM      9  C   UNL     1       5.402   4.247  14.087  0.00  0.00    +0.000 C 
BRANCH   8  11
ATOM     10  C   UNL     1       4.356   3.384  11.548  0.00  0.00    +0.000 C 
ATOM     11  C   UNL     1       5.724   2.958  12.008  0.00  0.00    +0.000 C 
ATOM     12  O   UNL     1       6.381   2.110  11.411  0.00  0.00    +0.000 OA
ENDBRANCH   8  11
ENDBRANCH   1   9
TORSDOF 2
ENDMDL
MODEL 4
REMARK VINA RESULT:      -6.0      1.639      2.171
REMARK  Name = 
REMARK  3 active torsions:
REMARK  status: ('A' for Active; 'I' for Inactive)
REMARK    1  A    between atoms: C_1  and  C_2
REMARK    2  A    between atoms: C_2  and  C_4
REMARK    3  A    between atoms: C_5  and  C_6
REMARK                            x       y       z     vdW  Elec       q    Type
REMARK                         _______ _______ _______ _____ _____    ______ ____
ROOT
ATOM      1  C   UNL     1       2.952   3.669  17.849  0.00  0.00    +0.000 A 
ATOM      2  C   UNL     1       2.223   2.468  17.861  0.00  0.00    +0.000 A 
ATOM      3  C   UNL     1       1.196   2.260  18.786  0.00  0.00    +0.000 A 
ATOM      4  C   UNL     1       0.899   3.244  19.723  0.00  0.00    +0.000 A 
ATOM      5  C   UNL     1       1.639   4.421  19.733  0.00  0.00    +0.000 A 
ATOM      6  F   UNL     1       1.358   5.363  20.642  0.00  0.00    +0.000 F 
ATOM      7  C   UNL     1       2.661   4.640  18.814  0.00  0.00    +0.000 A 
ENDROOT
BRANCH   1   9
ATOM      8  C   UNL     1       5.310   4.095  17.234  0.00  0.00    +0.000 C 
ATOM      9  C   UNL     1       4.029   3.921  16.880  0.00  0.00    +0.000 C 
BRANCH   8  11
ATOM     10  C   UNL     1       5.928   4.240  14.777  0.00  0.00    +0.000 C 
ATOM     11  C   UNL     1       6.367   4.336  16.214  0.00  0.00    +0.000 C 
ATOM     12  O   UNL     1       7.526   4.594  16.527  0.00  0.00    +0.000 OA
ENDBRANCH   8  11
ENDBRANCH   1   9
TORSDOF 2
ENDMDL
MODEL 5
REMARK VINA RESULT:      -6.0      1.118      1.360
REMARK  Name = 
REMARK  3 active torsions:
REMARK  status: ('A' for Active; 'I' for Inactive)
REMARK    1  A    between atoms: C_1  and  C_2
REMARK    2  A    between atoms: C_2  and  C_4
REMARK    3  A    between atoms: C_5  and  C_6
REMARK                            x       y       z     vdW  Elec       q    Type
REMARK                         _______ _______ _______ _____ _____    ______ ____
ROOT
ATOM      1  C   UNL     1       2.902   4.599  18.557  0.00  0.00    +0.000 A 
ATOM      2  C   UNL     1       2.714   5.196  19.815  0.00  0.00    +0.000 A 
ATOM      3  C   UNL     1       1.711   4.750  20.679  0.00  0.00    +0.000 A 
ATOM      4  C   UNL     1       0.868   3.716  20.287  0.00  0.00    +0.000 A 
ATOM      5  C   UNL     1       1.030   3.144  19.030  0.00  0.00    +0.000 A 
ATOM      6  F   UNL     1       0.212   2.155  18.649  0.00  0.00    +0.000 F 
ATOM      7  C   UNL     1       2.030   3.578  18.163  0.00  0.00    +0.000 A 
ENDROOT
BRANCH   1   9
ATOM      8  C   UNL     1       4.420   6.296  17.589  0.00  0.00    +0.000 C 
ATOM      9  C   UNL     1       3.957   5.038  17.632  0.00  0.00    +0.000 C 
BRANCH   8  11
ATOM     10  C   UNL     1       6.839   6.990  17.258  0.00  0.00    +0.000 C 
ATOM     11  C   UNL     1       5.499   6.688  16.641  0.00  0.00    +0.000 C 
ATOM     12  O   UNL     1       5.305   6.765  15.431  0.00  0.00    +0.000 OA
ENDBRANCH   8  11
ENDBRANCH   1   9
TORSDOF 2
ENDMDL
MODEL 6
REMARK VINA RESULT:      -6.0      2.489      2.882
REMARK  Name = 
REMARK  3 active torsions:
REMARK  status: ('A' for Active; 'I' for Inactive)
REMARK    1  A    between atoms: C_1  and  C_2
REMARK    2  A    between atoms: C_2  and  C_4
REMARK    3  A    between atoms: C_5  and  C_6
REMARK                            x       y       z     vdW  Elec       q    Type
REMARK                         _______ _______ _______ _____ _____    ______ ____
ROOT
ATOM      1  C   UNL     1       3.143   4.471  19.398  0.00  0.00    +0.000 A 
ATOM      2  C   UNL     1       2.444   4.247  18.200  0.00  0.00    +0.000 A 
ATOM      3  C   UNL     1       1.245   3.529  18.192  0.00  0.00    +0.000 A 
ATOM      4  C   UNL     1       0.742   3.008  19.379  0.00  0.00    +0.000 A 
ATOM      5  C   UNL     1       1.448   3.201  20.561  0.00  0.00    +0.000 A 
ATOM      6  F   UNL     1       0.968   2.690  21.702  0.00  0.00    +0.000 F 
ATOM      7  C   UNL     1       2.641   3.919  20.581  0.00  0.00    +0.000 A 
ENDROOT
BRANCH   1   9
ATOM      8  C   UNL     1       5.594   4.699  19.147  0.00  0.00    +0.000 C 
ATOM      9  C   UNL     1       4.399   5.234  19.440  0.00  0.00    +0.000 C 
BRANCH   8  11
ATOM     10  C   UNL     1       7.079   6.413  18.008  0.00  0.00    +0.000 C 
ATOM     11  C   UNL     1       6.837   5.517  19.193  0.00  0.00    +0.000 C 
ATOM     12  O   UNL     1       7.618   5.460  20.139  0.00  0.00    +0.000 OA
ENDBRANCH   8  11
ENDBRANCH   1   9
TORSDOF 2
ENDMDL
MODEL 7
REMARK VINA RESULT:      -6.0      1.963      2.488
REMARK  Name = 
REMARK  3 active torsions:
REMARK  status: ('A' for Active; 'I' for Inactive)
REMARK    1  A    between atoms: C_1  and  C_2
REMARK    2  A    between atoms: C_2  and  C_4
REMARK    3  A    between atoms: C_5  and  C_6
REMARK                            x       y       z     vdW  Elec       q    Type
REMARK                         _______ _______ _______ _____ _____    ______ ____
ROOT
ATOM      1  C   UNL     1       3.763   4.360  17.452  0.00  0.00    +0.000 A 
ATOM      2  C   UNL     1       2.463   4.830  17.705  0.00  0.00    +0.000 A 
ATOM      3  C   UNL     1       1.485   3.985  18.236  0.00  0.00    +0.000 A 
ATOM      4  C   UNL     1       1.790   2.654  18.501  0.00  0.00    +0.000 A 
ATOM      5  C   UNL     1       3.066   2.178  18.222  0.00  0.00    +0.000 A 
ATOM      6  F   UNL     1       3.355   0.894  18.468  0.00  0.00    +0.000 F 
ATOM      7  C   UNL     1       4.049   3.013  17.697  0.00  0.00    +0.000 A 
ENDROOT
BRANCH   1   9
ATOM      8  C   UNL     1       6.049   5.305  17.427  0.00  0.00    +0.000 C 
ATOM      9  C   UNL     1       4.816   5.229  16.906  0.00  0.00    +0.000 C 
BRANCH   8  11
ATOM     10  C   UNL     1       7.553   7.332  17.697  0.00  0.00    +0.000 C 
ATOM     11  C   UNL     1       7.085   6.193  16.831  0.00  0.00    +0.000 C 
ATOM     12  O   UNL     1       7.526   6.008  15.699  0.00  0.00    +0.000 OA
ENDBRANCH   8  11
ENDBRANCH   1   9
TORSDOF 2
ENDMDL
MODEL 8
REMARK VINA RESULT:      -5.9      1.897      2.220
REMARK  Name = 
REMARK  3 active torsions:
REMARK  status: ('A' for Active; 'I' for Inactive)
REMARK    1  A    between atoms: C_1  and  C_2
REMARK    2  A    between atoms: C_2  and  C_4
REMARK    3  A    between atoms: C_5  and  C_6
REMARK                            x       y       z     vdW  Elec       q    Type
REMARK                         _______ _______ _______ _____ _____    ______ ____
ROOT
ATOM      1  C   UNL     1       3.572   3.641  17.624  0.00  0.00    +0.000 A 
ATOM      2  C   UNL     1       2.174   3.770  17.553  0.00  0.00    +0.000 A 
ATOM      3  C   UNL     1       1.364   3.418  18.636  0.00  0.00    +0.000 A 
ATOM      4  C   UNL     1       1.941   2.914  19.797  0.00  0.00    +0.000 A 
ATOM      5  C   UNL     1       3.321   2.756  19.859  0.00  0.00    +0.000 A 
ATOM      6  F   UNL     1       3.874   2.260  20.973  0.00  0.00    +0.000 F 
ATOM      7  C   UNL     1       4.137   3.107  18.787  0.00  0.00    +0.000 A 
ENDROOT
BRANCH   1   9
ATOM      8  C   UNL     1       5.737   4.355  16.664  0.00  0.00    +0.000 C 
ATOM      9  C   UNL     1       4.450   4.015  16.506  0.00  0.00    +0.000 C 
BRANCH   8  11
ATOM     10  C   UNL     1       6.276   4.002  14.209  0.00  0.00    +0.000 C 
ATOM     11  C   UNL     1       6.589   4.716  15.497  0.00  0.00    +0.000 C 
ATOM     12  O   UNL     1       7.493   5.542  15.584  0.00  0.00    +0.000 OA
ENDBRANCH   8  11
ENDBRANCH   1   9
TORSDOF 2
ENDMDL
MODEL 9
REMARK VINA RESULT:      -5.9      2.306      2.577
REMARK  Name = 
REMARK  3 active torsions:
REMARK  status: ('A' for Active; 'I' for Inactive)
REMARK    1  A    between atoms: C_1  and  C_2
REMARK    2  A    between atoms: C_2  and  C_4
REMARK    3  A    between atoms: C_5  and  C_6
REMARK                            x       y       z     vdW  Elec       q    Type
REMARK                         _______ _______ _______ _____ _____    ______ ____
ROOT
ATOM      1  C   UNL     1       3.803   3.961  19.056  0.00  0.00    +0.000 A 
ATOM      2  C   UNL     1       3.266   3.140  20.062  0.00  0.00    +0.000 A 
ATOM      3  C   UNL     1       1.913   2.792  20.058  0.00  0.00    +0.000 A 
ATOM      4  C   UNL     1       1.075   3.278  19.060  0.00  0.00    +0.000 A 
ATOM      5  C   UNL     1       1.597   4.117  18.081  0.00  0.00    +0.000 A 
ATOM      6  F   UNL     1       0.788   4.593  17.127  0.00  0.00    +0.000 F 
ATOM      7  C   UNL     1       2.945   4.466  18.074  0.00  0.00    +0.000 A 
ENDROOT
BRANCH   1   9
ATOM      8  C   UNL     1       5.921   4.486  17.891  0.00  0.00    +0.000 C 
ATOM      9  C   UNL     1       5.225   4.333  19.027  0.00  0.00    +0.000 C 
BRANCH   8  11
ATOM     10  C   UNL     1       7.690   6.122  18.688  0.00  0.00    +0.000 C 
ATOM     11  C   UNL     1       7.359   4.875  17.913  0.00  0.00    +0.000 C 
ATOM     12  O   UNL     1       8.218   4.220  17.331  0.00  0.00    +0.000 OA
ENDBRANCH   8  11
ENDBRANCH   1   9
TORSDOF 2
ENDMDL
