MODEL 1
REMARK VINA RESULT:      -8.6      0.000      0.000
REMARK  Name = 
REMARK  4 active torsions:
REMARK  status: ('A' for Active; 'I' for Inactive)
REMARK    1  A    between atoms: C_4  and  C_5
REMARK    2  A    between atoms: C_7  and  C_8
REMARK    3  A    between atoms: C_8  and  N_9
REMARK    4  A    between atoms: C_15  and  C_16
REMARK                            x       y       z     vdW  Elec       q    Type
REMARK                         _______ _______ _______ _____ _____    ______ ____
ROOT
ATOM      1  C   UNL     1       4.902   5.404  19.059  0.00  0.00    +0.000 C 
ENDROOT
BRANCH   1   2
ATOM      2  N   UNL     1       3.795   4.428  18.984  0.00  0.00    +0.000 NA
ATOM      3  C   UNL     1       3.690   3.583  20.172  0.00  0.00    +0.000 C 
ATOM      4  C   UNL     1       3.287   2.146  19.822  0.00  0.00    +0.000 C 
ATOM      5  C   UNL     1       1.791   1.942  19.644  0.00  0.00    +0.000 C 
ATOM      6  C   UNL     1       1.199   2.749  18.498  0.00  0.00    +0.000 C 
ATOM      7  C   UNL     1       1.220   4.248  18.771  0.00  0.00    +0.000 C 
ATOM      8  C   UNL     1       2.542   4.972  18.419  0.00  0.00    +0.000 C 
BRANCH   8   9
ATOM      9  C   UNL     1       2.333   6.444  18.685  0.00  0.00    +0.000 A 
ATOM     10  C   UNL     1       2.397   7.582  17.905  0.00  0.00    +0.000 A 
ATOM     11  C   UNL     1       2.093   8.670  18.758  0.00  0.00    +0.000 A 
ATOM     12  C   UNL     1       1.864   8.130  20.002  0.00  0.00    +0.000 A 
ATOM     13  O   UNL     1       2.007   6.781  19.968  0.00  0.00    +0.000 OA
ENDBRANCH   8   9
ENDBRANCH   1   2
BRANCH   1  16
ATOM     14  C   UNL     1       6.744   4.945  15.912  0.00  0.00    +0.000 A 
ATOM     15  C   UNL     1       5.567   5.450  16.529  0.00  0.00    +0.000 A 
ATOM     16  C   UNL     1       5.786   5.300  17.869  0.00  0.00    +0.000 A 
ATOM     17  O   UNL     1       7.060   4.867  18.068  0.00  0.00    +0.000 OA
ATOM     18  N   UNL     1       7.664   4.641  16.844  0.00  0.00    +0.000 NA
BRANCH  14  22
ATOM     19  C   UNL     1       7.299   4.461  11.777  0.00  0.00    +0.000 A 
ATOM     20  C   UNL     1       6.367   3.652  12.413  0.00  0.00    +0.000 A 
ATOM     21  C   UNL     1       6.174   3.779  13.787  0.00  0.00    +0.000 A 
ATOM     22  C   UNL     1       6.931   4.717  14.482  0.00  0.00    +0.000 A 
ATOM     23  N   UNL     1       7.844   5.519  13.872  0.00  0.00    +0.000 NA
ATOM     24  C   UNL     1       8.006   5.374  12.541  0.00  0.00    +0.000 A 
ENDBRANCH  14  22
ENDBRANCH   1  16
TORSDOF 4
ENDMDL
MODEL 2
REMARK VINA RESULT:      -8.3      2.850      7.676
REMARK  Name = 
REMARK  4 active torsions:
REMARK  status: ('A' for Active; 'I' for Inactive)
REMARK    1  A    between atoms: C_4  and  C_5
REMARK    2  A    between atoms: C_7  and  C_8
REMARK    3  A    between atoms: C_8  and  N_9
REMARK    4  A    between atoms: C_15  and  C_16
REMARK                            x       y       z     vdW  Elec       q    Type
REMARK                         _______ _______ _______ _____ _____    ______ ____
ROOT
ATOM      1  C   UNL     1       3.001   6.235  18.256  0.00  0.00    +0.000 C 
ENDROOT
BRANCH   1   2
ATOM      2  N   UNL     1       2.807   5.083  19.162  0.00  0.00    +0.000 NA
ATOM      3  C   UNL     1       1.589   4.326  18.879  0.00  0.00    +0.000 C 
ATOM      4  C   UNL     1       0.918   3.817  20.159  0.00  0.00    +0.000 C 
ATOM      5  C   UNL     1       1.502   2.522  20.699  0.00  0.00    +0.000 C 
ATOM      6  C   UNL     1       2.963   2.635  21.105  0.00  0.00    +0.000 C 
ATOM      7  C   UNL     1       3.884   2.850  19.911  0.00  0.00    +0.000 C 
ATOM      8  C   UNL     1       4.040   4.316  19.442  0.00  0.00    +0.000 C 
BRANCH   8   9
ATOM      9  C   UNL     1       5.042   4.325  18.313  0.00  0.00    +0.000 A 
ATOM     10  C   UNL     1       4.971   4.063  16.959  0.00  0.00    +0.000 A 
ATOM     11  C   UNL     1       6.277   4.249  16.445  0.00  0.00    +0.000 A 
ATOM     12  C   UNL     1       7.062   4.611  17.515  0.00  0.00    +0.000 A 
ATOM     13  O   UNL     1       6.323   4.661  18.651  0.00  0.00    +0.000 OA
ENDBRANCH   8   9
ENDBRANCH   1   2
BRANCH   1  16
ATOM     14  C   UNL     1       1.234   9.005  19.902  0.00  0.00    +0.000 A 
ATOM     15  C   UNL     1       1.994   7.817  20.080  0.00  0.00    +0.000 A 
ATOM     16  C   UNL     1       2.389   7.465  18.820  0.00  0.00    +0.000 A 
ATOM     17  O   UNL     1       2.020   8.441  17.948  0.00  0.00    +0.000 OA
ATOM     18  N   UNL     1       1.295   9.408  18.621  0.00  0.00    +0.000 NA
BRANCH  14  22
ATOM     19  C   UNL     1      -0.957  11.081  22.823  0.00  0.00    +0.000 A 
ATOM     20  C   UNL     1      -0.609   9.761  23.078  0.00  0.00    +0.000 A 
ATOM     21  C   UNL     1       0.103   9.043  22.121  0.00  0.00    +0.000 A 
ATOM     22  C   UNL     1       0.441   9.676  20.928  0.00  0.00    +0.000 A 
ATOM     23  N   UNL     1       0.111  10.969  20.666  0.00  0.00    +0.000 NA
ATOM     24  C   UNL     1      -0.576  11.638  21.614  0.00  0.00    +0.000 A 
ENDBRANCH  14  22
ENDBRANCH   1  16
TORSDOF 4
ENDMDL
MODEL 3
REMARK VINA RESULT:      -8.3      1.386      3.501
REMARK  Name = 
REMARK  4 active torsions:
REMARK  status: ('A' for Active; 'I' for Inactive)
REMARK    1  A    between atoms: C_4  and  C_5
REMARK    2  A    between atoms: C_7  and  C_8
REMARK    3  A    between atoms: C_8  and  N_9
REMARK    4  A    between atoms: C_15  and  C_16
REMARK                            x       y       z     vdW  Elec       q    Type
REMARK                         _______ _______ _______ _____ _____    ______ ____
ROOT
ATOM      1  C   UNL     1       4.051   5.084  18.853  0.00  0.00    +0.000 C 
ENDROOT
BRANCH   1   2
ATOM      2  N   UNL     1       3.239   6.263  19.219  0.00  0.00    +0.000 NA
ATOM      3  C   UNL     1       2.580   6.886  18.072  0.00  0.00    +0.000 C 
ATOM      4  C   UNL     1       2.542   8.414  18.192  0.00  0.00    +0.000 C 
ATOM      5  C   UNL     1       1.397   8.947  19.038  0.00  0.00    +0.000 C 
ATOM      6  C   UNL     1       1.450   8.494  20.489  0.00  0.00    +0.000 C 
ATOM      7  C   UNL     1       1.204   6.998  20.642  0.00  0.00    +0.000 C 
ATOM      8  C   UNL     1       2.446   6.094  20.455  0.00  0.00    +0.000 C 
BRANCH   8   9
ATOM      9  C   UNL     1       2.012   4.672  20.721  0.00  0.00    +0.000 A 
ATOM     10  C   UNL     1       2.309   3.741  21.697  0.00  0.00    +0.000 A 
ATOM     11  C   UNL     1       1.567   2.578  21.380  0.00  0.00    +0.000 A 
ATOM     12  C   UNL     1       0.866   2.870  20.234  0.00  0.00    +0.000 A 
ATOM     13  O   UNL     1       1.128   4.138  19.827  0.00  0.00    +0.000 OA
ENDBRANCH   8   9
ENDBRANCH   1   2
BRANCH   1  16
ATOM     14  C   UNL     1       5.954   5.269  15.714  0.00  0.00    +0.000 A 
ATOM     15  C   UNL     1       4.765   4.820  16.350  0.00  0.00    +0.000 A 
ATOM     16  C   UNL     1       4.829   5.337  17.613  0.00  0.00    +0.000 A 
ATOM     17  O   UNL     1       5.907   6.161  17.703  0.00  0.00    +0.000 OA
ATOM     18  N   UNL     1       6.617   6.120  16.516  0.00  0.00    +0.000 NA
BRANCH  14  22
ATOM     19  C   UNL     1       7.400   4.189  11.921  0.00  0.00    +0.000 A 
ATOM     20  C   UNL     1       6.275   3.534  12.406  0.00  0.00    +0.000 A 
ATOM     21  C   UNL     1       5.784   3.860  13.668  0.00  0.00    +0.000 A 
ATOM     22  C   UNL     1       6.444   4.836  14.409  0.00  0.00    +0.000 A 
ATOM     23  N   UNL     1       7.543   5.489  13.945  0.00  0.00    +0.000 NA
ATOM     24  C   UNL     1       7.993   5.153  12.719  0.00  0.00    +0.000 A 
ENDBRANCH  14  22
ENDBRANCH   1  16
TORSDOF 4
ENDMDL
MODEL 4
REMARK VINA RESULT:      -8.1      2.957      7.004
REMARK  Name = 
REMARK  4 active torsions:
REMARK  status: ('A' for Active; 'I' for Inactive)
REMARK    1  A    between atoms: C_4  and  C_5
REMARK    2  A    between atoms: C_7  and  C_8
REMARK    3  A    between atoms: C_8  and  N_9
REMARK    4  A    between atoms: C_15  and  C_16
REMARK                            x       y       z     vdW  Elec       q    Type
REMARK                         _______ _______ _______ _____ _____    ______ ____
ROOT
ATOM      1  C   UNL     1       3.549   6.510  18.099  0.00  0.00    +0.000 C 
ENDROOT
BRANCH   1   2
ATOM      2  N   UNL     1       3.158   5.183  18.621  0.00  0.00    +0.000 NA
ATOM      3  C   UNL     1       2.353   4.408  17.678  0.00  0.00    +0.000 C 
ATOM      4  C   UNL     1       1.265   3.593  18.386  0.00  0.00    +0.000 C 
ATOM      5  C   UNL     1       1.744   2.264  18.947  0.00  0.00    +0.000 C 
ATOM      6  C   UNL     1       2.814   2.405  20.019  0.00  0.00    +0.000 C 
ATOM      7  C   UNL     1       4.130   2.935  19.463  0.00  0.00    +0.000 C 
ATOM      8  C   UNL     1       4.233   4.475  19.346  0.00  0.00    +0.000 C 
BRANCH   8   9
ATOM      9  C   UNL     1       5.625   4.797  18.855  0.00  0.00    +0.000 A 
ATOM     10  C   UNL     1       6.292   4.612  17.661  0.00  0.00    +0.000 A 
ATOM     11  C   UNL     1       7.593   5.140  17.842  0.00  0.00    +0.000 A 
ATOM     12  C   UNL     1       7.639   5.612  19.133  0.00  0.00    +0.000 A 
ATOM     13  O   UNL     1       6.451   5.410  19.756  0.00  0.00    +0.000 OA
ENDBRANCH   8   9
ENDBRANCH   1   2
BRANCH   1  16
ATOM     14  C   UNL     1       1.345   9.362  18.814  0.00  0.00    +0.000 A 
ATOM     15  C   UNL     1       2.023   8.616  17.813  0.00  0.00    +0.000 A 
ATOM     16  C   UNL     1       2.553   7.545  18.476  0.00  0.00    +0.000 A 
ATOM     17  O   UNL     1       2.114   7.556  19.764  0.00  0.00    +0.000 OA
ATOM     18  N   UNL     1       1.358   8.694  19.981  0.00  0.00    +0.000 NA
BRANCH  14  22
ATOM     19  C   UNL     1      -0.206  13.249  18.449  0.00  0.00    +0.000 A 
ATOM     20  C   UNL     1      -1.096  12.183  18.434  0.00  0.00    +0.000 A 
ATOM     21  C   UNL     1      -0.609  10.882  18.537  0.00  0.00    +0.000 A 
ATOM     22  C   UNL     1       0.766  10.692  18.647  0.00  0.00    +0.000 A 
ATOM     23  N   UNL     1       1.648  11.726  18.667  0.00  0.00    +0.000 NA
ATOM     24  C   UNL     1       1.146  12.974  18.569  0.00  0.00    +0.000 A 
ENDBRANCH  14  22
ENDBRANCH   1  16
TORSDOF 4
ENDMDL
MODEL 5
REMARK VINA RESULT:      -8.0      2.832      7.095
REMARK  Name = 
REMARK  4 active torsions:
REMARK  status: ('A' for Active; 'I' for Inactive)
REMARK    1  A    between atoms: C_4  and  C_5
REMARK    2  A    between atoms: C_7  and  C_8
REMARK    3  A    between atoms: C_8  and  N_9
REMARK    4  A    between atoms: C_15  and  C_16
REMARK                            x       y       z     vdW  Elec       q    Type
REMARK                         _______ _______ _______ _____ _____    ______ ____
ROOT
ATOM      1  C   UNL     1       3.470   6.478  18.016  0.00  0.00    +0.000 C 
ENDROOT
BRANCH   1   2
ATOM      2  N   UNL     1       3.105   5.162  18.582  0.00  0.00    +0.000 NA
ATOM      3  C   UNL     1       2.306   4.345  17.671  0.00  0.00    +0.000 C 
ATOM      4  C   UNL     1       1.238   3.535  18.413  0.00  0.00    +0.000 C 
ATOM      5  C   UNL     1       1.743   2.232  19.011  0.00  0.00    +0.000 C 
ATOM      6  C   UNL     1       2.819   2.424  20.069  0.00  0.00    +0.000 C 
ATOM      7  C   UNL     1       4.121   2.958  19.485  0.00  0.00    +0.000 C 
ATOM      8  C   UNL     1       4.198   4.494  19.320  0.00  0.00    +0.000 C 
BRANCH   8   9
ATOM      9  C   UNL     1       5.580   4.823  18.807  0.00  0.00    +0.000 A 
ATOM     10  C   UNL     1       6.642   5.555  19.301  0.00  0.00    +0.000 A 
ATOM     11  C   UNL     1       7.668   5.479  18.328  0.00  0.00    +0.000 A 
ATOM     12  C   UNL     1       7.170   4.709  17.304  0.00  0.00    +0.000 A 
ATOM     13  O   UNL     1       5.905   4.305  17.584  0.00  0.00    +0.000 OA
ENDBRANCH   8   9
ENDBRANCH   1   2
BRANCH   1  16
ATOM     14  C   UNL     1       1.352   9.362  18.852  0.00  0.00    +0.000 A 
ATOM     15  C   UNL     1       1.971   8.613  17.816  0.00  0.00    +0.000 A 
ATOM     16  C   UNL     1       2.510   7.527  18.446  0.00  0.00    +0.000 A 
ATOM     17  O   UNL     1       2.128   7.533  19.751  0.00  0.00    +0.000 OA
ATOM     18  N   UNL     1       1.403   8.682  20.012  0.00  0.00    +0.000 NA
BRANCH  14  22
ATOM     19  C   UNL     1      -0.371  13.161  18.354  0.00  0.00    +0.000 A 
ATOM     20  C   UNL     1       1.000  13.084  18.567  0.00  0.00    +0.000 A 
ATOM     21  C   UNL     1       1.595  11.838  18.752  0.00  0.00    +0.000 A 
ATOM     22  C   UNL     1       0.790  10.703  18.722  0.00  0.00    +0.000 A 
ATOM     23  N   UNL     1      -0.552  10.763  18.510  0.00  0.00    +0.000 NA
ATOM     24  C   UNL     1      -1.098  11.983  18.331  0.00  0.00    +0.000 A 
ENDBRANCH  14  22
ENDBRANCH   1  16
TORSDOF 4
ENDMDL
MODEL 6
REMARK VINA RESULT:      -8.0      2.708      7.007
REMARK  Name = 
REMARK  4 active torsions:
REMARK  status: ('A' for Active; 'I' for Inactive)
REMARK    1  A    between atoms: C_4  and  C_5
REMARK    2  A    between atoms: C_7  and  C_8
REMARK    3  A    between atoms: C_8  and  N_9
REMARK    4  A    between atoms: C_15  and  C_16
REMARK                            x       y       z     vdW  Elec       q    Type
REMARK                         _______ _______ _______ _____ _____    ______ ____
ROOT
ATOM      1  C   UNL     1       3.630   6.286  18.040  0.00  0.00    +0.000 C 
ENDROOT
BRANCH   1   2
ATOM      2  N   UNL     1       3.182   4.913  18.356  0.00  0.00    +0.000 NA
ATOM      3  C   UNL     1       1.838   4.618  17.864  0.00  0.00    +0.000 C 
ATOM      4  C   UNL     1       1.052   3.731  18.837  0.00  0.00    +0.000 C 
ATOM      5  C   UNL     1       1.341   2.245  18.701  0.00  0.00    +0.000 C 
ATOM      6  C   UNL     1       2.787   1.876  18.998  0.00  0.00    +0.000 C 
ATOM      7  C   UNL     1       3.753   2.419  17.952  0.00  0.00    +0.000 C 
ATOM      8  C   UNL     1       4.221   3.878  18.169  0.00  0.00    +0.000 C 
BRANCH   8   9
ATOM      9  C   UNL     1       5.222   4.196  17.084  0.00  0.00    +0.000 A 
ATOM     10  C   UNL     1       5.157   4.278  15.707  0.00  0.00    +0.000 A 
ATOM     11  C   UNL     1       6.457   4.623  15.265  0.00  0.00    +0.000 A 
ATOM     12  C   UNL     1       7.232   4.729  16.395  0.00  0.00    +0.000 A 
ATOM     13  O   UNL     1       6.493   4.473  17.504  0.00  0.00    +0.000 OA
ENDBRANCH   8   9
ENDBRANCH   1   2
BRANCH   1  16
ATOM     14  C   UNL     1       1.358   9.054  18.866  0.00  0.00    +0.000 A 
ATOM     15  C   UNL     1       1.956   8.286  17.831  0.00  0.00    +0.000 A 
ATOM     16  C   UNL     1       2.625   7.287  18.480  0.00  0.00    +0.000 A 
ATOM     17  O   UNL     1       2.342   7.353  19.809  0.00  0.00    +0.000 OA
ATOM     18  N   UNL     1       1.550   8.460  20.056  0.00  0.00    +0.000 NA
BRANCH  14  22
ATOM     19  C   UNL     1      -0.497  12.808  18.528  0.00  0.00    +0.000 A 
ATOM     20  C   UNL     1      -1.251  11.675  18.249  0.00  0.00    +0.000 A 
ATOM     21  C   UNL     1      -0.657  10.418  18.337  0.00  0.00    +0.000 A 
ATOM     22  C   UNL     1       0.684  10.339  18.699  0.00  0.00    +0.000 A 
ATOM     23  N   UNL     1       1.433  11.438  18.980  0.00  0.00    +0.000 NA
ATOM     24  C   UNL     1       0.829  12.641  18.889  0.00  0.00    +0.000 A 
ENDBRANCH  14  22
ENDBRANCH   1  16
TORSDOF 4
ENDMDL
MODEL 7
REMARK VINA RESULT:      -7.9      2.918      7.196
REMARK  Name = 
REMARK  4 active torsions:
REMARK  status: ('A' for Active; 'I' for Inactive)
REMARK    1  A    between atoms: C_4  and  C_5
REMARK    2  A    between atoms: C_7  and  C_8
REMARK    3  A    between atoms: C_8  and  N_9
REMARK    4  A    between atoms: C_15  and  C_16
REMARK                            x       y       z     vdW  Elec       q    Type
REMARK                         _______ _______ _______ _____ _____    ______ ____
ROOT
ATOM      1  C   UNL     1       3.357   6.053  19.398  0.00  0.00    +0.000 C 
ENDROOT
BRANCH   1   2
ATOM      2  N   UNL     1       4.337   5.600  18.388  0.00  0.00    +0.000 NA
ATOM      3  C   UNL     1       5.670   5.368  18.942  0.00  0.00    +0.000 C 
ATOM      4  C   UNL     1       6.777   5.789  17.969  0.00  0.00    +0.000 C 
ATOM      5  C   UNL     1       7.119   4.744  16.920  0.00  0.00    +0.000 C 
ATOM      6  C   UNL     1       5.961   4.411  15.992  0.00  0.00    +0.000 C 
ATOM      7  C   UNL     1       4.828   3.689  16.710  0.00  0.00    +0.000 C 
ATOM      8  C   UNL     1       3.809   4.600  17.436  0.00  0.00    +0.000 C 
BRANCH   8   9
ATOM      9  C   UNL     1       2.735   3.707  18.010  0.00  0.00    +0.000 A 
ATOM     10  C   UNL     1       1.355   3.704  17.959  0.00  0.00    +0.000 A 
ATOM     11  C   UNL     1       0.929   2.585  18.713  0.00  0.00    +0.000 A 
ATOM     12  C   UNL     1       2.071   1.976  19.178  0.00  0.00    +0.000 A 
ATOM     13  O   UNL     1       3.172   2.648  18.756  0.00  0.00    +0.000 OA
ENDBRANCH   8   9
ENDBRANCH   1   2
BRANCH   1  16
ATOM     14  C   UNL     1       1.446   9.081  18.571  0.00  0.00    +0.000 A 
ATOM     15  C   UNL     1       1.808   8.153  19.584  0.00  0.00    +0.000 A 
ATOM     16  C   UNL     1       2.739   7.344  18.998  0.00  0.00    +0.000 A 
ATOM     17  O   UNL     1       3.034   7.826  17.761  0.00  0.00    +0.000 OA
ATOM     18  N   UNL     1       2.224   8.914  17.487  0.00  0.00    +0.000 NA
BRANCH  14  22
ATOM     19  C   UNL     1      -1.696  11.844  18.949  0.00  0.00    +0.000 A 
ATOM     20  C   UNL     1      -1.787  10.878  17.955  0.00  0.00    +0.000 A 
ATOM     21  C   UNL     1      -0.752   9.959  17.796  0.00  0.00    +0.000 A 
ATOM     22  C   UNL     1       0.350  10.043  18.642  0.00  0.00    +0.000 A 
ATOM     23  N   UNL     1       0.450  10.980  19.623  0.00  0.00    +0.000 NA
ATOM     24  C   UNL     1      -0.569  11.853  19.754  0.00  0.00    +0.000 A 
ENDBRANCH  14  22
ENDBRANCH   1  16
TORSDOF 4
ENDMDL
MODEL 8
REMARK VINA RESULT:      -7.9      0.621      1.003
REMARK  Name = 
REMARK  4 active torsions:
REMARK  status: ('A' for Active; 'I' for Inactive)
REMARK    1  A    between atoms: C_4  and  C_5
REMARK    2  A    between atoms: C_7  and  C_8
REMARK    3  A    between atoms: C_8  and  N_9
REMARK    4  A    between atoms: C_15  and  C_16
REMARK                            x       y       z     vdW  Elec       q    Type
REMARK                         _______ _______ _______ _____ _____    ______ ____
ROOT
ATOM      1  C   UNL     1       5.002   5.314  18.926  0.00  0.00    +0.000 C 
ENDROOT
BRANCH   1   2
ATOM      2  N   UNL     1       3.891   4.340  18.889  0.00  0.00    +0.000 NA
ATOM      3  C   UNL     1       3.799   3.524  20.098  0.00  0.00    +0.000 C 
ATOM      4  C   UNL     1       3.386   2.081  19.788  0.00  0.00    +0.000 C 
ATOM      5  C   UNL     1       1.887   1.879  19.635  0.00  0.00    +0.000 C 
ATOM      6  C   UNL     1       1.282   2.661  18.479  0.00  0.00    +0.000 C 
ATOM      7  C   UNL     1       1.312   4.166  18.715  0.00  0.00    +0.000 C 
ATOM      8  C   UNL     1       2.632   4.876  18.329  0.00  0.00    +0.000 C 
BRANCH   8   9
ATOM      9  C   UNL     1       2.433   6.355  18.563  0.00  0.00    +0.000 A 
ATOM     10  C   UNL     1       2.538   7.479  17.767  0.00  0.00    +0.000 A 
ATOM     11  C   UNL     1       2.217   8.585  18.591  0.00  0.00    +0.000 A 
ATOM     12  C   UNL     1       1.939   8.069  19.835  0.00  0.00    +0.000 A 
ATOM     13  O   UNL     1       2.066   6.718  19.829  0.00  0.00    +0.000 OA
ENDBRANCH   8   9
ENDBRANCH   1   2
BRANCH   1  16
ATOM     14  C   UNL     1       6.711   4.879  15.702  0.00  0.00    +0.000 A 
ATOM     15  C   UNL     1       5.565   5.386  16.372  0.00  0.00    +0.000 A 
ATOM     16  C   UNL     1       5.836   5.217  17.701  0.00  0.00    +0.000 A 
ATOM     17  O   UNL     1       7.113   4.770  17.842  0.00  0.00    +0.000 OA
ATOM     18  N   UNL     1       7.665   4.555  16.592  0.00  0.00    +0.000 NA
BRANCH  14  22
ATOM     19  C   UNL     1       7.064   4.100  11.589  0.00  0.00    +0.000 A 
ATOM     20  C   UNL     1       7.846   5.110  12.136  0.00  0.00    +0.000 A 
ATOM     21  C   UNL     1       7.737   5.401  13.494  0.00  0.00    +0.000 A 
ATOM     22  C   UNL     1       6.838   4.668  14.263  0.00  0.00    +0.000 A 
ATOM     23  N   UNL     1       6.070   3.674  13.742  0.00  0.00    +0.000 NA
ATOM     24  C   UNL     1       6.200   3.414  12.426  0.00  0.00    +0.000 A 
ENDBRANCH  14  22
ENDBRANCH   1  16
TORSDOF 4
ENDMDL
MODEL 9
REMARK VINA RESULT:      -7.7      3.156      7.274
REMARK  Name = 
REMARK  4 active torsions:
REMARK  status: ('A' for Active; 'I' for Inactive)
REMARK    1  A    between atoms: C_4  and  C_5
REMARK    2  A    between atoms: C_7  and  C_8
REMARK    3  A    between atoms: C_8  and  N_9
REMARK    4  A    between atoms: C_15  and  C_16
REMARK                            x       y       z     vdW  Elec       q    Type
REMARK                         _______ _______ _______ _____ _____    ______ ____
ROOT
ATOM      1  C   UNL     1       2.978   6.430  19.617  0.00  0.00    +0.000 C 
ENDROOT
BRANCH   1   2
ATOM      2  N   UNL     1       3.625   5.665  18.530  0.00  0.00    +0.000 NA
ATOM      3  C   UNL     1       5.084   5.745  18.559  0.00  0.00    +0.000 C 
ATOM      4  C   UNL     1       5.685   5.802  17.151  0.00  0.00    +0.000 C 
ATOM      5  C   UNL     1       5.853   4.445  16.487  0.00  0.00    +0.000 C 
ATOM      6  C   UNL     1       4.540   3.708  16.267  0.00  0.00    +0.000 C 
ATOM      7  C   UNL     1       3.890   3.273  17.574  0.00  0.00    +0.000 C 
ATOM      8  C   UNL     1       3.018   4.342  18.275  0.00  0.00    +0.000 C 
BRANCH   8   9
ATOM      9  C   UNL     1       2.408   3.696  19.496  0.00  0.00    +0.000 A 
ATOM     10  C   UNL     1       1.114   3.495  19.935  0.00  0.00    +0.000 A 
ATOM     11  C   UNL     1       1.212   2.818  21.174  0.00  0.00    +0.000 A 
ATOM     12  C   UNL     1       2.555   2.649  21.415  0.00  0.00    +0.000 A 
ATOM     13  O   UNL     1       3.289   3.177  20.403  0.00  0.00    +0.000 OA
ENDBRANCH   8   9
ENDBRANCH   1   2
BRANCH   1  16
ATOM     14  C   UNL     1       1.094   9.384  18.506  0.00  0.00    +0.000 A 
ATOM     15  C   UNL     1       1.444   8.550  19.602  0.00  0.00    +0.000 A 
ATOM     16  C   UNL     1       2.372   7.683  19.097  0.00  0.00    +0.000 A 
ATOM     17  O   UNL     1       2.675   8.047  17.822  0.00  0.00    +0.000 OA
ATOM     18  N   UNL     1       1.875   9.112  17.446  0.00  0.00    +0.000 NA
BRANCH  14  22
ATOM     19  C   UNL     1      -2.014  12.208  18.612  0.00  0.00    +0.000 A 
ATOM     20  C   UNL     1      -2.174  11.085  17.810  0.00  0.00    +0.000 A 
ATOM     21  C   UNL     1      -1.153  10.140  17.742  0.00  0.00    +0.000 A 
ATOM     22  C   UNL     1       0.005  10.357  18.483  0.00  0.00    +0.000 A 
ATOM     23  N   UNL     1       0.174  11.448  19.277  0.00  0.00    +0.000 NA
ATOM     24  C   UNL     1      -0.834  12.343  19.323  0.00  0.00    +0.000 A 
ENDBRANCH  14  22
ENDBRANCH   1  16
TORSDOF 4
ENDMDL
