MODEL 1
REMARK VINA RESULT:      -6.6      0.000      0.000
REMARK  Name = 
REMARK  5 active torsions:
REMARK  status: ('A' for Active; 'I' for Inactive)
REMARK    1  A    between atoms: C_1  and  O_2
REMARK    2  A    between atoms: O_2  and  C_3
REMARK    3  A    between atoms: C_11  and  C_12
REMARK    4  A    between atoms: C_13  and  C_14
REMARK    5  A    between atoms: C_15  and  C_16
REMARK                            x       y       z     vdW  Elec       q    Type
REMARK                         _______ _______ _______ _____ _____    ______ ____
ROOT
ATOM      1  C   UNL     1       0.635  12.910  21.195  0.00  0.00    +0.000 C 
ATOM      2  O   UNL     1       0.012  13.172  22.223  0.00  0.00    +0.000 OA
ATOM      3  N   UNL     1       0.041  12.776  19.958  0.00  0.00    +0.000 N 
ATOM      4  C   UNL     1      -1.387  12.994  19.830  0.00  0.00    +0.000 C 
ATOM      5  C   UNL     1      -2.111  11.928  19.023  0.00  0.00    +0.000 A 
ATOM      6  C   UNL     1      -1.379  10.990  18.257  0.00  0.00    +0.000 A 
ATOM      7  C   UNL     1      -2.061  10.009  17.527  0.00  0.00    +0.000 A 
ATOM      8  C   UNL     1      -3.451   9.949  17.551  0.00  0.00    +0.000 A 
ATOM      9  C   UNL     1      -4.198  10.869  18.298  0.00  0.00    +0.000 A 
ATOM     10  C   UNL     1      -5.698  10.739  18.299  0.00  0.00    +0.000 C 
ATOM     11  C   UNL     1      -3.531  11.877  19.031  0.00  0.00    +0.000 A 
ATOM     12  C   UNL     1      -4.304  12.895  19.841  0.00  0.00    +0.000 C 
ATOM     13  C   UNL     1       0.147  10.950  18.297  0.00  0.00    +0.000 C 
ATOM     14  C   UNL     1       0.722  12.309  18.757  0.00  0.00    +0.000 C 
ENDROOT
BRANCH  13  15
ATOM     15  C   UNL     1       0.694   9.813  19.160  0.00  0.00    +0.000 A 
ATOM     16  C   UNL     1       0.178   9.597  20.448  0.00  0.00    +0.000 A 
ATOM     17  C   UNL     1       0.599   8.500  21.205  0.00  0.00    +0.000 A 
ATOM     18  C   UNL     1       1.540   7.611  20.689  0.00  0.00    +0.000 A 
ATOM     19  C   UNL     1       2.087   7.832  19.431  0.00  0.00    +0.000 A 
ATOM     20  C   UNL     1       1.670   8.925  18.675  0.00  0.00    +0.000 A 
ENDBRANCH  13  15
BRANCH   1  22
ATOM     21  C   UNL     1       2.731  13.968  21.165  0.00  0.00    +0.000 C 
ATOM     22  O   UNL     1       1.985  12.749  21.162  0.00  0.00    +0.000 OA
ENDBRANCH   1  22
TORSDOF 2
ENDMDL
MODEL 2
REMARK VINA RESULT:      -6.5      0.395      1.099
REMARK  Name = 
REMARK  5 active torsions:
REMARK  status: ('A' for Active; 'I' for Inactive)
REMARK    1  A    between atoms: C_1  and  O_2
REMARK    2  A    between atoms: O_2  and  C_3
REMARK    3  A    between atoms: C_11  and  C_12
REMARK    4  A    between atoms: C_13  and  C_14
REMARK    5  A    between atoms: C_15  and  C_16
REMARK                            x       y       z     vdW  Elec       q    Type
REMARK                         _______ _______ _______ _____ _____    ______ ____
ROOT
ATOM      1  C   UNL     1       0.263  12.998  21.294  0.00  0.00    +0.000 C 
ATOM      2  O   UNL     1      -0.369  13.282  22.310  0.00  0.00    +0.000 OA
ATOM      3  N   UNL     1      -0.317  12.859  20.050  0.00  0.00    +0.000 N 
ATOM      4  C   UNL     1      -1.739  13.097  19.901  0.00  0.00    +0.000 C 
ATOM      5  C   UNL     1      -2.468  12.032  19.096  0.00  0.00    +0.000 A 
ATOM      6  C   UNL     1      -1.740  11.074  18.351  0.00  0.00    +0.000 A 
ATOM      7  C   UNL     1      -2.427  10.095  17.623  0.00  0.00    +0.000 A 
ATOM      8  C   UNL     1      -3.818  10.056  17.629  0.00  0.00    +0.000 A 
ATOM      9  C   UNL     1      -4.561  10.996  18.356  0.00  0.00    +0.000 A 
ATOM     10  C   UNL     1      -6.062  10.889  18.338  0.00  0.00    +0.000 C 
ATOM     11  C   UNL     1      -3.889  12.003  19.085  0.00  0.00    +0.000 A 
ATOM     12  C   UNL     1      -4.657  13.041  19.873  0.00  0.00    +0.000 C 
ATOM     13  C   UNL     1      -0.216  11.012  18.413  0.00  0.00    +0.000 C 
ATOM     14  C   UNL     1       0.374  12.368  18.864  0.00  0.00    +0.000 C 
ENDROOT
BRANCH  13  15
ATOM     15  C   UNL     1       0.303   9.877  19.295  0.00  0.00    +0.000 A 
ATOM     16  C   UNL     1       1.394   9.101  18.873  0.00  0.00    +0.000 A 
ATOM     17  C   UNL     1       1.940   8.128  19.715  0.00  0.00    +0.000 A 
ATOM     18  C   UNL     1       1.402   7.916  20.983  0.00  0.00    +0.000 A 
ATOM     19  C   UNL     1       0.299   8.650  21.401  0.00  0.00    +0.000 A 
ATOM     20  C   UNL     1      -0.248   9.620  20.563  0.00  0.00    +0.000 A 
ENDBRANCH  13  15
BRANCH   1  22
ATOM     21  C   UNL     1       2.375  14.025  21.270  0.00  0.00    +0.000 C 
ATOM     22  O   UNL     1       1.611  12.817  21.281  0.00  0.00    +0.000 OA
ENDBRANCH   1  22
TORSDOF 2
ENDMDL
MODEL 3
REMARK VINA RESULT:      -6.5      5.173      8.655
REMARK  Name = 
REMARK  5 active torsions:
REMARK  status: ('A' for Active; 'I' for Inactive)
REMARK    1  A    between atoms: C_1  and  O_2
REMARK    2  A    between atoms: O_2  and  C_3
REMARK    3  A    between atoms: C_11  and  C_12
REMARK    4  A    between atoms: C_13  and  C_14
REMARK    5  A    between atoms: C_15  and  C_16
REMARK                            x       y       z     vdW  Elec       q    Type
REMARK                         _______ _______ _______ _____ _____    ______ ____
ROOT
ATOM      1  C   UNL     1       2.434   7.406  18.868  0.00  0.00    +0.000 C 
ATOM      2  O   UNL     1       1.807   8.028  18.013  0.00  0.00    +0.000 OA
ATOM      3  N   UNL     1       3.662   6.821  18.638  0.00  0.00    +0.000 N 
ATOM      4  C   UNL     1       4.285   6.971  17.338  0.00  0.00    +0.000 C 
ATOM      5  C   UNL     1       4.842   5.679  16.760  0.00  0.00    +0.000 A 
ATOM      6  C   UNL     1       4.966   4.527  17.572  0.00  0.00    +0.000 A 
ATOM      7  C   UNL     1       5.471   3.343  17.022  0.00  0.00    +0.000 A 
ATOM      8  C   UNL     1       5.851   3.291  15.685  0.00  0.00    +0.000 A 
ATOM      9  C   UNL     1       5.741   4.419  14.861  0.00  0.00    +0.000 A 
ATOM     10  C   UNL     1       6.149   4.293  13.418  0.00  0.00    +0.000 C 
ATOM     11  C   UNL     1       5.248   5.630  15.399  0.00  0.00    +0.000 A 
ATOM     12  C   UNL     1       5.125   6.871  14.544  0.00  0.00    +0.000 C 
ATOM     13  C   UNL     1       4.453   4.511  19.010  0.00  0.00    +0.000 C 
ATOM     14  C   UNL     1       4.353   5.946  19.577  0.00  0.00    +0.000 C 
ENDROOT
BRANCH  13  15
ATOM     15  C   UNL     1       3.122   3.776  19.164  0.00  0.00    +0.000 A 
ATOM     16  C   UNL     1       2.774   3.203  20.398  0.00  0.00    +0.000 A 
ATOM     17  C   UNL     1       1.518   2.618  20.578  0.00  0.00    +0.000 A 
ATOM     18  C   UNL     1       0.598   2.592  19.531  0.00  0.00    +0.000 A 
ATOM     19  C   UNL     1       0.942   3.121  18.293  0.00  0.00    +0.000 A 
ATOM     20  C   UNL     1       2.194   3.705  18.111  0.00  0.00    +0.000 A 
ENDBRANCH  13  15
BRANCH   1  22
ATOM     21  C   UNL     1       1.316   8.384  20.687  0.00  0.00    +0.000 C 
ATOM     22  O   UNL     1       1.997   7.250  20.147  0.00  0.00    +0.000 OA
ENDBRANCH   1  22
TORSDOF 2
ENDMDL
MODEL 4
REMARK VINA RESULT:      -6.4      2.405      3.651
REMARK  Name = 
REMARK  5 active torsions:
REMARK  status: ('A' for Active; 'I' for Inactive)
REMARK    1  A    between atoms: C_1  and  O_2
REMARK    2  A    between atoms: O_2  and  C_3
REMARK    3  A    between atoms: C_11  and  C_12
REMARK    4  A    between atoms: C_13  and  C_14
REMARK    5  A    between atoms: C_15  and  C_16
REMARK                            x       y       z     vdW  Elec       q    Type
REMARK                         _______ _______ _______ _____ _____    ______ ____
ROOT
ATOM      1  C   UNL     1      -4.105  12.650  22.106  0.00  0.00    +0.000 C 
ATOM      2  O   UNL     1      -5.240  12.186  22.190  0.00  0.00    +0.000 OA
ATOM      3  N   UNL     1      -3.462  12.878  20.908  0.00  0.00    +0.000 N 
ATOM      4  C   UNL     1      -4.158  12.603  19.666  0.00  0.00    +0.000 C 
ATOM      5  C   UNL     1      -3.336  11.827  18.648  0.00  0.00    +0.000 A 
ATOM      6  C   UNL     1      -1.943  11.660  18.831  0.00  0.00    +0.000 A 
ATOM      7  C   UNL     1      -1.203  10.935  17.890  0.00  0.00    +0.000 A 
ATOM      8  C   UNL     1      -1.828  10.378  16.778  0.00  0.00    +0.000 A 
ATOM      9  C   UNL     1      -3.205  10.534  16.572  0.00  0.00    +0.000 A 
ATOM     10  C   UNL     1      -3.824   9.890  15.361  0.00  0.00    +0.000 C 
ATOM     11  C   UNL     1      -3.969  11.275  17.503  0.00  0.00    +0.000 A 
ATOM     12  C   UNL     1      -5.456  11.474  17.309  0.00  0.00    +0.000 C 
ATOM     13  C   UNL     1      -1.244  12.155  20.095  0.00  0.00    +0.000 C 
ATOM     14  C   UNL     1      -2.064  13.272  20.779  0.00  0.00    +0.000 C 
ENDROOT
BRANCH  13  15
ATOM     15  C   UNL     1      -0.930  11.033  21.085  0.00  0.00    +0.000 A 
ATOM     16  C   UNL     1      -0.562   9.763  20.613  0.00  0.00    +0.000 A 
ATOM     17  C   UNL     1      -0.175   8.760  21.507  0.00  0.00    +0.000 A 
ATOM     18  C   UNL     1      -0.155   9.011  22.878  0.00  0.00    +0.000 A 
ATOM     19  C   UNL     1      -0.552  10.252  23.362  0.00  0.00    +0.000 A 
ATOM     20  C   UNL     1      -0.939  11.252  22.473  0.00  0.00    +0.000 A 
ENDBRANCH  13  15
BRANCH   1  22
ATOM     21  C   UNL     1      -3.929  12.638  24.448  0.00  0.00    +0.000 C 
ATOM     22  O   UNL     1      -3.367  13.016  23.189  0.00  0.00    +0.000 OA
ENDBRANCH   1  22
TORSDOF 2
ENDMDL
MODEL 5
REMARK VINA RESULT:      -6.4      5.058      8.586
REMARK  Name = 
REMARK  5 active torsions:
REMARK  status: ('A' for Active; 'I' for Inactive)
REMARK    1  A    between atoms: C_1  and  O_2
REMARK    2  A    between atoms: O_2  and  C_3
REMARK    3  A    between atoms: C_11  and  C_12
REMARK    4  A    between atoms: C_13  and  C_14
REMARK    5  A    between atoms: C_15  and  C_16
REMARK                            x       y       z     vdW  Elec       q    Type
REMARK                         _______ _______ _______ _____ _____    ______ ____
ROOT
ATOM      1  C   UNL     1       2.350   7.609  18.795  0.00  0.00    +0.000 C 
ATOM      2  O   UNL     1       1.760   8.203  17.894  0.00  0.00    +0.000 OA
ATOM      3  N   UNL     1       3.570   6.988  18.627  0.00  0.00    +0.000 N 
ATOM      4  C   UNL     1       4.231   7.063  17.338  0.00  0.00    +0.000 C 
ATOM      5  C   UNL     1       4.774   5.733  16.838  0.00  0.00    +0.000 A 
ATOM      6  C   UNL     1       4.850   4.618  17.706  0.00  0.00    +0.000 A 
ATOM      7  C   UNL     1       5.343   3.399  17.227  0.00  0.00    +0.000 A 
ATOM      8  C   UNL     1       5.757   3.276  15.904  0.00  0.00    +0.000 A 
ATOM      9  C   UNL     1       5.695   4.366  15.025  0.00  0.00    +0.000 A 
ATOM     10  C   UNL     1       6.139   4.163  13.602  0.00  0.00    +0.000 C 
ATOM     11  C   UNL     1       5.214   5.611  15.493  0.00  0.00    +0.000 A 
ATOM     12  C   UNL     1       5.143   6.813  14.577  0.00  0.00    +0.000 C 
ATOM     13  C   UNL     1       4.299   4.682  19.129  0.00  0.00    +0.000 C 
ATOM     14  C   UNL     1       4.216   6.144  19.624  0.00  0.00    +0.000 C 
ENDROOT
BRANCH  13  15
ATOM     15  C   UNL     1       2.948   3.983  19.280  0.00  0.00    +0.000 A 
ATOM     16  C   UNL     1       2.236   3.577  18.139  0.00  0.00    +0.000 A 
ATOM     17  C   UNL     1       1.050   2.848  18.267  0.00  0.00    +0.000 A 
ATOM     18  C   UNL     1       0.559   2.521  19.530  0.00  0.00    +0.000 A 
ATOM     19  C   UNL     1       1.233   2.949  20.668  0.00  0.00    +0.000 A 
ATOM     20  C   UNL     1       2.415   3.676  20.543  0.00  0.00    +0.000 A 
ENDBRANCH  13  15
BRANCH   1  22
ATOM     21  C   UNL     1       1.234   8.707  20.546  0.00  0.00    +0.000 C 
ATOM     22  O   UNL     1       1.876   7.523  20.067  0.00  0.00    +0.000 OA
ENDBRANCH   1  22
TORSDOF 2
ENDMDL
MODEL 6
REMARK VINA RESULT:      -6.3      2.231      5.143
REMARK  Name = 
REMARK  5 active torsions:
REMARK  status: ('A' for Active; 'I' for Inactive)
REMARK    1  A    between atoms: C_1  and  O_2
REMARK    2  A    between atoms: O_2  and  C_3
REMARK    3  A    between atoms: C_11  and  C_12
REMARK    4  A    between atoms: C_13  and  C_14
REMARK    5  A    between atoms: C_15  and  C_16
REMARK                            x       y       z     vdW  Elec       q    Type
REMARK                         _______ _______ _______ _____ _____    ______ ____
ROOT
ATOM      1  C   UNL     1      -0.845  11.398  22.319  0.00  0.00    +0.000 C 
ATOM      2  O   UNL     1      -0.353  10.966  23.360  0.00  0.00    +0.000 OA
ATOM      3  N   UNL     1      -0.832  10.705  21.127  0.00  0.00    +0.000 N 
ATOM      4  C   UNL     1      -0.253   9.377  21.085  0.00  0.00    +0.000 C 
ATOM      5  C   UNL     1       0.687   9.143  19.912  0.00  0.00    +0.000 A 
ATOM      6  C   UNL     1       0.737  10.066  18.840  0.00  0.00    +0.000 A 
ATOM      7  C   UNL     1       1.614   9.841  17.773  0.00  0.00    +0.000 A 
ATOM      8  C   UNL     1       2.437   8.718  17.759  0.00  0.00    +0.000 A 
ATOM      9  C   UNL     1       2.402   7.788  18.806  0.00  0.00    +0.000 A 
ATOM     10  C   UNL     1       3.330   6.605  18.742  0.00  0.00    +0.000 C 
ATOM     11  C   UNL     1       1.513   7.987  19.887  0.00  0.00    +0.000 A 
ATOM     12  C   UNL     1       1.439   6.999  21.029  0.00  0.00    +0.000 C 
ATOM     13  C   UNL     1      -0.063  11.367  18.875  0.00  0.00    +0.000 C 
ATOM     14  C   UNL     1      -1.260  11.252  19.845  0.00  0.00    +0.000 C 
ENDROOT
BRANCH  13  15
ATOM     15  C   UNL     1       0.793  12.587  19.214  0.00  0.00    +0.000 A 
ATOM     16  C   UNL     1       0.455  13.848  18.695  0.00  0.00    +0.000 A 
ATOM     17  C   UNL     1       1.168  14.986  19.079  0.00  0.00    +0.000 A 
ATOM     18  C   UNL     1       2.228  14.881  19.979  0.00  0.00    +0.000 A 
ATOM     19  C   UNL     1       2.597  13.635  20.472  0.00  0.00    +0.000 A 
ATOM     20  C   UNL     1       1.888  12.499  20.090  0.00  0.00    +0.000 A 
ENDBRANCH  13  15
BRANCH   1  22
ATOM     21  C   UNL     1      -0.669  13.727  22.570  0.00  0.00    +0.000 C 
ATOM     22  O   UNL     1      -1.480  12.598  22.236  0.00  0.00    +0.000 OA
ENDBRANCH   1  22
TORSDOF 2
ENDMDL
MODEL 7
REMARK VINA RESULT:      -6.3      2.277      5.209
REMARK  Name = 
REMARK  5 active torsions:
REMARK  status: ('A' for Active; 'I' for Inactive)
REMARK    1  A    between atoms: C_1  and  O_2
REMARK    2  A    between atoms: O_2  and  C_3
REMARK    3  A    between atoms: C_11  and  C_12
REMARK    4  A    between atoms: C_13  and  C_14
REMARK    5  A    between atoms: C_15  and  C_16
REMARK                            x       y       z     vdW  Elec       q    Type
REMARK                         _______ _______ _______ _____ _____    ______ ____
ROOT
ATOM      1  C   UNL     1      -0.816  11.029  22.408  0.00  0.00    +0.000 C 
ATOM      2  O   UNL     1      -0.269  10.597  23.421  0.00  0.00    +0.000 OA
ATOM      3  N   UNL     1      -0.803  10.370  21.196  0.00  0.00    +0.000 N 
ATOM      4  C   UNL     1      -0.152   9.078  21.099  0.00  0.00    +0.000 C 
ATOM      5  C   UNL     1       0.761   8.930  19.892  0.00  0.00    +0.000 A 
ATOM      6  C   UNL     1       0.727   9.883  18.846  0.00  0.00    +0.000 A 
ATOM      7  C   UNL     1       1.581   9.736  17.747  0.00  0.00    +0.000 A 
ATOM      8  C   UNL     1       2.464   8.663  17.676  0.00  0.00    +0.000 A 
ATOM      9  C   UNL     1       2.514   7.704  18.697  0.00  0.00    +0.000 A 
ATOM     10  C   UNL     1       3.504   6.577  18.571  0.00  0.00    +0.000 C 
ATOM     11  C   UNL     1       1.649   7.824  19.809  0.00  0.00    +0.000 A 
ATOM     12  C   UNL     1       1.667   6.802  20.925  0.00  0.00    +0.000 C 
ATOM     13  C   UNL     1      -0.142  11.135  18.942  0.00  0.00    +0.000 C 
ATOM     14  C   UNL     1      -1.301  10.927  19.945  0.00  0.00    +0.000 C 
ENDROOT
BRANCH  13  15
ATOM     15  C   UNL     1       0.654  12.392  19.290  0.00  0.00    +0.000 A 
ATOM     16  C   UNL     1       1.742  12.312  20.175  0.00  0.00    +0.000 A 
ATOM     17  C   UNL     1       2.538  13.434  20.421  0.00  0.00    +0.000 A 
ATOM     18  C   UNL     1       2.257  14.646  19.794  0.00  0.00    +0.000 A 
ATOM     19  C   UNL     1       1.161  14.750  18.946  0.00  0.00    +0.000 A 
ATOM     20  C   UNL     1       0.365  13.634  18.699  0.00  0.00    +0.000 A 
ENDBRANCH  13  15
BRANCH   1  22
ATOM     21  C   UNL     1      -0.765  13.354  22.731  0.00  0.00    +0.000 C 
ATOM     22  O   UNL     1      -1.520  12.192  22.379  0.00  0.00    +0.000 OA
ENDBRANCH   1  22
TORSDOF 2
ENDMDL
MODEL 8
REMARK VINA RESULT:      -6.3      2.443      4.454
REMARK  Name = 
REMARK  5 active torsions:
REMARK  status: ('A' for Active; 'I' for Inactive)
REMARK    1  A    between atoms: C_1  and  O_2
REMARK    2  A    between atoms: O_2  and  C_3
REMARK    3  A    between atoms: C_11  and  C_12
REMARK    4  A    between atoms: C_13  and  C_14
REMARK    5  A    between atoms: C_15  and  C_16
REMARK                            x       y       z     vdW  Elec       q    Type
REMARK                         _______ _______ _______ _____ _____    ______ ____
ROOT
ATOM      1  C   UNL     1      -0.406  10.226  22.023  0.00  0.00    +0.000 C 
ATOM      2  O   UNL     1      -0.774   9.363  22.817  0.00  0.00    +0.000 OA
ATOM      3  N   UNL     1      -0.911  11.510  22.006  0.00  0.00    +0.000 N 
ATOM      4  C   UNL     1      -1.897  11.896  22.996  0.00  0.00    +0.000 C 
ATOM      5  C   UNL     1      -3.093  12.644  22.425  0.00  0.00    +0.000 A 
ATOM      6  C   UNL     1      -3.063  13.136  21.099  0.00  0.00    +0.000 A 
ATOM      7  C   UNL     1      -4.176  13.813  20.586  0.00  0.00    +0.000 A 
ATOM      8  C   UNL     1      -5.309  14.005  21.370  0.00  0.00    +0.000 A 
ATOM      9  C   UNL     1      -5.361  13.531  22.688  0.00  0.00    +0.000 A 
ATOM     10  C   UNL     1      -6.623  13.752  23.478  0.00  0.00    +0.000 C 
ATOM     11  C   UNL     1      -4.243  12.857  23.231  0.00  0.00    +0.000 A 
ATOM     12  C   UNL     1      -4.258  12.341  24.653  0.00  0.00    +0.000 C 
ATOM     13  C   UNL     1      -1.886  12.845  20.171  0.00  0.00    +0.000 C 
ATOM     14  C   UNL     1      -0.615  12.503  20.981  0.00  0.00    +0.000 C 
ENDROOT
BRANCH  13  15
ATOM     15  C   UNL     1      -2.185  11.748  19.149  0.00  0.00    +0.000 A 
ATOM     16  C   UNL     1      -3.510  11.494  18.758  0.00  0.00    +0.000 A 
ATOM     17  C   UNL     1      -3.786  10.565  17.752  0.00  0.00    +0.000 A 
ATOM     18  C   UNL     1      -2.747   9.875  17.129  0.00  0.00    +0.000 A 
ATOM     19  C   UNL     1      -1.434  10.088  17.531  0.00  0.00    +0.000 A 
ATOM     20  C   UNL     1      -1.157  11.013  18.534  0.00  0.00    +0.000 A 
ENDBRANCH  13  15
BRANCH   1  22
ATOM     21  C   UNL     1       1.057   8.678  21.033  0.00  0.00    +0.000 C 
ATOM     22  O   UNL     1       0.561  10.018  21.089  0.00  0.00    +0.000 OA
ENDBRANCH   1  22
TORSDOF 2
ENDMDL
MODEL 9
REMARK VINA RESULT:      -6.2      2.456      4.504
REMARK  Name = 
REMARK  5 active torsions:
REMARK  status: ('A' for Active; 'I' for Inactive)
REMARK    1  A    between atoms: C_1  and  O_2
REMARK    2  A    between atoms: O_2  and  C_3
REMARK    3  A    between atoms: C_11  and  C_12
REMARK    4  A    between atoms: C_13  and  C_14
REMARK    5  A    between atoms: C_15  and  C_16
REMARK                            x       y       z     vdW  Elec       q    Type
REMARK                         _______ _______ _______ _____ _____    ______ ____
ROOT
ATOM      1  C   UNL     1      -0.348  10.189  22.045  0.00  0.00    +0.000 C 
ATOM      2  O   UNL     1      -0.770   9.300  22.782  0.00  0.00    +0.000 OA
ATOM      3  N   UNL     1      -0.814  11.487  22.074  0.00  0.00    +0.000 N 
ATOM      4  C   UNL     1      -1.823  11.856  23.047  0.00  0.00    +0.000 C 
ATOM      5  C   UNL     1      -2.975  12.667  22.474  0.00  0.00    +0.000 A 
ATOM      6  C   UNL     1      -2.884  13.221  21.175  0.00  0.00    +0.000 A 
ATOM      7  C   UNL     1      -3.957  13.957  20.659  0.00  0.00    +0.000 A 
ATOM      8  C   UNL     1      -5.112  14.146  21.412  0.00  0.00    +0.000 A 
ATOM      9  C   UNL     1      -5.225  13.610  22.702  0.00  0.00    +0.000 A 
ATOM     10  C   UNL     1      -6.507  13.833  23.459  0.00  0.00    +0.000 C 
ATOM     11  C   UNL     1      -4.147  12.877  23.249  0.00  0.00    +0.000 A 
ATOM     12  C   UNL     1      -4.228  12.293  24.642  0.00  0.00    +0.000 C 
ATOM     13  C   UNL     1      -1.683  12.939  20.274  0.00  0.00    +0.000 C 
ATOM     14  C   UNL     1      -0.453  12.519  21.110  0.00  0.00    +0.000 C 
ENDROOT
BRANCH  13  15
ATOM     15  C   UNL     1      -1.978  11.902  19.190  0.00  0.00    +0.000 A 
ATOM     16  C   UNL     1      -0.925  11.194  18.590  0.00  0.00    +0.000 A 
ATOM     17  C   UNL     1      -1.189  10.174  17.672  0.00  0.00    +0.000 A 
ATOM     18  C   UNL     1      -2.504   9.852  17.339  0.00  0.00    +0.000 A 
ATOM     19  C   UNL     1      -3.556  10.569  17.896  0.00  0.00    +0.000 A 
ATOM     20  C   UNL     1      -3.294  11.587  18.811  0.00  0.00    +0.000 A 
ENDBRANCH  13  15
BRANCH   1  22
ATOM     21  C   UNL     1       1.089   8.642  21.016  0.00  0.00    +0.000 C 
ATOM     22  O   UNL     1       0.645   9.995  21.136  0.00  0.00    +0.000 OA
ENDBRANCH   1  22
TORSDOF 2
ENDMDL
