MODEL 1
REMARK VINA RESULT:      -7.6      0.000      0.000
REMARK  Name = 
REMARK  10 active torsions:
REMARK  status: ('A' for Active; 'I' for Inactive)
REMARK    1  A    between atoms: C_1  and  O_2
REMARK    2  A    between atoms: O_2  and  C_3
REMARK    3  A    between atoms: C_5  and  C_6
REMARK    4  A    between atoms: C_7  and  C_8
REMARK    5  A    between atoms: C_8  and  C_10
REMARK    6  A    between atoms: C_11  and  O_12
REMARK    7  A    between atoms: C_14  and  C_15
REMARK    8  A    between atoms: C_20  and  O_21
REMARK    9  A    between atoms: O_21  and  C_22
REMARK   10  A    between atoms: C_23  and  O_24
REMARK                            x       y       z     vdW  Elec       q    Type
REMARK                         _______ _______ _______ _____ _____    ______ ____
ROOT
ATOM      1  C   UNL     1       8.230   9.061  17.689  0.00  0.00    +0.000 C 
ATOM      2  C   UNL     1       8.088   7.801  18.133  0.00  0.00    +0.000 C 
ENDROOT
BRANCH   1   5
ATOM      3  C   UNL     1      10.687  11.902  18.396  0.00  0.00    +0.000 A 
ATOM      4  C   UNL     1       9.947  10.914  17.722  0.00  0.00    +0.000 A 
ATOM      5  C   UNL     1       9.029  10.090  18.389  0.00  0.00    +0.000 A 
ATOM      6  C   UNL     1       8.846  10.293  19.760  0.00  0.00    +0.000 A 
ATOM      7  C   UNL     1       9.569  11.275  20.461  0.00  0.00    +0.000 A 
ATOM      8  C   UNL     1      10.492  12.080  19.774  0.00  0.00    +0.000 A 
BRANCH   3  10
ATOM      9  C   UNL     1      11.190  13.795  17.003  0.00  0.00    +0.000 C 
ATOM     10  O   UNL     1      11.566  12.549  17.567  0.00  0.00    +0.000 OA
ENDBRANCH   3  10
BRANCH   7  11
ATOM     11  O   UNL     1       9.366  11.254  21.817  0.00  0.00    +0.000 OA
ATOM     12  C   UNL     1       8.227  11.932  22.334  0.00  0.00    +0.000 C 
ENDBRANCH   7  11
BRANCH   8  13
ATOM     13  O   UNL     1      11.246  12.993  20.454  0.00  0.00    +0.000 OA
ATOM     14  H   UNL     1      11.101  12.810  21.398  0.00  0.00    +0.000 HD
ENDBRANCH   8  13
ENDBRANCH   1   5
BRANCH   2  15
ATOM     15  C   UNL     1       7.324   6.768  17.373  0.00  0.00    +0.000 C 
ATOM     16  O   UNL     1       7.668   6.412  16.247  0.00  0.00    +0.000 OA
BRANCH  15  17
ATOM     17  C   UNL     1       6.073   6.235  17.997  0.00  0.00    +0.000 A 
ATOM     18  C   UNL     1       4.906   6.360  17.335  0.00  0.00    +0.000 A 
ATOM     19  C   UNL     1       3.663   5.917  17.908  0.00  0.00    +0.000 A 
ATOM     20  C   UNL     1       3.662   5.340  19.114  0.00  0.00    +0.000 A 
ATOM     21  C   UNL     1       2.451   4.842  19.833  0.00  0.00    +0.000 C 
ATOM     22  O   UNL     1       4.864   5.146  19.822  0.00  0.00    +0.000 OA
ATOM     23  C   UNL     1       6.069   5.529  19.304  0.00  0.00    +0.000 A 
ATOM     24  O   UNL     1       7.113   5.286  19.909  0.00  0.00    +0.000 OA
BRANCH  18  25
ATOM     25  O   UNL     1       4.748   6.922  16.088  0.00  0.00    +0.000 OA
ATOM     26  H   UNL     1       3.826   7.256  16.009  0.00  0.00    +0.000 HD
ENDBRANCH  18  25
ENDBRANCH  15  17
ENDBRANCH   2  15
TORSDOF 7
ENDMDL
MODEL 2
REMARK VINA RESULT:      -7.3      5.814      8.539
REMARK  Name = 
REMARK  10 active torsions:
REMARK  status: ('A' for Active; 'I' for Inactive)
REMARK    1  A    between atoms: C_1  and  O_2
REMARK    2  A    between atoms: O_2  and  C_3
REMARK    3  A    between atoms: C_5  and  C_6
REMARK    4  A    between atoms: C_7  and  C_8
REMARK    5  A    between atoms: C_8  and  C_10
REMARK    6  A    between atoms: C_11  and  O_12
REMARK    7  A    between atoms: C_14  and  C_15
REMARK    8  A    between atoms: C_20  and  O_21
REMARK    9  A    between atoms: O_21  and  C_22
REMARK   10  A    between atoms: C_23  and  O_24
REMARK                            x       y       z     vdW  Elec       q    Type
REMARK                         _______ _______ _______ _____ _____    ______ ____
ROOT
ATOM      1  C   UNL     1       2.902   7.140  18.161  0.00  0.00    +0.000 C 
ATOM      2  C   UNL     1       2.169   7.899  18.993  0.00  0.00    +0.000 C 
ENDROOT
BRANCH   1   5
ATOM      3  C   UNL     1       5.399   4.342  18.895  0.00  0.00    +0.000 A 
ATOM      4  C   UNL     1       4.860   5.583  18.513  0.00  0.00    +0.000 A 
ATOM      5  C   UNL     1       3.481   5.833  18.541  0.00  0.00    +0.000 A 
ATOM      6  C   UNL     1       2.640   4.809  18.988  0.00  0.00    +0.000 A 
ATOM      7  C   UNL     1       3.149   3.559  19.379  0.00  0.00    +0.000 A 
ATOM      8  C   UNL     1       4.533   3.327  19.331  0.00  0.00    +0.000 A 
BRANCH   3  10
ATOM      9  C   UNL     1       7.316   4.643  17.477  0.00  0.00    +0.000 C 
ATOM     10  O   UNL     1       6.759   4.293  18.735  0.00  0.00    +0.000 OA
ENDBRANCH   3  10
BRANCH   7  11
ATOM     11  O   UNL     1       2.183   2.627  19.665  0.00  0.00    +0.000 OA
ATOM     12  C   UNL     1       1.149   2.420  18.709  0.00  0.00    +0.000 C 
ENDBRANCH   7  11
BRANCH   8  13
ATOM     13  O   UNL     1       5.035   2.096  19.648  0.00  0.00    +0.000 OA
ATOM     14  H   UNL     1       5.315   2.153  20.577  0.00  0.00    +0.000 HD
ENDBRANCH   8  13
ENDBRANCH   1   5
BRANCH   2  15
ATOM     15  C   UNL     1       1.547   9.186  18.561  0.00  0.00    +0.000 C 
ATOM     16  O   UNL     1       1.804   9.690  17.469  0.00  0.00    +0.000 OA
BRANCH  15  17
ATOM     17  C   UNL     1       0.659   9.887  19.539  0.00  0.00    +0.000 A 
ATOM     18  C   UNL     1      -0.323  10.686  19.077  0.00  0.00    +0.000 A 
ATOM     19  C   UNL     1      -1.172  11.429  19.969  0.00  0.00    +0.000 A 
ATOM     20  C   UNL     1      -1.010  11.307  21.289  0.00  0.00    +0.000 A 
ATOM     21  C   UNL     1      -1.809  12.021  22.330  0.00  0.00    +0.000 C 
ATOM     22  O   UNL     1      -0.027  10.447  21.818  0.00  0.00    +0.000 OA
ATOM     23  C   UNL     1       0.785   9.704  21.008  0.00  0.00    +0.000 A 
ATOM     24  O   UNL     1       1.588   8.907  21.492  0.00  0.00    +0.000 OA
BRANCH  18  25
ATOM     25  O   UNL     1      -0.619  10.907  17.751  0.00  0.00    +0.000 OA
ATOM     26  H   UNL     1      -0.159  11.727  17.458  0.00  0.00    +0.000 HD
ENDBRANCH  18  25
ENDBRANCH  15  17
ENDBRANCH   2  15
TORSDOF 7
ENDMDL
MODEL 3
REMARK VINA RESULT:      -7.3      0.420      2.598
REMARK  Name = 
REMARK  10 active torsions:
REMARK  status: ('A' for Active; 'I' for Inactive)
REMARK    1  A    between atoms: C_1  and  O_2
REMARK    2  A    between atoms: O_2  and  C_3
REMARK    3  A    between atoms: C_5  and  C_6
REMARK    4  A    between atoms: C_7  and  C_8
REMARK    5  A    between atoms: C_8  and  C_10
REMARK    6  A    between atoms: C_11  and  O_12
REMARK    7  A    between atoms: C_14  and  C_15
REMARK    8  A    between atoms: C_20  and  O_21
REMARK    9  A    between atoms: O_21  and  C_22
REMARK   10  A    between atoms: C_23  and  O_24
REMARK                            x       y       z     vdW  Elec       q    Type
REMARK                         _______ _______ _______ _____ _____    ______ ____
ROOT
ATOM      1  C   UNL     1       8.346   9.311  17.877  0.00  0.00    +0.000 C 
ATOM      2  C   UNL     1       8.192   8.048  18.307  0.00  0.00    +0.000 C 
ENDROOT
BRANCH   1   5
ATOM      3  C   UNL     1       9.594  11.514  20.739  0.00  0.00    +0.000 A 
ATOM      4  C   UNL     1       8.891  10.530  20.021  0.00  0.00    +0.000 A 
ATOM      5  C   UNL     1       9.063  10.354  18.641  0.00  0.00    +0.000 A 
ATOM      6  C   UNL     1       9.982  11.181  17.987  0.00  0.00    +0.000 A 
ATOM      7  C   UNL     1      10.701  12.171  18.678  0.00  0.00    +0.000 A 
ATOM      8  C   UNL     1      10.504  12.337  20.058  0.00  0.00    +0.000 A 
BRANCH   3  10
ATOM      9  C   UNL     1       7.947  12.044  22.408  0.00  0.00    +0.000 C 
ATOM     10  O   UNL     1       9.232  11.552  22.060  0.00  0.00    +0.000 OA
ENDBRANCH   3  10
BRANCH   7  11
ATOM     11  O   UNL     1      11.461  12.977  17.867  0.00  0.00    +0.000 OA
ATOM     12  C   UNL     1      11.035  13.166  16.523  0.00  0.00    +0.000 C 
ENDBRANCH   7  11
BRANCH   8  13
ATOM     13  O   UNL     1      11.149  13.336  20.729  0.00  0.00    +0.000 OA
ATOM     14  H   UNL     1      11.970  12.943  21.071  0.00  0.00    +0.000 HD
ENDBRANCH   8  13
ENDBRANCH   1   5
BRANCH   2  15
ATOM     15  C   UNL     1       7.515   7.001  17.485  0.00  0.00    +0.000 C 
ATOM     16  O   UNL     1       7.862   6.766  16.329  0.00  0.00    +0.000 OA
BRANCH  15  17
ATOM     17  C   UNL     1       6.341   6.299  18.091  0.00  0.00    +0.000 A 
ATOM     18  C   UNL     1       5.160   6.318  17.442  0.00  0.00    +0.000 A 
ATOM     19  C   UNL     1       3.983   5.709  18.001  0.00  0.00    +0.000 A 
ATOM     20  C   UNL     1       4.061   5.081  19.178  0.00  0.00    +0.000 A 
ATOM     21  C   UNL     1       2.924   4.414  19.880  0.00  0.00    +0.000 C 
ATOM     22  O   UNL     1       5.286   4.995  19.870  0.00  0.00    +0.000 OA
ATOM     23  C   UNL     1       6.433   5.539  19.363  0.00  0.00    +0.000 A 
ATOM     24  O   UNL     1       7.505   5.390  19.951  0.00  0.00    +0.000 OA
BRANCH  18  25
ATOM     25  O   UNL     1       4.925   6.914  16.223  0.00  0.00    +0.000 OA
ATOM     26  H   UNL     1       5.774   6.964  15.728  0.00  0.00    +0.000 HD
ENDBRANCH  18  25
ENDBRANCH  15  17
ENDBRANCH   2  15
TORSDOF 7
ENDMDL
MODEL 4
REMARK VINA RESULT:      -7.3      4.564      8.387
REMARK  Name = 
REMARK  10 active torsions:
REMARK  status: ('A' for Active; 'I' for Inactive)
REMARK    1  A    between atoms: C_1  and  O_2
REMARK    2  A    between atoms: O_2  and  C_3
REMARK    3  A    between atoms: C_5  and  C_6
REMARK    4  A    between atoms: C_7  and  C_8
REMARK    5  A    between atoms: C_8  and  C_10
REMARK    6  A    between atoms: C_11  and  O_12
REMARK    7  A    between atoms: C_14  and  C_15
REMARK    8  A    between atoms: C_20  and  O_21
REMARK    9  A    between atoms: O_21  and  C_22
REMARK   10  A    between atoms: C_23  and  O_24
REMARK                            x       y       z     vdW  Elec       q    Type
REMARK                         _______ _______ _______ _____ _____    ______ ____
ROOT
ATOM      1  C   UNL     1       2.134   7.657  18.283  0.00  0.00    +0.000 C 
ATOM      2  C   UNL     1       2.185   8.946  17.909  0.00  0.00    +0.000 C 
ENDROOT
BRANCH   1   5
ATOM      3  C   UNL     1       4.212   4.450  18.235  0.00  0.00    +0.000 A 
ATOM      4  C   UNL     1       3.164   5.358  18.470  0.00  0.00    +0.000 A 
ATOM      5  C   UNL     1       3.236   6.697  18.060  0.00  0.00    +0.000 A 
ATOM      6  C   UNL     1       4.387   7.110  17.381  0.00  0.00    +0.000 A 
ATOM      7  C   UNL     1       5.450   6.226  17.129  0.00  0.00    +0.000 A 
ATOM      8  C   UNL     1       5.359   4.892  17.559  0.00  0.00    +0.000 A 
BRANCH   3  10
ATOM      9  C   UNL     1       3.404   2.205  17.938  0.00  0.00    +0.000 C 
ATOM     10  O   UNL     1       3.958   3.214  18.769  0.00  0.00    +0.000 OA
ENDBRANCH   3  10
BRANCH   7  11
ATOM     11  O   UNL     1       6.552   6.822  16.570  0.00  0.00    +0.000 OA
ATOM     12  C   UNL     1       7.459   7.496  17.436  0.00  0.00    +0.000 C 
ENDBRANCH   7  11
BRANCH   8  13
ATOM     13  O   UNL     1       6.411   4.039  17.377  0.00  0.00    +0.000 OA
ATOM     14  H   UNL     1       6.221   3.260  17.928  0.00  0.00    +0.000 HD
ENDBRANCH   8  13
ENDBRANCH   1   5
BRANCH   2  15
ATOM     15  C   UNL     1       1.079   9.907  18.202  0.00  0.00    +0.000 C 
ATOM     16  O   UNL     1      -0.039   9.769  17.710  0.00  0.00    +0.000 OA
BRANCH  15  17
ATOM     17  C   UNL     1       1.402  11.094  19.053  0.00  0.00    +0.000 A 
ATOM     18  C   UNL     1       2.088  12.121  18.513  0.00  0.00    +0.000 A 
ATOM     19  C   UNL     1       2.475  13.264  19.296  0.00  0.00    +0.000 A 
ATOM     20  C   UNL     1       2.126  13.329  20.584  0.00  0.00    +0.000 A 
ATOM     21  C   UNL     1       2.465  14.445  21.517  0.00  0.00    +0.000 C 
ATOM     22  O   UNL     1       1.368  12.301  21.179  0.00  0.00    +0.000 OA
ATOM     23  C   UNL     1       0.959  11.210  20.466  0.00  0.00    +0.000 A 
ATOM     24  O   UNL     1       0.239  10.359  20.988  0.00  0.00    +0.000 OA
BRANCH  18  25
ATOM     25  O   UNL     1       2.509  12.203  17.205  0.00  0.00    +0.000 OA
ATOM     26  H   UNL     1       1.819  11.804  16.626  0.00  0.00    +0.000 HD
ENDBRANCH  18  25
ENDBRANCH  15  17
ENDBRANCH   2  15
TORSDOF 7
ENDMDL
MODEL 5
REMARK VINA RESULT:      -7.2      5.073      8.402
REMARK  Name = 
REMARK  10 active torsions:
REMARK  status: ('A' for Active; 'I' for Inactive)
REMARK    1  A    between atoms: C_1  and  O_2
REMARK    2  A    between atoms: O_2  and  C_3
REMARK    3  A    between atoms: C_5  and  C_6
REMARK    4  A    between atoms: C_7  and  C_8
REMARK    5  A    between atoms: C_8  and  C_10
REMARK    6  A    between atoms: C_11  and  O_12
REMARK    7  A    between atoms: C_14  and  C_15
REMARK    8  A    between atoms: C_20  and  O_21
REMARK    9  A    between atoms: O_21  and  C_22
REMARK   10  A    between atoms: C_23  and  O_24
REMARK                            x       y       z     vdW  Elec       q    Type
REMARK                         _______ _______ _______ _____ _____    ______ ____
ROOT
ATOM      1  C   UNL     1       2.316   7.818  17.978  0.00  0.00    +0.000 C 
ATOM      2  C   UNL     1       1.828   8.634  18.927  0.00  0.00    +0.000 C 
ENDROOT
BRANCH   1   5
ATOM      3  C   UNL     1       5.163   5.273  18.127  0.00  0.00    +0.000 A 
ATOM      4  C   UNL     1       4.420   6.428  17.825  0.00  0.00    +0.000 A 
ATOM      5  C   UNL     1       3.102   6.600  18.271  0.00  0.00    +0.000 A 
ATOM      6  C   UNL     1       2.542   5.588  19.057  0.00  0.00    +0.000 A 
ATOM      7  C   UNL     1       3.260   4.424  19.378  0.00  0.00    +0.000 A 
ATOM      8  C   UNL     1       4.575   4.268  18.909  0.00  0.00    +0.000 A 
BRANCH   3  10
ATOM      9  C   UNL     1       7.506   5.789  18.280  0.00  0.00    +0.000 C 
ATOM     10  O   UNL     1       6.403   5.285  17.543  0.00  0.00    +0.000 OA
ENDBRANCH   3  10
BRANCH   7  11
ATOM     11  O   UNL     1       2.522   3.478  20.043  0.00  0.00    +0.000 OA
ATOM     12  C   UNL     1       2.120   3.761  21.379  0.00  0.00    +0.000 C 
ENDBRANCH   7  11
BRANCH   8  13
ATOM     13  O   UNL     1       5.261   3.114  19.160  0.00  0.00    +0.000 OA
ATOM     14  H   UNL     1       5.693   3.242  20.022  0.00  0.00    +0.000 HD
ENDBRANCH   8  13
ENDBRANCH   1   5
BRANCH   2  15
ATOM     15  C   UNL     1       0.986   9.824  18.602  0.00  0.00    +0.000 C 
ATOM     16  O   UNL     1       0.128   9.783  17.722  0.00  0.00    +0.000 OA
BRANCH  15  17
ATOM     17  C   UNL     1       1.278  11.097  19.330  0.00  0.00    +0.000 A 
ATOM     18  C   UNL     1       1.944  12.080  18.691  0.00  0.00    +0.000 A 
ATOM     19  C   UNL     1       2.302  13.304  19.356  0.00  0.00    +0.000 A 
ATOM     20  C   UNL     1       1.944  13.491  20.630  0.00  0.00    +0.000 A 
ATOM     21  C   UNL     1       2.253  14.703  21.447  0.00  0.00    +0.000 C 
ATOM     22  O   UNL     1       1.206  12.511  21.324  0.00  0.00    +0.000 OA
ATOM     23  C   UNL     1       0.825  11.345  20.722  0.00  0.00    +0.000 A 
ATOM     24  O   UNL     1       0.121  10.534  21.325  0.00  0.00    +0.000 OA
BRANCH  18  25
ATOM     25  O   UNL     1       2.371  12.039  17.383  0.00  0.00    +0.000 OA
ATOM     26  H   UNL     1       3.218  12.536  17.313  0.00  0.00    +0.000 HD
ENDBRANCH  18  25
ENDBRANCH  15  17
ENDBRANCH   2  15
TORSDOF 7
ENDMDL
MODEL 6
REMARK VINA RESULT:      -7.2      5.533      8.860
REMARK  Name = 
REMARK  10 active torsions:
REMARK  status: ('A' for Active; 'I' for Inactive)
REMARK    1  A    between atoms: C_1  and  O_2
REMARK    2  A    between atoms: O_2  and  C_3
REMARK    3  A    between atoms: C_5  and  C_6
REMARK    4  A    between atoms: C_7  and  C_8
REMARK    5  A    between atoms: C_8  and  C_10
REMARK    6  A    between atoms: C_11  and  O_12
REMARK    7  A    between atoms: C_14  and  C_15
REMARK    8  A    between atoms: C_20  and  O_21
REMARK    9  A    between atoms: O_21  and  C_22
REMARK   10  A    between atoms: C_23  and  O_24
REMARK                            x       y       z     vdW  Elec       q    Type
REMARK                         _______ _______ _______ _____ _____    ______ ____
ROOT
ATOM      1  C   UNL     1       2.905   7.530  17.983  0.00  0.00    +0.000 C 
ATOM      2  C   UNL     1       1.946   8.102  18.730  0.00  0.00    +0.000 C 
ENDROOT
BRANCH   1   5
ATOM      3  C   UNL     1       2.759   3.712  17.952  0.00  0.00    +0.000 A 
ATOM      4  C   UNL     1       2.378   5.063  17.863  0.00  0.00    +0.000 A 
ATOM      5  C   UNL     1       3.286   6.106  18.092  0.00  0.00    +0.000 A 
ATOM      6  C   UNL     1       4.609   5.766  18.395  0.00  0.00    +0.000 A 
ATOM      7  C   UNL     1       5.020   4.425  18.487  0.00  0.00    +0.000 A 
ATOM      8  C   UNL     1       4.090   3.397  18.265  0.00  0.00    +0.000 A 
BRANCH   3  10
ATOM      9  C   UNL     1       0.886   2.504  18.852  0.00  0.00    +0.000 C 
ATOM     10  O   UNL     1       1.705   2.860  17.749  0.00  0.00    +0.000 OA
ENDBRANCH   3  10
BRANCH   7  11
ATOM     11  O   UNL     1       6.313   4.267  18.918  0.00  0.00    +0.000 OA
ATOM     12  C   UNL     1       7.086   5.437  19.160  0.00  0.00    +0.000 C 
ENDBRANCH   7  11
BRANCH   8  13
ATOM     13  O   UNL     1       4.462   2.091  18.415  0.00  0.00    +0.000 OA
ATOM     14  H   UNL     1       3.772   1.678  18.961  0.00  0.00    +0.000 HD
ENDBRANCH   8  13
ENDBRANCH   1   5
BRANCH   2  15
ATOM     15  C   UNL     1       1.541   9.529  18.554  0.00  0.00    +0.000 C 
ATOM     16  O   UNL     1       1.980  10.213  17.632  0.00  0.00    +0.000 OA
BRANCH  15  17
ATOM     17  C   UNL     1       0.642  10.125  19.591  0.00  0.00    +0.000 A 
ATOM     18  C   UNL     1      -0.332  10.973  19.204  0.00  0.00    +0.000 A 
ATOM     19  C   UNL     1      -1.191  11.620  20.159  0.00  0.00    +0.000 A 
ATOM     20  C   UNL     1      -1.045  11.357  21.461  0.00  0.00    +0.000 A 
ATOM     21  C   UNL     1      -1.856  11.959  22.562  0.00  0.00    +0.000 C 
ATOM     22  O   UNL     1      -0.072  10.442  21.908  0.00  0.00    +0.000 OA
ATOM     23  C   UNL     1       0.749   9.787  21.033  0.00  0.00    +0.000 A 
ATOM     24  O   UNL     1       1.544   8.940  21.439  0.00  0.00    +0.000 OA
BRANCH  18  25
ATOM     25  O   UNL     1      -0.611  11.335  17.905  0.00  0.00    +0.000 OA
ATOM     26  H   UNL     1      -0.946  12.261  17.902  0.00  0.00    +0.000 HD
ENDBRANCH  18  25
ENDBRANCH  15  17
ENDBRANCH   2  15
TORSDOF 7
ENDMDL
MODEL 7
REMARK VINA RESULT:      -7.2      4.977      8.697
REMARK  Name = 
REMARK  10 active torsions:
REMARK  status: ('A' for Active; 'I' for Inactive)
REMARK    1  A    between atoms: C_1  and  O_2
REMARK    2  A    between atoms: O_2  and  C_3
REMARK    3  A    between atoms: C_5  and  C_6
REMARK    4  A    between atoms: C_7  and  C_8
REMARK    5  A    between atoms: C_8  and  C_10
REMARK    6  A    between atoms: C_11  and  O_12
REMARK    7  A    between atoms: C_14  and  C_15
REMARK    8  A    between atoms: C_20  and  O_21
REMARK    9  A    between atoms: O_21  and  C_22
REMARK   10  A    between atoms: C_23  and  O_24
REMARK                            x       y       z     vdW  Elec       q    Type
REMARK                         _______ _______ _______ _____ _____    ______ ____
ROOT
ATOM      1  C   UNL     1       2.390   8.130  18.007  0.00  0.00    +0.000 C 
ATOM      2  C   UNL     1       1.653   8.742  18.949  0.00  0.00    +0.000 C 
ENDROOT
BRANCH   1   5
ATOM      3  C   UNL     1       3.509   4.749  19.393  0.00  0.00    +0.000 A 
ATOM      4  C   UNL     1       2.773   5.929  19.186  0.00  0.00    +0.000 A 
ATOM      5  C   UNL     1       3.166   6.894  18.249  0.00  0.00    +0.000 A 
ATOM      6  C   UNL     1       4.317   6.642  17.495  0.00  0.00    +0.000 A 
ATOM      7  C   UNL     1       5.072   5.471  17.677  0.00  0.00    +0.000 A 
ATOM      8  C   UNL     1       4.665   4.523  18.631  0.00  0.00    +0.000 A 
BRANCH   3  10
ATOM      9  C   UNL     1       1.652   4.219  20.824  0.00  0.00    +0.000 C 
ATOM     10  O   UNL     1       2.982   3.975  20.393  0.00  0.00    +0.000 OA
ENDBRANCH   3  10
BRANCH   7  11
ATOM     11  O   UNL     1       6.238   5.441  16.954  0.00  0.00    +0.000 OA
ATOM     12  C   UNL     1       7.290   6.317  17.343  0.00  0.00    +0.000 C 
ENDBRANCH   7  11
BRANCH   8  13
ATOM     13  O   UNL     1       5.425   3.412  18.862  0.00  0.00    +0.000 OA
ATOM     14  H   UNL     1       5.835   3.546  19.733  0.00  0.00    +0.000 HD
ENDBRANCH   8  13
ENDBRANCH   1   5
BRANCH   2  15
ATOM     15  C   UNL     1       0.832   9.955  18.658  0.00  0.00    +0.000 C 
ATOM     16  O   UNL     1      -0.084   9.930  17.838  0.00  0.00    +0.000 OA
BRANCH  15  17
ATOM     17  C   UNL     1       1.215  11.229  19.342  0.00  0.00    +0.000 A 
ATOM     18  C   UNL     1       1.947  12.139  18.668  0.00  0.00    +0.000 A 
ATOM     19  C   UNL     1       2.392  13.357  19.290  0.00  0.00    +0.000 A 
ATOM     20  C   UNL     1       2.052  13.613  20.557  0.00  0.00    +0.000 A 
ATOM     21  C   UNL     1       2.448  14.828  21.331  0.00  0.00    +0.000 C 
ATOM     22  O   UNL     1       1.249  12.713  21.284  0.00  0.00    +0.000 OA
ATOM     23  C   UNL     1       0.784  11.556  20.724  0.00  0.00    +0.000 A 
ATOM     24  O   UNL     1       0.027  10.819  21.355  0.00  0.00    +0.000 OA
BRANCH  18  25
ATOM     25  O   UNL     1       2.366  12.023  17.362  0.00  0.00    +0.000 OA
ATOM     26  H   UNL     1       1.574  11.919  16.786  0.00  0.00    +0.000 HD
ENDBRANCH  18  25
ENDBRANCH  15  17
ENDBRANCH   2  15
TORSDOF 7
ENDMDL
MODEL 8
REMARK VINA RESULT:      -7.2      6.181      8.648
REMARK  Name = 
REMARK  10 active torsions:
REMARK  status: ('A' for Active; 'I' for Inactive)
REMARK    1  A    between atoms: C_1  and  O_2
REMARK    2  A    between atoms: O_2  and  C_3
REMARK    3  A    between atoms: C_5  and  C_6
REMARK    4  A    between atoms: C_7  and  C_8
REMARK    5  A    between atoms: C_8  and  C_10
REMARK    6  A    between atoms: C_11  and  O_12
REMARK    7  A    between atoms: C_14  and  C_15
REMARK    8  A    between atoms: C_20  and  O_21
REMARK    9  A    between atoms: O_21  and  C_22
REMARK   10  A    between atoms: C_23  and  O_24
REMARK                            x       y       z     vdW  Elec       q    Type
REMARK                         _______ _______ _______ _____ _____    ______ ____
ROOT
ATOM      1  C   UNL     1       3.090   7.299  18.038  0.00  0.00    +0.000 C 
ATOM      2  C   UNL     1       1.870   7.818  18.255  0.00  0.00    +0.000 C 
ENDROOT
BRANCH   1   5
ATOM      3  C   UNL     1       4.632   3.952  17.028  0.00  0.00    +0.000 A 
ATOM      4  C   UNL     1       4.379   5.333  17.116  0.00  0.00    +0.000 A 
ATOM      5  C   UNL     1       3.354   5.849  17.920  0.00  0.00    +0.000 A 
ATOM      6  C   UNL     1       2.588   4.945  18.663  0.00  0.00    +0.000 A 
ATOM      7  C   UNL     1       2.818   3.560  18.597  0.00  0.00    +0.000 A 
ATOM      8  C   UNL     1       3.843   3.065  17.776  0.00  0.00    +0.000 A 
BRANCH   3  10
ATOM      9  C   UNL     1       6.801   4.474  16.133  0.00  0.00    +0.000 C 
ATOM     10  O   UNL     1       5.637   3.662  16.142  0.00  0.00    +0.000 OA
ENDBRANCH   3  10
BRANCH   7  11
ATOM     11  O   UNL     1       1.898   2.809  19.284  0.00  0.00    +0.000 OA
ATOM     12  C   UNL     1       1.092   3.463  20.257  0.00  0.00    +0.000 C 
ENDBRANCH   7  11
BRANCH   8  13
ATOM     13  O   UNL     1       4.036   1.718  17.655  0.00  0.00    +0.000 OA
ATOM     14  H   UNL     1       4.334   1.411  18.528  0.00  0.00    +0.000 HD
ENDBRANCH   8  13
ENDBRANCH   1   5
BRANCH   2  15
ATOM     15  C   UNL     1       1.626   9.291  18.309  0.00  0.00    +0.000 C 
ATOM     16  O   UNL     1       2.118  10.055  17.481  0.00  0.00    +0.000 OA
BRANCH  15  17
ATOM     17  C   UNL     1       0.825   9.817  19.457  0.00  0.00    +0.000 A 
ATOM     18  C   UNL     1      -0.072  10.798  19.235  0.00  0.00    +0.000 A 
ATOM     19  C   UNL     1      -0.831  11.382  20.309  0.00  0.00    +0.000 A 
ATOM     20  C   UNL     1      -0.670  10.926  21.554  0.00  0.00    +0.000 A 
ATOM     21  C   UNL     1      -1.380  11.441  22.763  0.00  0.00    +0.000 C 
ATOM     22  O   UNL     1       0.222   9.870  21.826  0.00  0.00    +0.000 OA
ATOM     23  C   UNL     1       0.944   9.271  20.833  0.00  0.00    +0.000 A 
ATOM     24  O   UNL     1       1.664   8.304  21.083  0.00  0.00    +0.000 OA
BRANCH  18  25
ATOM     25  O   UNL     1      -0.356  11.363  18.012  0.00  0.00    +0.000 OA
ATOM     26  H   UNL     1      -1.122  10.888  17.616  0.00  0.00    +0.000 HD
ENDBRANCH  18  25
ENDBRANCH  15  17
ENDBRANCH   2  15
TORSDOF 7
ENDMDL
MODEL 9
REMARK VINA RESULT:      -7.2      5.377      8.684
REMARK  Name = 
REMARK  10 active torsions:
REMARK  status: ('A' for Active; 'I' for Inactive)
REMARK    1  A    between atoms: C_1  and  O_2
REMARK    2  A    between atoms: O_2  and  C_3
REMARK    3  A    between atoms: C_5  and  C_6
REMARK    4  A    between atoms: C_7  and  C_8
REMARK    5  A    between atoms: C_8  and  C_10
REMARK    6  A    between atoms: C_11  and  O_12
REMARK    7  A    between atoms: C_14  and  C_15
REMARK    8  A    between atoms: C_20  and  O_21
REMARK    9  A    between atoms: O_21  and  C_22
REMARK   10  A    between atoms: C_23  and  O_24
REMARK                            x       y       z     vdW  Elec       q    Type
REMARK                         _______ _______ _______ _____ _____    ______ ____
ROOT
ATOM      1  C   UNL     1       3.042   7.296  18.262  0.00  0.00    +0.000 C 
ATOM      2  C   UNL     1       2.088   7.950  18.945  0.00  0.00    +0.000 C 
ENDROOT
BRANCH   1   5
ATOM      3  C   UNL     1       3.251   3.707  19.556  0.00  0.00    +0.000 A 
ATOM      4  C   UNL     1       2.748   4.974  19.211  0.00  0.00    +0.000 A 
ATOM      5  C   UNL     1       3.562   5.967  18.648  0.00  0.00    +0.000 A 
ATOM      6  C   UNL     1       4.905   5.655  18.413  0.00  0.00    +0.000 A 
ATOM      7  C   UNL     1       5.436   4.397  18.745  0.00  0.00    +0.000 A 
ATOM      8  C   UNL     1       4.604   3.422  19.319  0.00  0.00    +0.000 A 
BRANCH   3  10
ATOM      9  C   UNL     1       2.121   2.982  21.550  0.00  0.00    +0.000 C 
ATOM     10  O   UNL     1       2.301   2.913  20.144  0.00  0.00    +0.000 OA
ENDBRANCH   3  10
BRANCH   7  11
ATOM     11  O   UNL     1       6.793   4.301  18.571  0.00  0.00    +0.000 OA
ATOM     12  C   UNL     1       7.575   5.478  18.743  0.00  0.00    +0.000 C 
ENDBRANCH   7  11
BRANCH   8  13
ATOM     13  O   UNL     1       5.122   2.218  19.705  0.00  0.00    +0.000 OA
ATOM     14  H   UNL     1       4.761   1.561  19.085  0.00  0.00    +0.000 HD
ENDBRANCH   8  13
ENDBRANCH   1   5
BRANCH   2  15
ATOM     15  C   UNL     1       1.541   9.264  18.496  0.00  0.00    +0.000 C 
ATOM     16  O   UNL     1       1.887   9.775  17.432  0.00  0.00    +0.000 OA
BRANCH  15  17
ATOM     17  C   UNL     1       0.614   9.981  19.426  0.00  0.00    +0.000 A 
ATOM     18  C   UNL     1      -0.414  10.686  18.912  0.00  0.00    +0.000 A 
ATOM     19  C   UNL     1      -1.304  11.441  19.752  0.00  0.00    +0.000 A 
ATOM     20  C   UNL     1      -1.133  11.425  21.077  0.00  0.00    +0.000 A 
ATOM     21  C   UNL     1      -1.971  12.165  22.068  0.00  0.00    +0.000 C 
ATOM     22  O   UNL     1      -0.100  10.665  21.662  0.00  0.00    +0.000 OA
ATOM     23  C   UNL     1       0.753   9.914  20.903  0.00  0.00    +0.000 A 
ATOM     24  O   UNL     1       1.602   9.203  21.439  0.00  0.00    +0.000 OA
BRANCH  18  25
ATOM     25  O   UNL     1      -0.724  10.792  17.575  0.00  0.00    +0.000 OA
ATOM     26  H   UNL     1      -0.237  11.560  17.199  0.00  0.00    +0.000 HD
ENDBRANCH  18  25
ENDBRANCH  15  17
ENDBRANCH   2  15
TORSDOF 7
ENDMDL
