MODEL 1
REMARK VINA RESULT:      -8.0      0.000      0.000
REMARK  Name = 
REMARK  6 active torsions:
REMARK  status: ('A' for Active; 'I' for Inactive)
REMARK    1  A    between atoms: C_2  and  C_3
REMARK    2  A    between atoms: C_8  and  C_9
REMARK    3  A    between atoms: N_15  and  C_16
REMARK    4  A    between atoms: C_16  and  C_17
REMARK    5  A    between atoms: C_23  and  C_24
REMARK    6  A    between atoms: C_24  and  C_25
REMARK                            x       y       z     vdW  Elec       q    Type
REMARK                         _______ _______ _______ _____ _____    ______ ____
ROOT
ATOM      1  C   UNL     1       0.309   9.812  22.312  0.00  0.00    +0.000 C 
ATOM      2  O   UNL     1       0.766   9.923  23.447  0.00  0.00    +0.000 OA
ATOM      3  N   UNL     1      -0.684  10.663  21.819  0.00  0.00    +0.000 N 
ATOM      4  C   UNL     1      -1.206  11.674  22.729  0.00  0.00    +0.000 C 
ATOM      5  C   UNL     1      -2.512  12.352  22.280  0.00  0.00    +0.000 C 
ATOM      6  O   UNL     1      -3.215  12.935  23.108  0.00  0.00    +0.000 OA
ATOM      7  N   UNL     1      -2.745  12.450  20.905  0.00  0.00    +0.000 N 
ATOM      8  C   UNL     1      -2.038  11.573  19.945  0.00  0.00    +0.000 C 
ATOM      9  C   UNL     1      -0.657  11.101  20.433  0.00  0.00    +0.000 C 
ENDROOT
BRANCH   1  15
ATOM     10  C   UNL     1       2.988   5.866  18.579  0.00  0.00    +0.000 A 
ATOM     11  C   UNL     1       2.450   4.953  19.492  0.00  0.00    +0.000 A 
ATOM     12  C   UNL     1       1.655   5.378  20.563  0.00  0.00    +0.000 A 
ATOM     13  C   UNL     1       1.411   6.749  20.678  0.00  0.00    +0.000 A 
ATOM     14  N   UNL     1       0.688   7.455  21.614  0.00  0.00    +0.000 N 
ATOM     15  C   UNL     1       0.808   8.809  21.393  0.00  0.00    +0.000 A 
ATOM     16  C   UNL     1       1.456   8.951  20.178  0.00  0.00    +0.000 A 
ATOM     17  C   UNL     1       1.918   7.678  19.770  0.00  0.00    +0.000 A 
ATOM     18  C   UNL     1       2.730   7.236  18.711  0.00  0.00    +0.000 A 
ATOM     19  H   UNL     1       0.207   7.053  22.409  0.00  0.00    +0.000 HD
BRANCH  10  21
ATOM     20  N   UNL     1       4.478   5.027  16.628  0.00  0.00    +0.000 NA
ATOM     21  C   UNL     1       3.809   5.403  17.499  0.00  0.00    +0.000 C 
ENDBRANCH  10  21
ENDBRANCH   1  15
BRANCH   7  22
ATOM     22  C   UNL     1      -3.914  13.220  20.454  0.00  0.00    +0.000 C 
BRANCH  22  23
ATOM     23  C   UNL     1      -5.205  12.436  20.384  0.00  0.00    +0.000 A 
ATOM     24  C   UNL     1      -5.465  11.595  19.293  0.00  0.00    +0.000 A 
ATOM     25  C   UNL     1      -6.614  10.804  19.265  0.00  0.00    +0.000 A 
ATOM     26  C   UNL     1      -7.513  10.841  20.329  0.00  0.00    +0.000 A 
ATOM     27  C   UNL     1      -7.272  11.679  21.417  0.00  0.00    +0.000 A 
ATOM     28  C   UNL     1      -6.123  12.472  21.446  0.00  0.00    +0.000 A 
ENDBRANCH  22  23
ENDBRANCH   7  22
BRANCH   8  29
ATOM     29  C   UNL     1      -1.867  12.158  18.522  0.00  0.00    +0.000 C 
BRANCH  29  30
ATOM     30  C   UNL     1      -2.344  11.322  17.347  0.00  0.00    +0.000 A 
ATOM     31  C   UNL     1      -3.404  11.687  16.496  0.00  0.00    +0.000 A 
ATOM     32  C   UNL     1      -3.771  10.899  15.411  0.00  0.00    +0.000 A 
ATOM     33  C   UNL     1      -3.114   9.702  15.175  0.00  0.00    +0.000 A 
ATOM     34  C   UNL     1      -2.086   9.300  16.022  0.00  0.00    +0.000 A 
ATOM     35  C   UNL     1      -1.697  10.104  17.096  0.00  0.00    +0.000 A 
ENDBRANCH  29  30
ENDBRANCH   8  29
TORSDOF 6
ENDMDL
MODEL 2
REMARK VINA RESULT:      -8.0      0.196      1.183
REMARK  Name = 
REMARK  6 active torsions:
REMARK  status: ('A' for Active; 'I' for Inactive)
REMARK    1  A    between atoms: C_2  and  C_3
REMARK    2  A    between atoms: C_8  and  C_9
REMARK    3  A    between atoms: N_15  and  C_16
REMARK    4  A    between atoms: C_16  and  C_17
REMARK    5  A    between atoms: C_23  and  C_24
REMARK    6  A    between atoms: C_24  and  C_25
REMARK                            x       y       z     vdW  Elec       q    Type
REMARK                         _______ _______ _______ _____ _____    ______ ____
ROOT
ATOM      1  C   UNL     1       0.467   9.678  22.285  0.00  0.00    +0.000 C 
ATOM      2  O   UNL     1       0.943   9.780  23.413  0.00  0.00    +0.000 OA
ATOM      3  N   UNL     1      -0.519  10.548  21.808  0.00  0.00    +0.000 N 
ATOM      4  C   UNL     1      -1.009  11.566  22.727  0.00  0.00    +0.000 C 
ATOM      5  C   UNL     1      -2.310  12.268  22.298  0.00  0.00    +0.000 C 
ATOM      6  O   UNL     1      -2.989  12.862  23.138  0.00  0.00    +0.000 OA
ATOM      7  N   UNL     1      -2.562  12.372  20.927  0.00  0.00    +0.000 N 
ATOM      8  C   UNL     1      -1.885  11.484  19.956  0.00  0.00    +0.000 C 
ATOM      9  C   UNL     1      -0.506  10.987  20.422  0.00  0.00    +0.000 C 
ENDROOT
BRANCH   1  15
ATOM     10  C   UNL     1       3.021   5.681  18.520  0.00  0.00    +0.000 A 
ATOM     11  C   UNL     1       2.450   4.777  19.422  0.00  0.00    +0.000 A 
ATOM     12  C   UNL     1       1.667   5.219  20.496  0.00  0.00    +0.000 A 
ATOM     13  C   UNL     1       1.469   6.597  20.624  0.00  0.00    +0.000 A 
ATOM     14  N   UNL     1       0.768   7.317  21.565  0.00  0.00    +0.000 N 
ATOM     15  C   UNL     1       0.934   8.668  21.357  0.00  0.00    +0.000 A 
ATOM     16  C   UNL     1       1.589   8.800  20.145  0.00  0.00    +0.000 A 
ATOM     17  C   UNL     1       2.009   7.516  19.726  0.00  0.00    +0.000 A 
ATOM     18  C   UNL     1       2.809   7.058  18.665  0.00  0.00    +0.000 A 
ATOM     19  H   UNL     1       0.272   6.924  22.355  0.00  0.00    +0.000 HD
BRANCH  10  21
ATOM     20  N   UNL     1       4.487   4.814  16.563  0.00  0.00    +0.000 NA
ATOM     21  C   UNL     1       3.829   5.201  17.437  0.00  0.00    +0.000 C 
ENDBRANCH  10  21
ENDBRANCH   1  15
BRANCH   7  22
ATOM     22  C   UNL     1      -3.723  13.162  20.495  0.00  0.00    +0.000 C 
BRANCH  22  23
ATOM     23  C   UNL     1      -5.023  12.393  20.415  0.00  0.00    +0.000 A 
ATOM     24  C   UNL     1      -5.950  12.458  21.465  0.00  0.00    +0.000 A 
ATOM     25  C   UNL     1      -7.187  11.821  21.360  0.00  0.00    +0.000 A 
ATOM     26  C   UNL     1      -7.512  11.116  20.203  0.00  0.00    +0.000 A 
ATOM     27  C   UNL     1      -6.597  11.034  19.155  0.00  0.00    +0.000 A 
ATOM     28  C   UNL     1      -5.359  11.671  19.259  0.00  0.00    +0.000 A 
ENDBRANCH  22  23
ENDBRANCH   7  22
BRANCH   8  29
ATOM     29  C   UNL     1      -1.725  12.067  18.531  0.00  0.00    +0.000 C 
BRANCH  29  30
ATOM     30  C   UNL     1      -2.180  11.217  17.359  0.00  0.00    +0.000 A 
ATOM     31  C   UNL     1      -1.646   9.952  17.046  0.00  0.00    +0.000 A 
ATOM     32  C   UNL     1      -2.130   9.201  15.980  0.00  0.00    +0.000 A 
ATOM     33  C   UNL     1      -3.133   9.714  15.174  0.00  0.00    +0.000 A 
ATOM     34  C   UNL     1      -3.655  10.977  15.440  0.00  0.00    +0.000 A 
ATOM     35  C   UNL     1      -3.189  11.721  16.526  0.00  0.00    +0.000 A 
ENDBRANCH  29  30
ENDBRANCH   8  29
TORSDOF 6
ENDMDL
MODEL 3
REMARK VINA RESULT:      -7.8      1.908      3.068
REMARK  Name = 
REMARK  6 active torsions:
REMARK  status: ('A' for Active; 'I' for Inactive)
REMARK    1  A    between atoms: C_2  and  C_3
REMARK    2  A    between atoms: C_8  and  C_9
REMARK    3  A    between atoms: N_15  and  C_16
REMARK    4  A    between atoms: C_16  and  C_17
REMARK    5  A    between atoms: C_23  and  C_24
REMARK    6  A    between atoms: C_24  and  C_25
REMARK                            x       y       z     vdW  Elec       q    Type
REMARK                         _______ _______ _______ _____ _____    ______ ____
ROOT
ATOM      1  C   UNL     1       0.637   9.409  21.849  0.00  0.00    +0.000 C 
ATOM      2  O   UNL     1       0.927   9.268  23.034  0.00  0.00    +0.000 OA
ATOM      3  N   UNL     1      -0.305  10.348  21.416  0.00  0.00    +0.000 N 
ATOM      4  C   UNL     1      -0.981  11.134  22.439  0.00  0.00    +0.000 C 
ATOM      5  C   UNL     1      -2.232  11.893  21.966  0.00  0.00    +0.000 C 
ATOM      6  O   UNL     1      -3.062  12.279  22.792  0.00  0.00    +0.000 OA
ATOM      7  N   UNL     1      -2.274  12.291  20.626  0.00  0.00    +0.000 N 
ATOM      8  C   UNL     1      -1.412  11.647  19.611  0.00  0.00    +0.000 C 
ATOM      9  C   UNL     1      -0.099  11.079  20.177  0.00  0.00    +0.000 C 
ENDROOT
BRANCH   1  15
ATOM     10  C   UNL     1       3.866   6.588  17.572  0.00  0.00    +0.000 A 
ATOM     11  C   UNL     1       3.780   5.537  18.491  0.00  0.00    +0.000 A 
ATOM     12  C   UNL     1       3.052   5.668  19.681  0.00  0.00    +0.000 A 
ATOM     13  C   UNL     1       2.406   6.887  19.907  0.00  0.00    +0.000 A 
ATOM     14  N   UNL     1       1.637   7.309  20.970  0.00  0.00    +0.000 N 
ATOM     15  C   UNL     1       1.291   8.633  20.815  0.00  0.00    +0.000 A 
ATOM     16  C   UNL     1       1.681   8.993  19.537  0.00  0.00    +0.000 A 
ATOM     17  C   UNL     1       2.459   7.942  18.997  0.00  0.00    +0.000 A 
ATOM     18  C   UNL     1       3.210   7.800  17.818  0.00  0.00    +0.000 A 
ATOM     19  H   UNL     1       1.427   6.763  21.795  0.00  0.00    +0.000 HD
BRANCH  10  21
ATOM     20  N   UNL     1       5.246   6.305  15.393  0.00  0.00    +0.000 NA
ATOM     21  C   UNL     1       4.629   6.429  16.370  0.00  0.00    +0.000 C 
ENDBRANCH  10  21
ENDBRANCH   1  15
BRANCH   7  22
ATOM     22  C   UNL     1      -3.392  13.140  20.191  0.00  0.00    +0.000 C 
BRANCH  22  23
ATOM     23  C   UNL     1      -4.613  12.389  19.711  0.00  0.00    +0.000 A 
ATOM     24  C   UNL     1      -5.739  12.265  20.537  0.00  0.00    +0.000 A 
ATOM     25  C   UNL     1      -6.899  11.648  20.069  0.00  0.00    +0.000 A 
ATOM     26  C   UNL     1      -6.949  11.152  18.768  0.00  0.00    +0.000 A 
ATOM     27  C   UNL     1      -5.834  11.258  17.937  0.00  0.00    +0.000 A 
ATOM     28  C   UNL     1      -4.672  11.875  18.406  0.00  0.00    +0.000 A 
ENDBRANCH  22  23
ENDBRANCH   7  22
BRANCH   8  29
ATOM     29  C   UNL     1      -1.063  12.530  18.388  0.00  0.00    +0.000 C 
BRANCH  29  30
ATOM     30  C   UNL     1       0.064  13.535  18.535  0.00  0.00    +0.000 A 
ATOM     31  C   UNL     1       1.416  13.253  18.261  0.00  0.00    +0.000 A 
ATOM     32  C   UNL     1       2.401  14.227  18.377  0.00  0.00    +0.000 A 
ATOM     33  C   UNL     1       2.065  15.499  18.811  0.00  0.00    +0.000 A 
ATOM     34  C   UNL     1       0.742  15.795  19.122  0.00  0.00    +0.000 A 
ATOM     35  C   UNL     1      -0.253  14.826  18.980  0.00  0.00    +0.000 A 
ENDBRANCH  29  30
ENDBRANCH   8  29
TORSDOF 6
ENDMDL
MODEL 4
REMARK VINA RESULT:      -7.7      1.840      3.039
REMARK  Name = 
REMARK  6 active torsions:
REMARK  status: ('A' for Active; 'I' for Inactive)
REMARK    1  A    between atoms: C_2  and  C_3
REMARK    2  A    between atoms: C_8  and  C_9
REMARK    3  A    between atoms: N_15  and  C_16
REMARK    4  A    between atoms: C_16  and  C_17
REMARK    5  A    between atoms: C_23  and  C_24
REMARK    6  A    between atoms: C_24  and  C_25
REMARK                            x       y       z     vdW  Elec       q    Type
REMARK                         _______ _______ _______ _____ _____    ______ ____
ROOT
ATOM      1  C   UNL     1       0.210   9.870  22.425  0.00  0.00    +0.000 C 
ATOM      2  O   UNL     1       0.461   9.782  23.624  0.00  0.00    +0.000 OA
ATOM      3  N   UNL     1      -0.761  10.744  21.926  0.00  0.00    +0.000 N 
ATOM      4  C   UNL     1      -1.514  11.526  22.898  0.00  0.00    +0.000 C 
ATOM      5  C   UNL     1      -2.784  12.204  22.354  0.00  0.00    +0.000 C 
ATOM      6  O   UNL     1      -3.663  12.573  23.136  0.00  0.00    +0.000 OA
ATOM      7  N   UNL     1      -2.795  12.557  21.001  0.00  0.00    +0.000 N 
ATOM      8  C   UNL     1      -1.864  11.926  20.040  0.00  0.00    +0.000 C 
ATOM      9  C   UNL     1      -0.546  11.446  20.672  0.00  0.00    +0.000 C 
ENDROOT
BRANCH   1  15
ATOM     10  C   UNL     1       2.763   6.226  18.316  0.00  0.00    +0.000 A 
ATOM     11  C   UNL     1       2.692   7.389  17.543  0.00  0.00    +0.000 A 
ATOM     12  C   UNL     1       2.208   8.590  18.079  0.00  0.00    +0.000 A 
ATOM     13  C   UNL     1       1.809   8.582  19.418  0.00  0.00    +0.000 A 
ATOM     14  N   UNL     1       1.293   9.588  20.205  0.00  0.00    +0.000 N 
ATOM     15  C   UNL     1       0.941   9.097  21.442  0.00  0.00    +0.000 A 
ATOM     16  C   UNL     1       1.430   7.803  21.504  0.00  0.00    +0.000 A 
ATOM     17  C   UNL     1       1.890   7.441  20.216  0.00  0.00    +0.000 A 
ATOM     18  C   UNL     1       2.360   6.240  19.658  0.00  0.00    +0.000 A 
ATOM     19  H   UNL     1       1.108  10.535  19.900  0.00  0.00    +0.000 HD
BRANCH  10  21
ATOM     20  N   UNL     1       3.643   4.019  17.273  0.00  0.00    +0.000 NA
ATOM     21  C   UNL     1       3.251   5.008  17.738  0.00  0.00    +0.000 C 
ENDBRANCH  10  21
ENDBRANCH   1  15
BRANCH   7  22
ATOM     22  C   UNL     1      -3.937  13.332  20.497  0.00  0.00    +0.000 C 
BRANCH  22  23
ATOM     23  C   UNL     1      -5.051  12.507  19.893  0.00  0.00    +0.000 A 
ATOM     24  C   UNL     1      -4.988  12.108  18.550  0.00  0.00    +0.000 A 
ATOM     25  C   UNL     1      -5.969  11.275  18.011  0.00  0.00    +0.000 A 
ATOM     26  C   UNL     1      -7.020  10.829  18.809  0.00  0.00    +0.000 A 
ATOM     27  C   UNL     1      -7.102  11.225  20.143  0.00  0.00    +0.000 A 
ATOM     28  C   UNL     1      -6.121  12.059  20.683  0.00  0.00    +0.000 A 
ENDBRANCH  22  23
ENDBRANCH   7  22
BRANCH   8  29
ATOM     29  C   UNL     1      -1.513  12.787  18.801  0.00  0.00    +0.000 C 
BRANCH  29  30
ATOM     30  C   UNL     1      -0.268  13.652  18.865  0.00  0.00    +0.000 A 
ATOM     31  C   UNL     1       1.004  13.242  18.422  0.00  0.00    +0.000 A 
ATOM     32  C   UNL     1       2.102  14.093  18.471  0.00  0.00    +0.000 A 
ATOM     33  C   UNL     1       1.965  15.364  19.004  0.00  0.00    +0.000 A 
ATOM     34  C   UNL     1       0.727  15.784  19.482  0.00  0.00    +0.000 A 
ATOM     35  C   UNL     1      -0.383  14.940  19.408  0.00  0.00    +0.000 A 
ENDBRANCH  29  30
ENDBRANCH   8  29
TORSDOF 6
ENDMDL
MODEL 5
REMARK VINA RESULT:      -7.7      0.842      1.494
REMARK  Name = 
REMARK  6 active torsions:
REMARK  status: ('A' for Active; 'I' for Inactive)
REMARK    1  A    between atoms: C_2  and  C_3
REMARK    2  A    between atoms: C_8  and  C_9
REMARK    3  A    between atoms: N_15  and  C_16
REMARK    4  A    between atoms: C_16  and  C_17
REMARK    5  A    between atoms: C_23  and  C_24
REMARK    6  A    between atoms: C_24  and  C_25
REMARK                            x       y       z     vdW  Elec       q    Type
REMARK                         _______ _______ _______ _____ _____    ______ ____
ROOT
ATOM      1  C   UNL     1       0.413   9.695  22.410  0.00  0.00    +0.000 C 
ATOM      2  O   UNL     1       0.827   9.803  23.561  0.00  0.00    +0.000 OA
ATOM      3  N   UNL     1      -0.571  10.540  21.886  0.00  0.00    +0.000 N 
ATOM      4  C   UNL     1      -1.136  11.538  22.783  0.00  0.00    +0.000 C 
ATOM      5  C   UNL     1      -2.432  12.206  22.290  0.00  0.00    +0.000 C 
ATOM      6  O   UNL     1      -3.171  12.775  23.096  0.00  0.00    +0.000 OA
ATOM      7  N   UNL     1      -2.616  12.311  20.909  0.00  0.00    +0.000 N 
ATOM      8  C   UNL     1      -1.865  11.448  19.970  0.00  0.00    +0.000 C 
ATOM      9  C   UNL     1      -0.498  10.987  20.505  0.00  0.00    +0.000 C 
ENDROOT
BRANCH   1  15
ATOM     10  C   UNL     1       2.068   5.366  18.510  0.00  0.00    +0.000 A 
ATOM     11  C   UNL     1       2.577   6.471  17.819  0.00  0.00    +0.000 A 
ATOM     12  C   UNL     1       2.498   7.763  18.354  0.00  0.00    +0.000 A 
ATOM     13  C   UNL     1       1.901   7.903  19.610  0.00  0.00    +0.000 A 
ATOM     14  N   UNL     1       1.675   9.028  20.374  0.00  0.00    +0.000 N 
ATOM     15  C   UNL     1       0.956   8.704  21.503  0.00  0.00    +0.000 A 
ATOM     16  C   UNL     1       0.902   7.322  21.550  0.00  0.00    +0.000 A 
ATOM     17  C   UNL     1       1.406   6.816  20.328  0.00  0.00    +0.000 A 
ATOM     18  C   UNL     1       1.475   5.529  19.769  0.00  0.00    +0.000 A 
ATOM     19  H   UNL     1       1.917   9.974  20.110  0.00  0.00    +0.000 HD
BRANCH  10  21
ATOM     20  N   UNL     1       2.224   2.997  17.465  0.00  0.00    +0.000 NA
ATOM     21  C   UNL     1       2.152   4.057  17.933  0.00  0.00    +0.000 C 
ENDBRANCH  10  21
ENDBRANCH   1  15
BRANCH   7  22
ATOM     22  C   UNL     1      -3.775  13.071  20.420  0.00  0.00    +0.000 C 
BRANCH  22  23
ATOM     23  C   UNL     1      -5.058  12.278  20.314  0.00  0.00    +0.000 A 
ATOM     24  C   UNL     1      -6.026  12.357  21.326  0.00  0.00    +0.000 A 
ATOM     25  C   UNL     1      -7.247  11.696  21.193  0.00  0.00    +0.000 A 
ATOM     26  C   UNL     1      -7.516  10.952  20.046  0.00  0.00    +0.000 A 
ATOM     27  C   UNL     1      -6.561  10.856  19.036  0.00  0.00    +0.000 A 
ATOM     28  C   UNL     1      -5.338  11.516  19.168  0.00  0.00    +0.000 A 
ENDBRANCH  22  23
ENDBRANCH   7  22
BRANCH   8  29
ATOM     29  C   UNL     1      -1.648  12.044  18.557  0.00  0.00    +0.000 C 
BRANCH  29  30
ATOM     30  C   UNL     1      -2.168  11.260  17.367  0.00  0.00    +0.000 A 
ATOM     31  C   UNL     1      -3.153  11.732  16.479  0.00  0.00    +0.000 A 
ATOM     32  C   UNL     1      -3.563  10.983  15.381  0.00  0.00    +0.000 A 
ATOM     33  C   UNL     1      -3.028   9.724  15.167  0.00  0.00    +0.000 A 
ATOM     34  C   UNL     1      -2.078   9.218  16.050  0.00  0.00    +0.000 A 
ATOM     35  C   UNL     1      -1.645   9.980  17.137  0.00  0.00    +0.000 A 
ENDBRANCH  29  30
ENDBRANCH   8  29
TORSDOF 6
ENDMDL
MODEL 6
REMARK VINA RESULT:      -7.7      2.040      2.720
REMARK  Name = 
REMARK  6 active torsions:
REMARK  status: ('A' for Active; 'I' for Inactive)
REMARK    1  A    between atoms: C_2  and  C_3
REMARK    2  A    between atoms: C_8  and  C_9
REMARK    3  A    between atoms: N_15  and  C_16
REMARK    4  A    between atoms: C_16  and  C_17
REMARK    5  A    between atoms: C_23  and  C_24
REMARK    6  A    between atoms: C_24  and  C_25
REMARK                            x       y       z     vdW  Elec       q    Type
REMARK                         _______ _______ _______ _____ _____    ______ ____
ROOT
ATOM      1  C   UNL     1       1.113  12.372  19.411  0.00  0.00    +0.000 C 
ATOM      2  O   UNL     1       2.055  13.144  19.254  0.00  0.00    +0.000 OA
ATOM      3  N   UNL     1      -0.178  12.819  19.711  0.00  0.00    +0.000 N 
ATOM      4  C   UNL     1      -0.361  14.254  19.885  0.00  0.00    +0.000 C 
ATOM      5  C   UNL     1      -1.688  14.672  20.543  0.00  0.00    +0.000 C 
ATOM      6  O   UNL     1      -1.791  15.788  21.057  0.00  0.00    +0.000 OA
ATOM      7  N   UNL     1      -2.792  13.836  20.351  0.00  0.00    +0.000 N 
ATOM      8  C   UNL     1      -2.620  12.424  19.944  0.00  0.00    +0.000 C 
ATOM      9  C   UNL     1      -1.338  12.161  19.134  0.00  0.00    +0.000 C 
ENDROOT
BRANCH   1  15
ATOM     10  C   UNL     1       2.412   6.513  18.596  0.00  0.00    +0.000 A 
ATOM     11  C   UNL     1       2.010   6.451  19.934  0.00  0.00    +0.000 A 
ATOM     12  C   UNL     1       1.538   7.585  20.606  0.00  0.00    +0.000 A 
ATOM     13  C   UNL     1       1.473   8.780  19.883  0.00  0.00    +0.000 A 
ATOM     14  N   UNL     1       1.068  10.039  20.268  0.00  0.00    +0.000 N 
ATOM     15  C   UNL     1       1.274  10.942  19.249  0.00  0.00    +0.000 A 
ATOM     16  C   UNL     1       1.629  10.201  18.135  0.00  0.00    +0.000 A 
ATOM     17  C   UNL     1       1.847   8.864  18.542  0.00  0.00    +0.000 A 
ATOM     18  C   UNL     1       2.337   7.720  17.889  0.00  0.00    +0.000 A 
ATOM     19  H   UNL     1       0.748  10.295  21.193  0.00  0.00    +0.000 HD
BRANCH  10  21
ATOM     20  N   UNL     1       3.297   4.386  17.404  0.00  0.00    +0.000 NA
ATOM     21  C   UNL     1       2.903   5.339  17.938  0.00  0.00    +0.000 C 
ENDBRANCH  10  21
ENDBRANCH   1  15
BRANCH   7  22
ATOM     22  C   UNL     1      -4.099  14.289  20.848  0.00  0.00    +0.000 C 
BRANCH  22  23
ATOM     23  C   UNL     1      -4.518  13.694  22.174  0.00  0.00    +0.000 A 
ATOM     24  C   UNL     1      -5.867  13.409  22.428  0.00  0.00    +0.000 A 
ATOM     25  C   UNL     1      -6.248  12.781  23.613  0.00  0.00    +0.000 A 
ATOM     26  C   UNL     1      -5.286  12.426  24.556  0.00  0.00    +0.000 A 
ATOM     27  C   UNL     1      -3.942  12.711  24.322  0.00  0.00    +0.000 A 
ATOM     28  C   UNL     1      -3.558  13.341  23.136  0.00  0.00    +0.000 A 
ENDBRANCH  22  23
ENDBRANCH   7  22
BRANCH   8  29
ATOM     29  C   UNL     1      -3.810  11.813  19.165  0.00  0.00    +0.000 C 
BRANCH  29  30
ATOM     30  C   UNL     1      -3.523  11.150  17.830  0.00  0.00    +0.000 A 
ATOM     31  C   UNL     1      -4.095  11.553  16.609  0.00  0.00    +0.000 A 
ATOM     32  C   UNL     1      -3.764  10.932  15.410  0.00  0.00    +0.000 A 
ATOM     33  C   UNL     1      -2.883   9.862  15.408  0.00  0.00    +0.000 A 
ATOM     34  C   UNL     1      -2.330   9.421  16.606  0.00  0.00    +0.000 A 
ATOM     35  C   UNL     1      -2.640  10.061  17.808  0.00  0.00    +0.000 A 
ENDBRANCH  29  30
ENDBRANCH   8  29
TORSDOF 6
ENDMDL
MODEL 7
REMARK VINA RESULT:      -7.6      3.010      5.312
REMARK  Name = 
REMARK  6 active torsions:
REMARK  status: ('A' for Active; 'I' for Inactive)
REMARK    1  A    between atoms: C_2  and  C_3
REMARK    2  A    between atoms: C_8  and  C_9
REMARK    3  A    between atoms: N_15  and  C_16
REMARK    4  A    between atoms: C_16  and  C_17
REMARK    5  A    between atoms: C_23  and  C_24
REMARK    6  A    between atoms: C_24  and  C_25
REMARK                            x       y       z     vdW  Elec       q    Type
REMARK                         _______ _______ _______ _____ _____    ______ ____
ROOT
ATOM      1  C   UNL     1       1.237  12.743  18.593  0.00  0.00    +0.000 C 
ATOM      2  O   UNL     1       2.031  13.255  17.808  0.00  0.00    +0.000 OA
ATOM      3  N   UNL     1       0.220  13.475  19.213  0.00  0.00    +0.000 N 
ATOM      4  C   UNL     1       0.162  14.903  18.931  0.00  0.00    +0.000 C 
ATOM      5  C   UNL     1      -0.731  15.725  19.877  0.00  0.00    +0.000 C 
ATOM      6  O   UNL     1      -0.574  16.945  19.960  0.00  0.00    +0.000 OA
ATOM      7  N   UNL     1      -1.824  15.074  20.455  0.00  0.00    +0.000 N 
ATOM      8  C   UNL     1      -1.878  13.597  20.537  0.00  0.00    +0.000 C 
ATOM      9  C   UNL     1      -1.090  12.882  19.427  0.00  0.00    +0.000 C 
ENDROOT
BRANCH   1  15
ATOM     10  C   UNL     1       2.064   6.860  19.772  0.00  0.00    +0.000 A 
ATOM     11  C   UNL     1       1.498   7.237  20.994  0.00  0.00    +0.000 A 
ATOM     12  C   UNL     1       1.058   8.547  21.218  0.00  0.00    +0.000 A 
ATOM     13  C   UNL     1       1.195   9.460  20.169  0.00  0.00    +0.000 A 
ATOM     14  N   UNL     1       0.867  10.796  20.095  0.00  0.00    +0.000 N 
ATOM     15  C   UNL     1       1.280  11.326  18.893  0.00  0.00    +0.000 A 
ATOM     16  C   UNL     1       1.697  10.259  18.117  0.00  0.00    +0.000 A 
ATOM     17  C   UNL     1       1.735   9.104  18.934  0.00  0.00    +0.000 A 
ATOM     18  C   UNL     1       2.191   7.790  18.732  0.00  0.00    +0.000 A 
ATOM     19  H   UNL     1       0.462  11.343  20.844  0.00  0.00    +0.000 HD
BRANCH  10  21
ATOM     20  N   UNL     1       2.882   4.424  19.413  0.00  0.00    +0.000 NA
ATOM     21  C   UNL     1       2.518   5.515  19.575  0.00  0.00    +0.000 C 
ENDBRANCH  10  21
ENDBRANCH   1  15
BRANCH   7  22
ATOM     22  C   UNL     1      -2.769  15.876  21.246  0.00  0.00    +0.000 C 
BRANCH  22  23
ATOM     23  C   UNL     1      -2.579  15.791  22.744  0.00  0.00    +0.000 A 
ATOM     24  C   UNL     1      -3.650  16.056  23.609  0.00  0.00    +0.000 A 
ATOM     25  C   UNL     1      -3.504  15.896  24.987  0.00  0.00    +0.000 A 
ATOM     26  C   UNL     1      -2.289  15.466  25.515  0.00  0.00    +0.000 A 
ATOM     27  C   UNL     1      -1.212  15.208  24.668  0.00  0.00    +0.000 A 
ATOM     28  C   UNL     1      -1.356  15.369  23.288  0.00  0.00    +0.000 A 
ENDBRANCH  22  23
ENDBRANCH   7  22
BRANCH   8  29
ATOM     29  C   UNL     1      -3.303  12.992  20.577  0.00  0.00    +0.000 C 
BRANCH  29  30
ATOM     30  C   UNL     1      -3.964  12.815  21.932  0.00  0.00    +0.000 A 
ATOM     31  C   UNL     1      -3.299  12.343  23.080  0.00  0.00    +0.000 A 
ATOM     32  C   UNL     1      -3.948  12.238  24.305  0.00  0.00    +0.000 A 
ATOM     33  C   UNL     1      -5.291  12.562  24.404  0.00  0.00    +0.000 A 
ATOM     34  C   UNL     1      -5.981  12.998  23.277  0.00  0.00    +0.000 A 
ATOM     35  C   UNL     1      -5.324  13.130  22.052  0.00  0.00    +0.000 A 
ENDBRANCH  29  30
ENDBRANCH   8  29
TORSDOF 6
ENDMDL
MODEL 8
REMARK VINA RESULT:      -7.6      0.899      1.526
REMARK  Name = 
REMARK  6 active torsions:
REMARK  status: ('A' for Active; 'I' for Inactive)
REMARK    1  A    between atoms: C_2  and  C_3
REMARK    2  A    between atoms: C_8  and  C_9
REMARK    3  A    between atoms: N_15  and  C_16
REMARK    4  A    between atoms: C_16  and  C_17
REMARK    5  A    between atoms: C_23  and  C_24
REMARK    6  A    between atoms: C_24  and  C_25
REMARK                            x       y       z     vdW  Elec       q    Type
REMARK                         _______ _______ _______ _____ _____    ______ ____
ROOT
ATOM      1  C   UNL     1       0.499   9.683  22.362  0.00  0.00    +0.000 C 
ATOM      2  O   UNL     1       0.914   9.815  23.510  0.00  0.00    +0.000 OA
ATOM      3  N   UNL     1      -0.461  10.537  21.809  0.00  0.00    +0.000 N 
ATOM      4  C   UNL     1      -1.000  11.578  22.673  0.00  0.00    +0.000 C 
ATOM      5  C   UNL     1      -2.277  12.265  22.157  0.00  0.00    +0.000 C 
ATOM      6  O   UNL     1      -3.002  12.879  22.943  0.00  0.00    +0.000 OA
ATOM      7  N   UNL     1      -2.456  12.332  20.772  0.00  0.00    +0.000 N 
ATOM      8  C   UNL     1      -1.727  11.420  19.863  0.00  0.00    +0.000 C 
ATOM      9  C   UNL     1      -0.374  10.939  20.416  0.00  0.00    +0.000 C 
ENDROOT
BRANCH   1  15
ATOM     10  C   UNL     1       2.044   5.192  18.603  0.00  0.00    +0.000 A 
ATOM     11  C   UNL     1       2.583   6.260  17.879  0.00  0.00    +0.000 A 
ATOM     12  C   UNL     1       2.538   7.570  18.373  0.00  0.00    +0.000 A 
ATOM     13  C   UNL     1       1.943   7.765  19.623  0.00  0.00    +0.000 A 
ATOM     14  N   UNL     1       1.746   8.919  20.351  0.00  0.00    +0.000 N 
ATOM     15  C   UNL     1       1.017   8.650  21.488  0.00  0.00    +0.000 A 
ATOM     16  C   UNL     1       0.925   7.272  21.578  0.00  0.00    +0.000 A 
ATOM     17  C   UNL     1       1.417   6.715  20.374  0.00  0.00    +0.000 A 
ATOM     18  C   UNL     1       1.453   5.409  19.855  0.00  0.00    +0.000 A 
ATOM     19  H   UNL     1       2.014   9.850  20.059  0.00  0.00    +0.000 HD
BRANCH  10  21
ATOM     20  N   UNL     1       2.131   2.789  17.628  0.00  0.00    +0.000 NA
ATOM     21  C   UNL     1       2.093   3.864  18.067  0.00  0.00    +0.000 C 
ENDBRANCH  10  21
ENDBRANCH   1  15
BRANCH   7  22
ATOM     22  C   UNL     1      -3.593  13.107  20.257  0.00  0.00    +0.000 C 
BRANCH  22  23
ATOM     23  C   UNL     1      -4.876  12.324  20.093  0.00  0.00    +0.000 A 
ATOM     24  C   UNL     1      -5.090  11.549  18.944  0.00  0.00    +0.000 A 
ATOM     25  C   UNL     1      -6.232  10.757  18.825  0.00  0.00    +0.000 A 
ATOM     26  C   UNL     1      -7.171  10.727  19.855  0.00  0.00    +0.000 A 
ATOM     27  C   UNL     1      -6.977  11.499  20.999  0.00  0.00    +0.000 A 
ATOM     28  C   UNL     1      -5.834  12.293  21.119  0.00  0.00    +0.000 A 
ENDBRANCH  22  23
ENDBRANCH   7  22
BRANCH   8  29
ATOM     29  C   UNL     1      -1.491  11.966  18.433  0.00  0.00    +0.000 C 
BRANCH  29  30
ATOM     30  C   UNL     1      -2.021  11.154  17.265  0.00  0.00    +0.000 A 
ATOM     31  C   UNL     1      -1.725   9.795  17.049  0.00  0.00    +0.000 A 
ATOM     32  C   UNL     1      -2.271   9.092  15.981  0.00  0.00    +0.000 A 
ATOM     33  C   UNL     1      -3.095   9.742  15.077  0.00  0.00    +0.000 A 
ATOM     34  C   UNL     1      -3.376  11.094  15.247  0.00  0.00    +0.000 A 
ATOM     35  C   UNL     1      -2.850  11.795  16.334  0.00  0.00    +0.000 A 
ENDBRANCH  29  30
ENDBRANCH   8  29
TORSDOF 6
ENDMDL
MODEL 9
REMARK VINA RESULT:      -7.5      5.349      6.970
REMARK  Name = 
REMARK  6 active torsions:
REMARK  status: ('A' for Active; 'I' for Inactive)
REMARK    1  A    between atoms: C_2  and  C_3
REMARK    2  A    between atoms: C_8  and  C_9
REMARK    3  A    between atoms: N_15  and  C_16
REMARK    4  A    between atoms: C_16  and  C_17
REMARK    5  A    between atoms: C_23  and  C_24
REMARK    6  A    between atoms: C_24  and  C_25
REMARK                            x       y       z     vdW  Elec       q    Type
REMARK                         _______ _______ _______ _____ _____    ______ ____
ROOT
ATOM      1  C   UNL     1       2.557  15.386  19.186  0.00  0.00    +0.000 C 
ATOM      2  O   UNL     1       2.185  16.556  19.208  0.00  0.00    +0.000 OA
ATOM      3  N   UNL     1       1.657  14.315  19.187  0.00  0.00    +0.000 N 
ATOM      4  C   UNL     1       0.239  14.638  19.268  0.00  0.00    +0.000 C 
ATOM      5  C   UNL     1      -0.685  13.456  19.612  0.00  0.00    +0.000 C 
ATOM      6  O   UNL     1      -1.816  13.673  20.052  0.00  0.00    +0.000 OA
ATOM      7  N   UNL     1      -0.272  12.181  19.218  0.00  0.00    +0.000 N 
ATOM      8  C   UNL     1       1.147  11.900  18.906  0.00  0.00    +0.000 C 
ATOM      9  C   UNL     1       1.928  13.125  18.399  0.00  0.00    +0.000 C 
ENDROOT
BRANCH   1  15
ATOM     10  C   UNL     1       8.513  14.499  18.538  0.00  0.00    +0.000 A 
ATOM     11  C   UNL     1       8.465  14.562  19.935  0.00  0.00    +0.000 A 
ATOM     12  C   UNL     1       7.249  14.706  20.615  0.00  0.00    +0.000 A 
ATOM     13  C   UNL     1       6.085  14.772  19.844  0.00  0.00    +0.000 A 
ATOM     14  N   UNL     1       4.768  14.919  20.222  0.00  0.00    +0.000 N 
ATOM     15  C   UNL     1       3.962  15.043  19.112  0.00  0.00    +0.000 A 
ATOM     16  C   UNL     1       4.761  14.768  18.016  0.00  0.00    +0.000 A 
ATOM     17  C   UNL     1       6.104  14.690  18.453  0.00  0.00    +0.000 A 
ATOM     18  C   UNL     1       7.334  14.566  17.785  0.00  0.00    +0.000 A 
ATOM     19  H   UNL     1       4.438  15.016  21.173  0.00  0.00    +0.000 HD
BRANCH  10  21
ATOM     20  N   UNL     1      10.794  14.261  17.325  0.00  0.00    +0.000 NA
ATOM     21  C   UNL     1       9.772  14.365  17.868  0.00  0.00    +0.000 C 
ENDBRANCH  10  21
ENDBRANCH   1  15
BRANCH   7  22
ATOM     22  C   UNL     1      -1.204  11.061  19.408  0.00  0.00    +0.000 C 
BRANCH  22  23
ATOM     23  C   UNL     1      -2.153  10.818  18.256  0.00  0.00    +0.000 A 
ATOM     24  C   UNL     1      -3.381  11.492  18.195  0.00  0.00    +0.000 A 
ATOM     25  C   UNL     1      -4.221  11.338  17.093  0.00  0.00    +0.000 A 
ATOM     26  C   UNL     1      -3.842  10.513  16.036  0.00  0.00    +0.000 A 
ATOM     27  C   UNL     1      -2.628   9.829  16.086  0.00  0.00    +0.000 A 
ATOM     28  C   UNL     1      -1.787   9.981  17.190  0.00  0.00    +0.000 A 
ENDBRANCH  22  23
ENDBRANCH   7  22
BRANCH   8  29
ATOM     29  C   UNL     1       1.386  10.737  17.913  0.00  0.00    +0.000 C 
BRANCH  29  30
ATOM     30  C   UNL     1       1.741   9.375  18.483  0.00  0.00    +0.000 A 
ATOM     31  C   UNL     1       2.419   8.371  17.766  0.00  0.00    +0.000 A 
ATOM     32  C   UNL     1       2.752   7.156  18.354  0.00  0.00    +0.000 A 
ATOM     33  C   UNL     1       2.378   6.897  19.662  0.00  0.00    +0.000 A 
ATOM     34  C   UNL     1       1.675   7.859  20.382  0.00  0.00    +0.000 A 
ATOM     35  C   UNL     1       1.364   9.091  19.803  0.00  0.00    +0.000 A 
ENDBRANCH  29  30
ENDBRANCH   8  29
TORSDOF 6
ENDMDL
