MODEL 1
REMARK VINA RESULT:      -8.0      0.000      0.000
REMARK  Name = 
REMARK  4 active torsions:
REMARK  status: ('A' for Active; 'I' for Inactive)
REMARK    1  A    between atoms: C_2  and  C_3
REMARK    2  A    between atoms: C_3  and  C_12
REMARK    3  A    between atoms: N_4  and  C_5
REMARK    4  A    between atoms: C_13  and  O_14
REMARK                            x       y       z     vdW  Elec       q    Type
REMARK                         _______ _______ _______ _____ _____    ______ ____
ROOT
ATOM      1  C   UNL     1       2.434   7.574  18.865  0.00  0.00    +0.000 C 
ATOM      2  C   UNL     1       1.989   7.380  20.120  0.00  0.00    +0.000 C 
ATOM      3  C   UNL     1       1.139   8.484  20.540  0.00  0.00    +0.000 A 
ATOM      4  C   UNL     1       0.439   8.723  21.708  0.00  0.00    +0.000 A 
ATOM      5  C   UNL     1      -0.323   9.899  21.794  0.00  0.00    +0.000 A 
ATOM      6  C   UNL     1      -0.374  10.815  20.725  0.00  0.00    +0.000 A 
ATOM      7  C   UNL     1       0.334  10.568  19.551  0.00  0.00    +0.000 A 
ATOM      8  C   UNL     1       1.071   9.401  19.501  0.00  0.00    +0.000 A 
ATOM      9  C   UNL     1       1.879   8.875  18.417  0.00  0.00    +0.000 C 
ATOM     10  O   UNL     1       2.038   9.402  17.330  0.00  0.00    +0.000 OA
ENDROOT
BRANCH   1  11
ATOM     11  C   UNL     1       3.273   6.680  18.046  0.00  0.00    +0.000 C 
ATOM     12  N   UNL     1       4.415   7.080  17.545  0.00  0.00    +0.000 NA
BRANCH  12  13
ATOM     13  C   UNL     1       5.321   6.253  16.837  0.00  0.00    +0.000 A 
ATOM     14  C   UNL     1       5.173   5.919  15.480  0.00  0.00    +0.000 A 
ATOM     15  C   UNL     1       6.076   5.076  14.825  0.00  0.00    +0.000 A 
ATOM     16  C   UNL     1       7.102   4.476  15.542  0.00  0.00    +0.000 A 
ATOM     17  C   UNL     1       7.220   4.744  16.899  0.00  0.00    +0.000 A 
ATOM     18  F   UNL     1       8.183   4.133  17.602  0.00  0.00    +0.000 F 
ATOM     19  C   UNL     1       6.351   5.627  17.545  0.00  0.00    +0.000 A 
ENDBRANCH  12  13
BRANCH  11  21
ATOM     20  N   UNL     1       2.445   4.221  17.688  0.00  0.00    +0.000 NA
ATOM     21  C   UNL     1       2.835   5.315  17.820  0.00  0.00    +0.000 C 
ENDBRANCH  11  21
ENDBRANCH   1  11
BRANCH   2  22
ATOM     22  O   UNL     1       2.213   6.333  20.963  0.00  0.00    +0.000 OA
ATOM     23  H   UNL     1       2.214   6.672  21.882  0.00  0.00    +0.000 HD
ENDBRANCH   2  22
TORSDOF 4
ENDMDL
MODEL 2
REMARK VINA RESULT:      -7.8      0.175      1.908
REMARK  Name = 
REMARK  4 active torsions:
REMARK  status: ('A' for Active; 'I' for Inactive)
REMARK    1  A    between atoms: C_2  and  C_3
REMARK    2  A    between atoms: C_3  and  C_12
REMARK    3  A    between atoms: N_4  and  C_5
REMARK    4  A    between atoms: C_13  and  O_14
REMARK                            x       y       z     vdW  Elec       q    Type
REMARK                         _______ _______ _______ _____ _____    ______ ____
ROOT
ATOM      1  C   UNL     1       2.296   7.683  18.815  0.00  0.00    +0.000 C 
ATOM      2  C   UNL     1       1.843   8.899  18.458  0.00  0.00    +0.000 C 
ATOM      3  C   UNL     1       1.053   9.489  19.528  0.00  0.00    +0.000 A 
ATOM      4  C   UNL     1       0.415  10.709  19.645  0.00  0.00    +0.000 A 
ATOM      5  C   UNL     1      -0.260  10.991  20.844  0.00  0.00    +0.000 A 
ATOM      6  C   UNL     1      -0.291  10.058  21.900  0.00  0.00    +0.000 A 
ATOM      7  C   UNL     1       0.354   8.830  21.775  0.00  0.00    +0.000 A 
ATOM      8  C   UNL     1       1.009   8.588  20.583  0.00  0.00    +0.000 A 
ATOM      9  C   UNL     1       1.776   7.424  20.181  0.00  0.00    +0.000 C 
ATOM     10  O   UNL     1       1.975   6.435  20.863  0.00  0.00    +0.000 OA
ENDROOT
BRANCH   1  11
ATOM     11  C   UNL     1       3.168   6.773  18.051  0.00  0.00    +0.000 C 
ATOM     12  N   UNL     1       4.304   7.179  17.541  0.00  0.00    +0.000 NA
BRANCH  12  13
ATOM     13  C   UNL     1       5.241   6.343  16.885  0.00  0.00    +0.000 A 
ATOM     14  C   UNL     1       5.149   5.986  15.530  0.00  0.00    +0.000 A 
ATOM     15  C   UNL     1       6.080   5.135  14.926  0.00  0.00    +0.000 A 
ATOM     16  C   UNL     1       7.077   4.551  15.694  0.00  0.00    +0.000 A 
ATOM     17  C   UNL     1       7.140   4.842  17.050  0.00  0.00    +0.000 A 
ATOM     18  F   UNL     1       8.075   4.246  17.802  0.00  0.00    +0.000 F 
ATOM     19  C   UNL     1       6.243   5.733  17.645  0.00  0.00    +0.000 A 
ENDBRANCH  12  13
BRANCH  11  21
ATOM     20  N   UNL     1       2.406   4.279  17.805  0.00  0.00    +0.000 NA
ATOM     21  C   UNL     1       2.770   5.386  17.890  0.00  0.00    +0.000 C 
ENDBRANCH  11  21
ENDBRANCH   1  11
BRANCH   2  22
ATOM     22  O   UNL     1       2.049   9.590  17.302  0.00  0.00    +0.000 OA
ATOM     23  H   UNL     1       1.194   9.971  17.014  0.00  0.00    +0.000 HD
ENDBRANCH   2  22
TORSDOF 4
ENDMDL
MODEL 3
REMARK VINA RESULT:      -7.8      4.512      5.085
REMARK  Name = 
REMARK  4 active torsions:
REMARK  status: ('A' for Active; 'I' for Inactive)
REMARK    1  A    between atoms: C_2  and  C_3
REMARK    2  A    between atoms: C_3  and  C_12
REMARK    3  A    between atoms: N_4  and  C_5
REMARK    4  A    between atoms: C_13  and  O_14
REMARK                            x       y       z     vdW  Elec       q    Type
REMARK                         _______ _______ _______ _____ _____    ______ ____
ROOT
ATOM      1  C   UNL     1       4.133   4.104  17.563  0.00  0.00    +0.000 C 
ATOM      2  C   UNL     1       4.631   3.815  18.779  0.00  0.00    +0.000 C 
ATOM      3  C   UNL     1       3.572   3.383  19.679  0.00  0.00    +0.000 A 
ATOM      4  C   UNL     1       3.588   2.960  20.995  0.00  0.00    +0.000 A 
ATOM      5  C   UNL     1       2.371   2.582  21.583  0.00  0.00    +0.000 A 
ATOM      6  C   UNL     1       1.164   2.632  20.859  0.00  0.00    +0.000 A 
ATOM      7  C   UNL     1       1.154   3.058  19.533  0.00  0.00    +0.000 A 
ATOM      8  C   UNL     1       2.370   3.421  18.987  0.00  0.00    +0.000 A 
ATOM      9  C   UNL     1       2.669   3.877  17.642  0.00  0.00    +0.000 C 
ATOM     10  O   UNL     1       1.858   4.015  16.743  0.00  0.00    +0.000 OA
ENDROOT
BRANCH   1  11
ATOM     11  C   UNL     1       4.864   4.526  16.354  0.00  0.00    +0.000 C 
ATOM     12  N   UNL     1       5.401   3.654  15.538  0.00  0.00    +0.000 NA
BRANCH  12  13
ATOM     13  C   UNL     1       6.028   3.976  14.309  0.00  0.00    +0.000 A 
ATOM     14  C   UNL     1       5.659   3.411  13.077  0.00  0.00    +0.000 A 
ATOM     15  C   UNL     1       6.322   3.736  11.889  0.00  0.00    +0.000 A 
ATOM     16  C   UNL     1       7.431   4.569  11.925  0.00  0.00    +0.000 A 
ATOM     17  C   UNL     1       7.848   5.081  13.147  0.00  0.00    +0.000 A 
ATOM     18  F   UNL     1       8.944   5.851  13.190  0.00  0.00    +0.000 F 
ATOM     19  C   UNL     1       7.156   4.801  14.328  0.00  0.00    +0.000 A 
ENDBRANCH  12  13
BRANCH  11  21
ATOM     20  N   UNL     1       5.084   7.067  15.761  0.00  0.00    +0.000 NA
ATOM     21  C   UNL     1       4.962   5.942  16.049  0.00  0.00    +0.000 C 
ENDBRANCH  11  21
ENDBRANCH   1  11
BRANCH   2  22
ATOM     22  O   UNL     1       5.921   3.858  19.216  0.00  0.00    +0.000 OA
ATOM     23  H   UNL     1       5.999   3.284  20.006  0.00  0.00    +0.000 HD
ENDBRANCH   2  22
TORSDOF 4
ENDMDL
MODEL 4
REMARK VINA RESULT:      -7.7      3.315      4.711
REMARK  Name = 
REMARK  4 active torsions:
REMARK  status: ('A' for Active; 'I' for Inactive)
REMARK    1  A    between atoms: C_2  and  C_3
REMARK    2  A    between atoms: C_3  and  C_12
REMARK    3  A    between atoms: N_4  and  C_5
REMARK    4  A    between atoms: C_13  and  O_14
REMARK                            x       y       z     vdW  Elec       q    Type
REMARK                         _______ _______ _______ _____ _____    ______ ____
ROOT
ATOM      1  C   UNL     1       4.461   4.198  17.465  0.00  0.00    +0.000 C 
ATOM      2  C   UNL     1       3.887   3.152  18.087  0.00  0.00    +0.000 C 
ATOM      3  C   UNL     1       2.959   3.607  19.110  0.00  0.00    +0.000 A 
ATOM      4  C   UNL     1       2.127   2.925  19.978  0.00  0.00    +0.000 A 
ATOM      5  C   UNL     1       1.320   3.675  20.848  0.00  0.00    +0.000 A 
ATOM      6  C   UNL     1       1.356   5.083  20.845  0.00  0.00    +0.000 A 
ATOM      7  C   UNL     1       2.198   5.765  19.969  0.00  0.00    +0.000 A 
ATOM      8  C   UNL     1       2.975   4.995  19.126  0.00  0.00    +0.000 A 
ATOM      9  C   UNL     1       3.915   5.420  18.106  0.00  0.00    +0.000 C 
ATOM     10  O   UNL     1       4.175   6.575  17.817  0.00  0.00    +0.000 OA
ENDROOT
BRANCH   1  11
ATOM     11  C   UNL     1       5.415   4.181  16.342  0.00  0.00    +0.000 C 
ATOM     12  N   UNL     1       5.009   4.138  15.097  0.00  0.00    +0.000 NA
BRANCH  12  13
ATOM     13  C   UNL     1       5.859   4.221  13.966  0.00  0.00    +0.000 A 
ATOM     14  C   UNL     1       5.769   3.358  12.861  0.00  0.00    +0.000 A 
ATOM     15  C   UNL     1       6.645   3.456  11.776  0.00  0.00    +0.000 A 
ATOM     16  C   UNL     1       7.690   4.369  11.815  0.00  0.00    +0.000 A 
ATOM     17  C   UNL     1       7.832   5.182  12.932  0.00  0.00    +0.000 A 
ATOM     18  F   UNL     1       8.864   6.033  12.991  0.00  0.00    +0.000 F 
ATOM     19  C   UNL     1       6.927   5.123  13.994  0.00  0.00    +0.000 A 
ENDBRANCH  12  13
BRANCH  11  21
ATOM     20  N   UNL     1       7.968   4.301  16.915  0.00  0.00    +0.000 NA
ATOM     21  C   UNL     1       6.838   4.246  16.625  0.00  0.00    +0.000 C 
ENDBRANCH  11  21
ENDBRANCH   1  11
BRANCH   2  22
ATOM     22  O   UNL     1       4.053   1.818  17.862  0.00  0.00    +0.000 OA
ATOM     23  H   UNL     1       4.973   1.578  18.096  0.00  0.00    +0.000 HD
ENDBRANCH   2  22
TORSDOF 4
ENDMDL
MODEL 5
REMARK VINA RESULT:      -7.7      0.984      1.417
REMARK  Name = 
REMARK  4 active torsions:
REMARK  status: ('A' for Active; 'I' for Inactive)
REMARK    1  A    between atoms: C_2  and  C_3
REMARK    2  A    between atoms: C_3  and  C_12
REMARK    3  A    between atoms: N_4  and  C_5
REMARK    4  A    between atoms: C_13  and  O_14
REMARK                            x       y       z     vdW  Elec       q    Type
REMARK                         _______ _______ _______ _____ _____    ______ ____
ROOT
ATOM      1  C   UNL     1       2.375   7.595  18.918  0.00  0.00    +0.000 C 
ATOM      2  C   UNL     1       1.888   7.507  20.170  0.00  0.00    +0.000 C 
ATOM      3  C   UNL     1       1.061   8.663  20.482  0.00  0.00    +0.000 A 
ATOM      4  C   UNL     1       0.335   9.008  21.607  0.00  0.00    +0.000 A 
ATOM      5  C   UNL     1      -0.393  10.207  21.583  0.00  0.00    +0.000 A 
ATOM      6  C   UNL     1      -0.385  11.043  20.449  0.00  0.00    +0.000 A 
ATOM      7  C   UNL     1       0.348  10.690  19.318  0.00  0.00    +0.000 A 
ATOM      8  C   UNL     1       1.050   9.502  19.377  0.00  0.00    +0.000 A 
ATOM      9  C   UNL     1       1.873   8.875  18.359  0.00  0.00    +0.000 C 
ATOM     10  O   UNL     1       2.079   9.316  17.242  0.00  0.00    +0.000 OA
ENDROOT
BRANCH   1  11
ATOM     11  C   UNL     1       3.209   6.620  18.193  0.00  0.00    +0.000 C 
ATOM     12  N   UNL     1       4.401   6.933  17.749  0.00  0.00    +0.000 NA
BRANCH  12  13
ATOM     13  C   UNL     1       5.300   6.025  17.136  0.00  0.00    +0.000 A 
ATOM     14  C   UNL     1       6.403   5.459  17.796  0.00  0.00    +0.000 A 
ATOM     15  C   UNL     1       7.283   4.588  17.146  0.00  0.00    +0.000 A 
ATOM     16  C   UNL     1       7.125   4.334  15.791  0.00  0.00    +0.000 A 
ATOM     17  C   UNL     1       6.078   4.940  15.110  0.00  0.00    +0.000 A 
ATOM     18  F   UNL     1       5.948   4.731  13.794  0.00  0.00    +0.000 F 
ATOM     19  C   UNL     1       5.166   5.770  15.768  0.00  0.00    +0.000 A 
ENDBRANCH  12  13
BRANCH  11  21
ATOM     20  N   UNL     1       2.277   4.207  17.786  0.00  0.00    +0.000 NA
ATOM     21  C   UNL     1       2.707   5.272  17.997  0.00  0.00    +0.000 C 
ENDBRANCH  11  21
ENDBRANCH   1  11
BRANCH   2  22
ATOM     22  O   UNL     1       2.056   6.520  21.093  0.00  0.00    +0.000 OA
ATOM     23  H   UNL     1       1.432   5.795  20.886  0.00  0.00    +0.000 HD
ENDBRANCH   2  22
TORSDOF 4
ENDMDL
MODEL 6
REMARK VINA RESULT:      -7.6      3.525      4.920
REMARK  Name = 
REMARK  4 active torsions:
REMARK  status: ('A' for Active; 'I' for Inactive)
REMARK    1  A    between atoms: C_2  and  C_3
REMARK    2  A    between atoms: C_3  and  C_12
REMARK    3  A    between atoms: N_4  and  C_5
REMARK    4  A    between atoms: C_13  and  O_14
REMARK                            x       y       z     vdW  Elec       q    Type
REMARK                         _______ _______ _______ _____ _____    ______ ____
ROOT
ATOM      1  C   UNL     1       4.510   4.129  17.553  0.00  0.00    +0.000 C 
ATOM      2  C   UNL     1       3.895   3.074  18.119  0.00  0.00    +0.000 C 
ATOM      3  C   UNL     1       2.937   3.514  19.121  0.00  0.00    +0.000 A 
ATOM      4  C   UNL     1       2.060   2.820  19.934  0.00  0.00    +0.000 A 
ATOM      5  C   UNL     1       1.233   3.557  20.797  0.00  0.00    +0.000 A 
ATOM      6  C   UNL     1       1.293   4.964  20.840  0.00  0.00    +0.000 A 
ATOM      7  C   UNL     1       2.178   5.657  20.018  0.00  0.00    +0.000 A 
ATOM      8  C   UNL     1       2.975   4.900  19.181  0.00  0.00    +0.000 A 
ATOM      9  C   UNL     1       3.960   5.340  18.211  0.00  0.00    +0.000 C 
ATOM     10  O   UNL     1       4.250   6.499  17.970  0.00  0.00    +0.000 OA
ENDROOT
BRANCH   1  11
ATOM     11  C   UNL     1       5.506   4.129  16.467  0.00  0.00    +0.000 C 
ATOM     12  N   UNL     1       5.150   4.052  15.209  0.00  0.00    +0.000 NA
BRANCH  12  13
ATOM     13  C   UNL     1       6.038   4.150  14.109  0.00  0.00    +0.000 A 
ATOM     14  C   UNL     1       6.910   5.232  13.908  0.00  0.00    +0.000 A 
ATOM     15  C   UNL     1       7.752   5.303  12.794  0.00  0.00    +0.000 A 
ATOM     16  C   UNL     1       7.673   4.329  11.808  0.00  0.00    +0.000 A 
ATOM     17  C   UNL     1       6.766   3.289  11.961  0.00  0.00    +0.000 A 
ATOM     18  F   UNL     1       6.657   2.371  10.991  0.00  0.00    +0.000 F 
ATOM     19  C   UNL     1       5.961   3.187  13.098  0.00  0.00    +0.000 A 
ENDBRANCH  12  13
BRANCH  11  21
ATOM     20  N   UNL     1       8.031   4.335  17.132  0.00  0.00    +0.000 NA
ATOM     21  C   UNL     1       6.914   4.250  16.802  0.00  0.00    +0.000 C 
ENDBRANCH  11  21
ENDBRANCH   1  11
BRANCH   2  22
ATOM     22  O   UNL     1       4.047   1.745  17.858  0.00  0.00    +0.000 OA
ATOM     23  H   UNL     1       3.616   1.239  18.578  0.00  0.00    +0.000 HD
ENDBRANCH   2  22
TORSDOF 4
ENDMDL
MODEL 7
REMARK VINA RESULT:      -7.6      4.581      5.244
REMARK  Name = 
REMARK  4 active torsions:
REMARK  status: ('A' for Active; 'I' for Inactive)
REMARK    1  A    between atoms: C_2  and  C_3
REMARK    2  A    between atoms: C_3  and  C_12
REMARK    3  A    between atoms: N_4  and  C_5
REMARK    4  A    between atoms: C_13  and  O_14
REMARK                            x       y       z     vdW  Elec       q    Type
REMARK                         _______ _______ _______ _____ _____    ______ ____
ROOT
ATOM      1  C   UNL     1       4.097   3.980  17.486  0.00  0.00    +0.000 C 
ATOM      2  C   UNL     1       2.786   3.688  17.564  0.00  0.00    +0.000 C 
ATOM      3  C   UNL     1       2.420   3.323  18.924  0.00  0.00    +0.000 A 
ATOM      4  C   UNL     1       1.212   2.976  19.499  0.00  0.00    +0.000 A 
ATOM      5  C   UNL     1       1.189   2.695  20.874  0.00  0.00    +0.000 A 
ATOM      6  C   UNL     1       2.362   2.759  21.651  0.00  0.00    +0.000 A 
ATOM      7  C   UNL     1       3.577   3.109  21.066  0.00  0.00    +0.000 A 
ATOM      8  C   UNL     1       3.561   3.380  19.712  0.00  0.00    +0.000 A 
ATOM      9  C   UNL     1       4.654   3.787  18.848  0.00  0.00    +0.000 C 
ATOM     10  O   UNL     1       5.807   3.963  19.198  0.00  0.00    +0.000 OA
ENDROOT
BRANCH   1  11
ATOM     11  C   UNL     1       4.861   4.441  16.313  0.00  0.00    +0.000 C 
ATOM     12  N   UNL     1       5.396   3.597  15.467  0.00  0.00    +0.000 NA
BRANCH  12  13
ATOM     13  C   UNL     1       6.054   3.962  14.267  0.00  0.00    +0.000 A 
ATOM     14  C   UNL     1       5.722   3.437  13.007  0.00  0.00    +0.000 A 
ATOM     15  C   UNL     1       6.415   3.803  11.849  0.00  0.00    +0.000 A 
ATOM     16  C   UNL     1       7.518   4.640  11.943  0.00  0.00    +0.000 A 
ATOM     17  C   UNL     1       7.899   5.114  13.191  0.00  0.00    +0.000 A 
ATOM     18  F   UNL     1       8.989   5.887  13.290  0.00  0.00    +0.000 F 
ATOM     19  C   UNL     1       7.177   4.792  14.343  0.00  0.00    +0.000 A 
ENDBRANCH  12  13
BRANCH  11  21
ATOM     20  N   UNL     1       5.042   7.023  15.910  0.00  0.00    +0.000 NA
ATOM     21  C   UNL     1       4.993   5.868  16.076  0.00  0.00    +0.000 C 
ENDBRANCH  11  21
ENDBRANCH   1  11
BRANCH   2  22
ATOM     22  O   UNL     1       1.836   3.718  16.588  0.00  0.00    +0.000 OA
ATOM     23  H   UNL     1       1.081   4.255  16.908  0.00  0.00    +0.000 HD
ENDBRANCH   2  22
TORSDOF 4
ENDMDL
MODEL 8
REMARK VINA RESULT:      -7.5      3.540      4.866
REMARK  Name = 
REMARK  4 active torsions:
REMARK  status: ('A' for Active; 'I' for Inactive)
REMARK    1  A    between atoms: C_2  and  C_3
REMARK    2  A    between atoms: C_3  and  C_12
REMARK    3  A    between atoms: N_4  and  C_5
REMARK    4  A    between atoms: C_13  and  O_14
REMARK                            x       y       z     vdW  Elec       q    Type
REMARK                         _______ _______ _______ _____ _____    ______ ____
ROOT
ATOM      1  C   UNL     1       4.240   4.319  17.564  0.00  0.00    +0.000 C 
ATOM      2  C   UNL     1       3.991   3.089  18.052  0.00  0.00    +0.000 C 
ATOM      3  C   UNL     1       3.218   3.171  19.282  0.00  0.00    +0.000 A 
ATOM      4  C   UNL     1       2.705   2.199  20.121  0.00  0.00    +0.000 A 
ATOM      5  C   UNL     1       1.968   2.614  21.241  0.00  0.00    +0.000 A 
ATOM      6  C   UNL     1       1.756   3.981  21.510  0.00  0.00    +0.000 A 
ATOM      7  C   UNL     1       2.276   4.955  20.661  0.00  0.00    +0.000 A 
ATOM      8  C   UNL     1       2.994   4.510  19.568  0.00  0.00    +0.000 A 
ATOM      9  C   UNL     1       3.626   5.281  18.513  0.00  0.00    +0.000 C 
ATOM     10  O   UNL     1       3.619   6.496  18.421  0.00  0.00    +0.000 OA
ENDROOT
BRANCH   1  11
ATOM     11  C   UNL     1       4.942   4.682  16.321  0.00  0.00    +0.000 C 
ATOM     12  N   UNL     1       5.499   3.776  15.557  0.00  0.00    +0.000 NA
BRANCH  12  13
ATOM     13  C   UNL     1       6.100   4.035  14.301  0.00  0.00    +0.000 A 
ATOM     14  C   UNL     1       5.712   3.403  13.108  0.00  0.00    +0.000 A 
ATOM     15  C   UNL     1       6.350   3.667  11.892  0.00  0.00    +0.000 A 
ATOM     16  C   UNL     1       7.454   4.507  11.862  0.00  0.00    +0.000 A 
ATOM     17  C   UNL     1       7.891   5.086  13.046  0.00  0.00    +0.000 A 
ATOM     18  F   UNL     1       8.982   5.863  13.027  0.00  0.00    +0.000 F 
ATOM     19  C   UNL     1       7.224   4.866  14.253  0.00  0.00    +0.000 A 
ENDBRANCH  12  13
BRANCH  11  21
ATOM     20  N   UNL     1       5.062   7.183  15.550  0.00  0.00    +0.000 NA
ATOM     21  C   UNL     1       4.987   6.077  15.919  0.00  0.00    +0.000 C 
ENDBRANCH  11  21
ENDBRANCH   1  11
BRANCH   2  22
ATOM     22  O   UNL     1       4.339   1.874  17.544  0.00  0.00    +0.000 OA
ATOM     23  H   UNL     1       4.695   1.326  18.274  0.00  0.00    +0.000 HD
ENDBRANCH   2  22
TORSDOF 4
ENDMDL
MODEL 9
REMARK VINA RESULT:      -7.5      0.999      2.372
REMARK  Name = 
REMARK  4 active torsions:
REMARK  status: ('A' for Active; 'I' for Inactive)
REMARK    1  A    between atoms: C_2  and  C_3
REMARK    2  A    between atoms: C_3  and  C_12
REMARK    3  A    between atoms: N_4  and  C_5
REMARK    4  A    between atoms: C_13  and  O_14
REMARK                            x       y       z     vdW  Elec       q    Type
REMARK                         _______ _______ _______ _____ _____    ______ ____
ROOT
ATOM      1  C   UNL     1       2.218   7.769  18.878  0.00  0.00    +0.000 C 
ATOM      2  C   UNL     1       1.824   8.976  18.431  0.00  0.00    +0.000 C 
ATOM      3  C   UNL     1       1.015   9.655  19.431  0.00  0.00    +0.000 A 
ATOM      4  C   UNL     1       0.416  10.901  19.450  0.00  0.00    +0.000 A 
ATOM      5  C   UNL     1      -0.293  11.277  20.601  0.00  0.00    +0.000 A 
ATOM      6  C   UNL     1      -0.399  10.412  21.708  0.00  0.00    +0.000 A 
ATOM      7  C   UNL     1       0.206   9.158  21.683  0.00  0.00    +0.000 A 
ATOM      8  C   UNL     1       0.897   8.823  20.535  0.00  0.00    +0.000 A 
ATOM      9  C   UNL     1       1.637   7.611  20.234  0.00  0.00    +0.000 C 
ATOM     10  O   UNL     1       1.774   6.659  20.981  0.00  0.00    +0.000 OA
ENDROOT
BRANCH   1  11
ATOM     11  C   UNL     1       3.086   6.786  18.205  0.00  0.00    +0.000 C 
ATOM     12  N   UNL     1       4.278   7.109  17.769  0.00  0.00    +0.000 NA
BRANCH  12  13
ATOM     13  C   UNL     1       5.207   6.198  17.206  0.00  0.00    +0.000 A 
ATOM     14  C   UNL     1       6.249   5.601  17.935  0.00  0.00    +0.000 A 
ATOM     15  C   UNL     1       7.162   4.728  17.335  0.00  0.00    +0.000 A 
ATOM     16  C   UNL     1       7.104   4.504  15.967  0.00  0.00    +0.000 A 
ATOM     17  C   UNL     1       6.120   5.141  15.223  0.00  0.00    +0.000 A 
ATOM     18  F   UNL     1       6.088   4.960  13.896  0.00  0.00    +0.000 F 
ATOM     19  C   UNL     1       5.174   5.972  15.827  0.00  0.00    +0.000 A 
ENDBRANCH  12  13
BRANCH  11  21
ATOM     20  N   UNL     1       2.181   4.345  17.923  0.00  0.00    +0.000 NA
ATOM     21  C   UNL     1       2.617   5.421  18.052  0.00  0.00    +0.000 C 
ENDBRANCH  11  21
ENDBRANCH   1  11
BRANCH   2  22
ATOM     22  O   UNL     1       2.099   9.589  17.245  0.00  0.00    +0.000 OA
ATOM     23  H   UNL     1       1.307  10.095  16.969  0.00  0.00    +0.000 HD
ENDBRANCH   2  22
TORSDOF 4
ENDMDL
