MODEL 1
REMARK VINA RESULT:      -8.1      0.000      0.000
REMARK  Name = 
REMARK  6 active torsions:
REMARK  status: ('A' for Active; 'I' for Inactive)
REMARK    1  A    between atoms: C_1  and  C_2
REMARK    2  A    between atoms: C_2  and  C_3
REMARK    3  A    between atoms: C_2  and  N_19
REMARK    4  A    between atoms: C_6  and  S_7
REMARK    5  A    between atoms: S_7  and  C_10
REMARK    6  A    between atoms: N_22  and  C_23
REMARK                            x       y       z     vdW  Elec       q    Type
REMARK                         _______ _______ _______ _____ _____    ______ ____
ROOT
ATOM      1  C   UNL     1       2.028   8.379  18.607  0.00  0.00    +0.000 A 
ATOM      2  C   UNL     1       2.007   7.462  19.672  0.00  0.00    +0.000 A 
ATOM      3  C   UNL     1       2.867   6.361  19.688  0.00  0.00    +0.000 A 
ATOM      4  C   UNL     1       3.783   6.191  18.649  0.00  0.00    +0.000 A 
ATOM      5  C   UNL     1       3.787   7.051  17.553  0.00  0.00    +0.000 A 
ATOM      6  C   UNL     1       2.907   8.134  17.531  0.00  0.00    +0.000 A 
ENDROOT
BRANCH   4   7
ATOM      7  S   UNL     1       4.992   4.895  18.764  0.00  0.00    +0.000 S 
ATOM      8  O   UNL     1       6.084   5.385  19.584  0.00  0.00    +0.000 OA
ATOM      9  O   UNL     1       4.300   3.668  19.116  0.00  0.00    +0.000 OA
BRANCH   7  10
ATOM     10  C   UNL     1       5.622   4.689  17.107  0.00  0.00    +0.000 A 
ATOM     11  C   UNL     1       4.819   4.082  16.134  0.00  0.00    +0.000 A 
ATOM     12  C   UNL     1       5.304   3.945  14.831  0.00  0.00    +0.000 A 
ATOM     13  C   UNL     1       6.575   4.421  14.509  0.00  0.00    +0.000 A 
ATOM     14 CL   UNL     1       7.159   4.267  12.898  0.00  0.00    +0.000 Cl
ATOM     15  C   UNL     1       7.372   5.029  15.479  0.00  0.00    +0.000 A 
ATOM     16  C   UNL     1       6.896   5.169  16.785  0.00  0.00    +0.000 A 
ENDBRANCH   7  10
ENDBRANCH   4   7
BRANCH   1  18
ATOM     17  C   UNL     1       2.095  10.858  18.174  0.00  0.00    +0.000 C 
ATOM     18  C   UNL     1       1.220   9.684  18.632  0.00  0.00    +0.000 C 
BRANCH  18  19
ATOM     19  N   UNL     1       0.393   9.858  19.840  0.00  0.00    +0.000 NA
ATOM     20  C   UNL     1       0.895  10.690  20.947  0.00  0.00    +0.000 C 
ATOM     21  C   UNL     1       0.442  12.183  21.001  0.00  0.00    +0.000 C 
ATOM     22  N   UNL     1      -0.983  12.474  20.693  0.00  0.00    +0.000 NA
ATOM     23  C   UNL     1      -1.292  11.727  19.453  0.00  0.00    +0.000 C 
ATOM     24  C   UNL     1      -1.007  10.208  19.541  0.00  0.00    +0.000 C 
BRANCH  22  25
ATOM     25  C   UNL     1      -1.918  12.175  21.810  0.00  0.00    +0.000 C 
ATOM     26  C   UNL     1      -1.392  12.654  23.195  0.00  0.00    +0.000 C 
ATOM     27  C   UNL     1      -1.408  14.172  23.388  0.00  0.00    +0.000 C 
ATOM     28  C   UNL     1      -2.784  14.774  23.111  0.00  0.00    +0.000 C 
ATOM     29  C   UNL     1      -3.302  14.348  21.744  0.00  0.00    +0.000 C 
ATOM     30  C   UNL     1      -3.324  12.819  21.637  0.00  0.00    +0.000 C 
ENDBRANCH  22  25
ENDBRANCH  18  19
ENDBRANCH   1  18
TORSDOF 5
ENDMDL
MODEL 2
REMARK VINA RESULT:      -7.9      2.158      2.899
REMARK  Name = 
REMARK  6 active torsions:
REMARK  status: ('A' for Active; 'I' for Inactive)
REMARK    1  A    between atoms: C_1  and  C_2
REMARK    2  A    between atoms: C_2  and  C_3
REMARK    3  A    between atoms: C_2  and  N_19
REMARK    4  A    between atoms: C_6  and  S_7
REMARK    5  A    between atoms: S_7  and  C_10
REMARK    6  A    between atoms: N_22  and  C_23
REMARK                            x       y       z     vdW  Elec       q    Type
REMARK                         _______ _______ _______ _____ _____    ______ ____
ROOT
ATOM      1  C   UNL     1       1.563   9.220  18.700  0.00  0.00    +0.000 A 
ATOM      2  C   UNL     1       2.390   8.771  17.657  0.00  0.00    +0.000 A 
ATOM      3  C   UNL     1       3.065   7.551  17.751  0.00  0.00    +0.000 A 
ATOM      4  C   UNL     1       2.886   6.753  18.882  0.00  0.00    +0.000 A 
ATOM      5  C   UNL     1       2.118   7.199  19.956  0.00  0.00    +0.000 A 
ATOM      6  C   UNL     1       1.467   8.431  19.865  0.00  0.00    +0.000 A 
ENDROOT
BRANCH   4   7
ATOM      7  S   UNL     1       3.600   5.127  18.917  0.00  0.00    +0.000 S 
ATOM      8  O   UNL     1       4.402   5.026  20.122  0.00  0.00    +0.000 OA
ATOM      9  O   UNL     1       2.543   4.169  18.652  0.00  0.00    +0.000 OA
BRANCH   7  10
ATOM     10  C   UNL     1       4.720   5.076  17.528  0.00  0.00    +0.000 A 
ATOM     11  C   UNL     1       4.391   4.309  16.404  0.00  0.00    +0.000 A 
ATOM     12  C   UNL     1       5.257   4.290  15.308  0.00  0.00    +0.000 A 
ATOM     13  C   UNL     1       6.433   5.039  15.338  0.00  0.00    +0.000 A 
ATOM     14 CL   UNL     1       7.486   5.028  13.977  0.00  0.00    +0.000 Cl
ATOM     15  C   UNL     1       6.758   5.806  16.458  0.00  0.00    +0.000 A 
ATOM     16  C   UNL     1       5.898   5.830  17.559  0.00  0.00    +0.000 A 
ENDBRANCH   7  10
ENDBRANCH   4   7
BRANCH   1  18
ATOM     17  C   UNL     1       1.454  11.715  19.014  0.00  0.00    +0.000 C 
ATOM     18  C   UNL     1       0.680  10.469  18.567  0.00  0.00    +0.000 C 
BRANCH  18  19
ATOM     19  N   UNL     1      -0.698  10.287  19.059  0.00  0.00    +0.000 NA
ATOM     20  C   UNL     1      -1.239  11.225  20.058  0.00  0.00    +0.000 C 
ATOM     21  C   UNL     1      -2.089  12.430  19.544  0.00  0.00    +0.000 C 
ATOM     22  N   UNL     1      -3.064  12.159  18.456  0.00  0.00    +0.000 NA
ATOM     23  C   UNL     1      -2.329  11.377  17.436  0.00  0.00    +0.000 C 
ATOM     24  C   UNL     1      -1.679  10.081  17.979  0.00  0.00    +0.000 C 
BRANCH  22  25
ATOM     25  C   UNL     1      -4.317  11.501  18.912  0.00  0.00    +0.000 C 
ATOM     26  C   UNL     1      -5.097  12.338  19.969  0.00  0.00    +0.000 C 
ATOM     27  C   UNL     1      -5.780  13.588  19.409  0.00  0.00    +0.000 C 
ATOM     28  C   UNL     1      -6.682  13.268  18.219  0.00  0.00    +0.000 C 
ATOM     29  C   UNL     1      -5.927  12.481  17.156  0.00  0.00    +0.000 C 
ATOM     30  C   UNL     1      -5.325  11.210  17.763  0.00  0.00    +0.000 C 
ENDBRANCH  22  25
ENDBRANCH  18  19
ENDBRANCH   1  18
TORSDOF 5
ENDMDL
MODEL 3
REMARK VINA RESULT:      -7.9      0.436      1.314
REMARK  Name = 
REMARK  6 active torsions:
REMARK  status: ('A' for Active; 'I' for Inactive)
REMARK    1  A    between atoms: C_1  and  C_2
REMARK    2  A    between atoms: C_2  and  C_3
REMARK    3  A    between atoms: C_2  and  N_19
REMARK    4  A    between atoms: C_6  and  S_7
REMARK    5  A    between atoms: S_7  and  C_10
REMARK    6  A    between atoms: N_22  and  C_23
REMARK                            x       y       z     vdW  Elec       q    Type
REMARK                         _______ _______ _______ _____ _____    ______ ____
ROOT
ATOM      1  C   UNL     1       2.279   8.389  18.511  0.00  0.00    +0.000 A 
ATOM      2  C   UNL     1       3.298   8.218  17.557  0.00  0.00    +0.000 A 
ATOM      3  C   UNL     1       4.070   7.054  17.533  0.00  0.00    +0.000 A 
ATOM      4  C   UNL     1       3.802   6.033  18.446  0.00  0.00    +0.000 A 
ATOM      5  C   UNL     1       2.838   6.198  19.438  0.00  0.00    +0.000 A 
ATOM      6  C   UNL     1       2.088   7.375  19.473  0.00  0.00    +0.000 A 
ENDROOT
BRANCH   4   7
ATOM      7  S   UNL     1       4.664   4.487  18.293  0.00  0.00    +0.000 S 
ATOM      8  O   UNL     1       5.701   4.462  19.308  0.00  0.00    +0.000 OA
ATOM      9  O   UNL     1       3.674   3.429  18.224  0.00  0.00    +0.000 OA
BRANCH   7  10
ATOM     10  C   UNL     1       5.476   4.556  16.705  0.00  0.00    +0.000 A 
ATOM     11  C   UNL     1       6.818   4.947  16.633  0.00  0.00    +0.000 A 
ATOM     12  C   UNL     1       7.459   4.976  15.392  0.00  0.00    +0.000 A 
ATOM     13  C   UNL     1       6.763   4.608  14.241  0.00  0.00    +0.000 A 
ATOM     14 CL   UNL     1       7.563   4.626  12.718  0.00  0.00    +0.000 Cl
ATOM     15  C   UNL     1       5.426   4.215  14.315  0.00  0.00    +0.000 A 
ATOM     16  C   UNL     1       4.777   4.184  15.552  0.00  0.00    +0.000 A 
ENDBRANCH   7  10
ENDBRANCH   4   7
BRANCH   1  18
ATOM     17  C   UNL     1       2.020  10.829  17.952  0.00  0.00    +0.000 C 
ATOM     18  C   UNL     1       1.305   9.574  18.468  0.00  0.00    +0.000 C 
BRANCH  18  19
ATOM     19  N   UNL     1       0.453   9.697  19.665  0.00  0.00    +0.000 NA
ATOM     20  C   UNL     1       0.952  10.437  20.836  0.00  0.00    +0.000 C 
ATOM     21  C   UNL     1       0.548  11.939  20.978  0.00  0.00    +0.000 C 
ATOM     22  N   UNL     1      -0.859  12.297  20.656  0.00  0.00    +0.000 NA
ATOM     23  C   UNL     1      -1.159  11.644  19.362  0.00  0.00    +0.000 C 
ATOM     24  C   UNL     1      -0.927  10.113  19.356  0.00  0.00    +0.000 C 
BRANCH  22  25
ATOM     25  C   UNL     1      -1.832  11.958  21.728  0.00  0.00    +0.000 C 
ATOM     26  C   UNL     1      -1.338  12.353  23.151  0.00  0.00    +0.000 C 
ATOM     27  C   UNL     1      -1.331  13.858  23.425  0.00  0.00    +0.000 C 
ATOM     28  C   UNL     1      -2.687  14.502  23.141  0.00  0.00    +0.000 C 
ATOM     29  C   UNL     1      -3.172  14.159  21.739  0.00  0.00    +0.000 C 
ATOM     30  C   UNL     1      -3.220  12.639  21.550  0.00  0.00    +0.000 C 
ENDBRANCH  22  25
ENDBRANCH  18  19
ENDBRANCH   1  18
TORSDOF 5
ENDMDL
MODEL 4
REMARK VINA RESULT:      -7.8      7.007      9.149
REMARK  Name = 
REMARK  6 active torsions:
REMARK  status: ('A' for Active; 'I' for Inactive)
REMARK    1  A    between atoms: C_1  and  C_2
REMARK    2  A    between atoms: C_2  and  C_3
REMARK    3  A    between atoms: C_2  and  N_19
REMARK    4  A    between atoms: C_6  and  S_7
REMARK    5  A    between atoms: S_7  and  C_10
REMARK    6  A    between atoms: N_22  and  C_23
REMARK                            x       y       z     vdW  Elec       q    Type
REMARK                         _______ _______ _______ _____ _____    ______ ____
ROOT
ATOM      1  C   UNL     1       8.694   9.276  18.723  0.00  0.00    +0.000 A 
ATOM      2  C   UNL     1       8.842   8.018  19.332  0.00  0.00    +0.000 A 
ATOM      3  C   UNL     1       8.195   6.891  18.817  0.00  0.00    +0.000 A 
ATOM      4  C   UNL     1       7.420   7.013  17.662  0.00  0.00    +0.000 A 
ATOM      5  C   UNL     1       7.209   8.257  17.072  0.00  0.00    +0.000 A 
ATOM      6  C   UNL     1       7.838   9.383  17.607  0.00  0.00    +0.000 A 
ENDROOT
BRANCH   4   7
ATOM      7  S   UNL     1       6.750   5.549  16.912  0.00  0.00    +0.000 S 
ATOM      8  O   UNL     1       6.370   5.887  15.552  0.00  0.00    +0.000 OA
ATOM      9  O   UNL     1       7.666   4.454  17.170  0.00  0.00    +0.000 OA
BRANCH   7  10
ATOM     10  C   UNL     1       5.248   5.204  17.812  0.00  0.00    +0.000 A 
ATOM     11  C   UNL     1       5.168   4.054  18.606  0.00  0.00    +0.000 A 
ATOM     12  C   UNL     1       4.001   3.798  19.330  0.00  0.00    +0.000 A 
ATOM     13  C   UNL     1       2.932   4.692  19.264  0.00  0.00    +0.000 A 
ATOM     14 CL   UNL     1       1.505   4.383  20.174  0.00  0.00    +0.000 Cl
ATOM     15  C   UNL     1       3.015   5.840  18.475  0.00  0.00    +0.000 A 
ATOM     16  C   UNL     1       4.178   6.103  17.747  0.00  0.00    +0.000 A 
ENDBRANCH   7  10
ENDBRANCH   4   7
BRANCH   1  18
ATOM     17  C   UNL     1       9.326  10.757  20.658  0.00  0.00    +0.000 C 
ATOM     18  C   UNL     1       9.514  10.499  19.158  0.00  0.00    +0.000 C 
BRANCH  18  19
ATOM     19  N   UNL     1       9.423  11.644  18.234  0.00  0.00    +0.000 NA
ATOM     20  C   UNL     1       8.656  12.837  18.633  0.00  0.00    +0.000 C 
ATOM     21  C   UNL     1       9.437  14.026  19.275  0.00  0.00    +0.000 C 
ATOM     22  N   UNL     1      10.744  14.388  18.666  0.00  0.00    +0.000 NA
ATOM     23  C   UNL     1      11.483  13.116  18.502  0.00  0.00    +0.000 C 
ATOM     24  C   UNL     1      10.726  12.047  17.676  0.00  0.00    +0.000 C 
BRANCH  22  25
ATOM     25  C   UNL     1      10.632  15.172  17.408  0.00  0.00    +0.000 C 
ATOM     26  C   UNL     1       9.537  16.277  17.470  0.00  0.00    +0.000 C 
ATOM     27  C   UNL     1       9.891  17.471  18.359  0.00  0.00    +0.000 C 
ATOM     28  C   UNL     1      11.239  18.086  17.988  0.00  0.00    +0.000 C 
ATOM     29  C   UNL     1      12.333  17.027  17.957  0.00  0.00    +0.000 C 
ATOM     30  C   UNL     1      11.949  15.894  17.001  0.00  0.00    +0.000 C 
ENDBRANCH  22  25
ENDBRANCH  18  19
ENDBRANCH   1  18
TORSDOF 5
ENDMDL
MODEL 5
REMARK VINA RESULT:      -7.6      1.039      1.617
REMARK  Name = 
REMARK  6 active torsions:
REMARK  status: ('A' for Active; 'I' for Inactive)
REMARK    1  A    between atoms: C_1  and  C_2
REMARK    2  A    between atoms: C_2  and  C_3
REMARK    3  A    between atoms: C_2  and  N_19
REMARK    4  A    between atoms: C_6  and  S_7
REMARK    5  A    between atoms: S_7  and  C_10
REMARK    6  A    between atoms: N_22  and  C_23
REMARK                            x       y       z     vdW  Elec       q    Type
REMARK                         _______ _______ _______ _____ _____    ______ ____
ROOT
ATOM      1  C   UNL     1       2.192   7.891  18.867  0.00  0.00    +0.000 A 
ATOM      2  C   UNL     1       3.126   7.808  17.820  0.00  0.00    +0.000 A 
ATOM      3  C   UNL     1       4.016   6.734  17.737  0.00  0.00    +0.000 A 
ATOM      4  C   UNL     1       3.951   5.713  18.686  0.00  0.00    +0.000 A 
ATOM      5  C   UNL     1       3.075   5.798  19.766  0.00  0.00    +0.000 A 
ATOM      6  C   UNL     1       2.206   6.887  19.857  0.00  0.00    +0.000 A 
ENDROOT
BRANCH   4   7
ATOM      7  S   UNL     1       4.960   4.266  18.473  0.00  0.00    +0.000 S 
ATOM      8  O   UNL     1       6.030   4.329  19.451  0.00  0.00    +0.000 OA
ATOM      9  O   UNL     1       4.080   3.113  18.416  0.00  0.00    +0.000 OA
BRANCH   7  10
ATOM     10  C   UNL     1       5.702   4.444  16.859  0.00  0.00    +0.000 A 
ATOM     11  C   UNL     1       4.969   4.094  15.720  0.00  0.00    +0.000 A 
ATOM     12  C   UNL     1       5.542   4.257  14.456  0.00  0.00    +0.000 A 
ATOM     13  C   UNL     1       6.832   4.775  14.340  0.00  0.00    +0.000 A 
ATOM     14 CL   UNL     1       7.525   4.994  12.781  0.00  0.00    +0.000 Cl
ATOM     15  C   UNL     1       7.560   5.128  15.477  0.00  0.00    +0.000 A 
ATOM     16  C   UNL     1       6.995   4.966  16.745  0.00  0.00    +0.000 A 
ENDBRANCH   7  10
ENDBRANCH   4   7
BRANCH   1  18
ATOM     17  C   UNL     1       0.664   9.329  17.476  0.00  0.00    +0.000 C 
ATOM     18  C   UNL     1       1.093   8.962  18.903  0.00  0.00    +0.000 C 
BRANCH  18  19
ATOM     19  N   UNL     1       1.348  10.055  19.859  0.00  0.00    +0.000 NA
ATOM     20  C   UNL     1       1.422  11.442  19.370  0.00  0.00    +0.000 C 
ATOM     21  C   UNL     1       0.129  12.314  19.450  0.00  0.00    +0.000 C 
ATOM     22  N   UNL     1      -0.689  12.206  20.687  0.00  0.00    +0.000 NA
ATOM     23  C   UNL     1      -0.843  10.758  20.948  0.00  0.00    +0.000 C 
ATOM     24  C   UNL     1       0.496   9.988  21.060  0.00  0.00    +0.000 C 
BRANCH  22  25
ATOM     25  C   UNL     1      -0.138  12.959  21.845  0.00  0.00    +0.000 C 
ATOM     26  C   UNL     1       0.194  14.443  21.510  0.00  0.00    +0.000 C 
ATOM     27  C   UNL     1      -1.031  15.339  21.317  0.00  0.00    +0.000 C 
ATOM     28  C   UNL     1      -1.989  15.269  22.505  0.00  0.00    +0.000 C 
ATOM     29  C   UNL     1      -2.357  13.827  22.827  0.00  0.00    +0.000 C 
ATOM     30  C   UNL     1      -1.092  12.999  23.075  0.00  0.00    +0.000 C 
ENDBRANCH  22  25
ENDBRANCH  18  19
ENDBRANCH   1  18
TORSDOF 5
ENDMDL
MODEL 6
REMARK VINA RESULT:      -7.5      1.490      2.169
REMARK  Name = 
REMARK  6 active torsions:
REMARK  status: ('A' for Active; 'I' for Inactive)
REMARK    1  A    between atoms: C_1  and  C_2
REMARK    2  A    between atoms: C_2  and  C_3
REMARK    3  A    between atoms: C_2  and  N_19
REMARK    4  A    between atoms: C_6  and  S_7
REMARK    5  A    between atoms: S_7  and  C_10
REMARK    6  A    between atoms: N_22  and  C_23
REMARK                            x       y       z     vdW  Elec       q    Type
REMARK                         _______ _______ _______ _____ _____    ______ ____
ROOT
ATOM      1  C   UNL     1       1.232   9.529  19.211  0.00  0.00    +0.000 A 
ATOM      2  C   UNL     1       1.634   8.999  17.973  0.00  0.00    +0.000 A 
ATOM      3  C   UNL     1       2.167   7.710  17.883  0.00  0.00    +0.000 A 
ATOM      4  C   UNL     1       2.266   6.928  19.035  0.00  0.00    +0.000 A 
ATOM      5  C   UNL     1       1.929   7.447  20.282  0.00  0.00    +0.000 A 
ATOM      6  C   UNL     1       1.423   8.745  20.368  0.00  0.00    +0.000 A 
ENDROOT
BRANCH   4   7
ATOM      7  S   UNL     1       2.772   5.231  18.887  0.00  0.00    +0.000 S 
ATOM      8  O   UNL     1       3.410   4.853  20.134  0.00  0.00    +0.000 OA
ATOM      9  O   UNL     1       1.646   4.472  18.376  0.00  0.00    +0.000 OA
BRANCH   7  10
ATOM     10  C   UNL     1       4.031   5.224  17.622  0.00  0.00    +0.000 A 
ATOM     11  C   UNL     1       4.925   6.298  17.532  0.00  0.00    +0.000 A 
ATOM     12  C   UNL     1       5.926   6.280  16.558  0.00  0.00    +0.000 A 
ATOM     13  C   UNL     1       6.033   5.192  15.691  0.00  0.00    +0.000 A 
ATOM     14 CL   UNL     1       7.280   5.165  14.507  0.00  0.00    +0.000 Cl
ATOM     15  C   UNL     1       5.143   4.121  15.785  0.00  0.00    +0.000 A 
ATOM     16  C   UNL     1       4.139   4.132  16.755  0.00  0.00    +0.000 A 
ENDBRANCH   7  10
ENDBRANCH   4   7
BRANCH   1  18
ATOM     17  C   UNL     1       1.492  11.999  19.622  0.00  0.00    +0.000 C 
ATOM     18  C   UNL     1       0.495  10.870  19.328  0.00  0.00    +0.000 C 
BRANCH  18  19
ATOM     19  N   UNL     1      -0.746  10.809  20.123  0.00  0.00    +0.000 NA
ATOM     20  C   UNL     1      -0.676  10.961  21.586  0.00  0.00    +0.000 C 
ATOM     21  C   UNL     1      -0.927  12.380  22.186  0.00  0.00    +0.000 C 
ATOM     22  N   UNL     1      -2.034  13.180  21.599  0.00  0.00    +0.000 NA
ATOM     23  C   UNL     1      -1.863  13.096  20.131  0.00  0.00    +0.000 C 
ATOM     24  C   UNL     1      -1.827  11.650  19.580  0.00  0.00    +0.000 C 
BRANCH  22  25
ATOM     25  C   UNL     1      -3.387  12.773  22.059  0.00  0.00    +0.000 C 
ATOM     26  C   UNL     1      -3.479  12.585  23.602  0.00  0.00    +0.000 C 
ATOM     27  C   UNL     1      -3.433  13.888  24.404  0.00  0.00    +0.000 C 
ATOM     28  C   UNL     1      -4.484  14.891  23.933  0.00  0.00    +0.000 C 
ATOM     29  C   UNL     1      -4.388  15.119  22.430  0.00  0.00    +0.000 C 
ATOM     30  C   UNL     1      -4.507  13.786  21.683  0.00  0.00    +0.000 C 
ENDBRANCH  22  25
ENDBRANCH  18  19
ENDBRANCH   1  18
TORSDOF 5
ENDMDL
MODEL 7
REMARK VINA RESULT:      -7.5      1.976      2.722
REMARK  Name = 
REMARK  6 active torsions:
REMARK  status: ('A' for Active; 'I' for Inactive)
REMARK    1  A    between atoms: C_1  and  C_2
REMARK    2  A    between atoms: C_2  and  C_3
REMARK    3  A    between atoms: C_2  and  N_19
REMARK    4  A    between atoms: C_6  and  S_7
REMARK    5  A    between atoms: S_7  and  C_10
REMARK    6  A    between atoms: N_22  and  C_23
REMARK                            x       y       z     vdW  Elec       q    Type
REMARK                         _______ _______ _______ _____ _____    ______ ____
ROOT
ATOM      1  C   UNL     1       1.618   8.829  18.565  0.00  0.00    +0.000 A 
ATOM      2  C   UNL     1       1.580   7.970  19.677  0.00  0.00    +0.000 A 
ATOM      3  C   UNL     1       2.409   6.847  19.744  0.00  0.00    +0.000 A 
ATOM      4  C   UNL     1       3.312   6.598  18.710  0.00  0.00    +0.000 A 
ATOM      5  C   UNL     1       3.332   7.399  17.571  0.00  0.00    +0.000 A 
ATOM      6  C   UNL     1       2.481   8.504  17.498  0.00  0.00    +0.000 A 
ENDROOT
BRANCH   4   7
ATOM      7  S   UNL     1       4.487   5.277  18.886  0.00  0.00    +0.000 S 
ATOM      8  O   UNL     1       5.497   5.711  19.832  0.00  0.00    +0.000 OA
ATOM      9  O   UNL     1       3.747   4.048  19.109  0.00  0.00    +0.000 OA
BRANCH   7  10
ATOM     10  C   UNL     1       5.278   5.135  17.292  0.00  0.00    +0.000 A 
ATOM     11  C   UNL     1       6.537   5.713  17.093  0.00  0.00    +0.000 A 
ATOM     12  C   UNL     1       7.166   5.580  15.852  0.00  0.00    +0.000 A 
ATOM     13  C   UNL     1       6.541   4.867  14.829  0.00  0.00    +0.000 A 
ATOM     14 CL   UNL     1       7.329   4.689  13.310  0.00  0.00    +0.000 Cl
ATOM     15  C   UNL     1       5.287   4.289  15.031  0.00  0.00    +0.000 A 
ATOM     16  C   UNL     1       4.651   4.418  16.268  0.00  0.00    +0.000 A 
ENDBRANCH   7  10
ENDBRANCH   4   7
BRANCH   1  18
ATOM     17  C   UNL     1       1.734  11.300  19.030  0.00  0.00    +0.000 C 
ATOM     18  C   UNL     1       0.846  10.155  18.527  0.00  0.00    +0.000 C 
BRANCH  18  19
ATOM     19  N   UNL     1      -0.534  10.064  19.038  0.00  0.00    +0.000 NA
ATOM     20  C   UNL     1      -1.039  11.105  19.949  0.00  0.00    +0.000 C 
ATOM     21  C   UNL     1      -1.853  12.285  19.331  0.00  0.00    +0.000 C 
ATOM     22  N   UNL     1      -2.843  11.948  18.274  0.00  0.00    +0.000 NA
ATOM     23  C   UNL     1      -2.140  11.054  17.327  0.00  0.00    +0.000 C 
ATOM     24  C   UNL     1      -1.528   9.792  17.984  0.00  0.00    +0.000 C 
BRANCH  22  25
ATOM     25  C   UNL     1      -4.113  11.376  18.793  0.00  0.00    +0.000 C 
ATOM     26  C   UNL     1      -4.761  12.239  19.915  0.00  0.00    +0.000 C 
ATOM     27  C   UNL     1      -5.376  13.553  19.429  0.00  0.00    +0.000 C 
ATOM     28  C   UNL     1      -6.371  13.337  18.291  0.00  0.00    +0.000 C 
ATOM     29  C   UNL     1      -5.746  12.526  17.164  0.00  0.00    +0.000 C 
ATOM     30  C   UNL     1      -5.209  11.195  17.703  0.00  0.00    +0.000 C 
ENDBRANCH  22  25
ENDBRANCH  18  19
ENDBRANCH   1  18
TORSDOF 5
ENDMDL
MODEL 8
REMARK VINA RESULT:      -7.4      0.709      1.176
REMARK  Name = 
REMARK  6 active torsions:
REMARK  status: ('A' for Active; 'I' for Inactive)
REMARK    1  A    between atoms: C_1  and  C_2
REMARK    2  A    between atoms: C_2  and  C_3
REMARK    3  A    between atoms: C_2  and  N_19
REMARK    4  A    between atoms: C_6  and  S_7
REMARK    5  A    between atoms: S_7  and  C_10
REMARK    6  A    between atoms: N_22  and  C_23
REMARK                            x       y       z     vdW  Elec       q    Type
REMARK                         _______ _______ _______ _____ _____    ______ ____
ROOT
ATOM      1  C   UNL     1       1.991   8.656  18.846  0.00  0.00    +0.000 A 
ATOM      2  C   UNL     1       2.819   8.351  17.752  0.00  0.00    +0.000 A 
ATOM      3  C   UNL     1       3.470   7.117  17.667  0.00  0.00    +0.000 A 
ATOM      4  C   UNL     1       3.264   6.163  18.664  0.00  0.00    +0.000 A 
ATOM      5  C   UNL     1       2.495   6.458  19.787  0.00  0.00    +0.000 A 
ATOM      6  C   UNL     1       1.869   7.702  19.879  0.00  0.00    +0.000 A 
ENDROOT
BRANCH   4   7
ATOM      7  S   UNL     1       3.948   4.536  18.459  0.00  0.00    +0.000 S 
ATOM      8  O   UNL     1       4.765   4.253  19.624  0.00  0.00    +0.000 OA
ATOM      9  O   UNL     1       2.869   3.642  18.081  0.00  0.00    +0.000 OA
BRANCH   7  10
ATOM     10  C   UNL     1       5.046   4.660  17.057  0.00  0.00    +0.000 A 
ATOM     11  C   UNL     1       4.619   4.204  15.804  0.00  0.00    +0.000 A 
ATOM     12  C   UNL     1       5.470   4.325  14.703  0.00  0.00    +0.000 A 
ATOM     13  C   UNL     1       6.729   4.905  14.857  0.00  0.00    +0.000 A 
ATOM     14 CL   UNL     1       7.765   5.070  13.493  0.00  0.00    +0.000 Cl
ATOM     15  C   UNL     1       7.151   5.363  16.106  0.00  0.00    +0.000 A 
ATOM     16  C   UNL     1       6.307   5.244  17.213  0.00  0.00    +0.000 A 
ENDBRANCH   7  10
ENDBRANCH   4   7
BRANCH   1  18
ATOM     17  C   UNL     1       1.832  11.068  18.146  0.00  0.00    +0.000 C 
ATOM     18  C   UNL     1       1.133   9.927  18.896  0.00  0.00    +0.000 C 
BRANCH  18  19
ATOM     19  N   UNL     1       0.555  10.213  20.223  0.00  0.00    +0.000 NA
ATOM     20  C   UNL     1       1.092  11.329  21.020  0.00  0.00    +0.000 C 
ATOM     21  C   UNL     1       0.361  12.706  20.933  0.00  0.00    +0.000 C 
ATOM     22  N   UNL     1      -1.125  12.689  20.936  0.00  0.00    +0.000 NA
ATOM     23  C   UNL     1      -1.523  11.659  19.950  0.00  0.00    +0.000 C 
ATOM     24  C   UNL     1      -0.918  10.259  20.218  0.00  0.00    +0.000 C 
BRANCH  22  25
ATOM     25  C   UNL     1      -1.727  12.481  22.280  0.00  0.00    +0.000 C 
ATOM     26  C   UNL     1      -1.319  13.576  23.309  0.00  0.00    +0.000 C 
ATOM     27  C   UNL     1      -1.960  14.944  23.067  0.00  0.00    +0.000 C 
ATOM     28  C   UNL     1      -3.482  14.858  22.966  0.00  0.00    +0.000 C 
ATOM     29  C   UNL     1      -3.903  13.818  21.936  0.00  0.00    +0.000 C 
ATOM     30  C   UNL     1      -3.283  12.458  22.272  0.00  0.00    +0.000 C 
ENDBRANCH  22  25
ENDBRANCH  18  19
ENDBRANCH   1  18
TORSDOF 5
ENDMDL
MODEL 9
REMARK VINA RESULT:      -7.4      0.940      1.098
REMARK  Name = 
REMARK  6 active torsions:
REMARK  status: ('A' for Active; 'I' for Inactive)
REMARK    1  A    between atoms: C_1  and  C_2
REMARK    2  A    between atoms: C_2  and  C_3
REMARK    3  A    between atoms: C_2  and  N_19
REMARK    4  A    between atoms: C_6  and  S_7
REMARK    5  A    between atoms: S_7  and  C_10
REMARK    6  A    between atoms: N_22  and  C_23
REMARK                            x       y       z     vdW  Elec       q    Type
REMARK                         _______ _______ _______ _____ _____    ______ ____
ROOT
ATOM      1  C   UNL     1       1.705   8.959  18.774  0.00  0.00    +0.000 A 
ATOM      2  C   UNL     1       1.693   8.161  19.931  0.00  0.00    +0.000 A 
ATOM      3  C   UNL     1       2.330   6.917  19.950  0.00  0.00    +0.000 A 
ATOM      4  C   UNL     1       3.018   6.481  18.816  0.00  0.00    +0.000 A 
ATOM      5  C   UNL     1       2.997   7.225  17.639  0.00  0.00    +0.000 A 
ATOM      6  C   UNL     1       2.336   8.454  17.619  0.00  0.00    +0.000 A 
ENDROOT
BRANCH   4   7
ATOM      7  S   UNL     1       3.975   4.987  18.906  0.00  0.00    +0.000 S 
ATOM      8  O   UNL     1       4.868   5.106  20.045  0.00  0.00    +0.000 OA
ATOM      9  O   UNL     1       3.063   3.864  18.800  0.00  0.00    +0.000 OA
BRANCH   7  10
ATOM     10  C   UNL     1       4.987   4.988  17.436  0.00  0.00    +0.000 A 
ATOM     11  C   UNL     1       4.603   4.215  16.334  0.00  0.00    +0.000 A 
ATOM     12  C   UNL     1       5.382   4.236  15.175  0.00  0.00    +0.000 A 
ATOM     13  C   UNL     1       6.528   5.030  15.121  0.00  0.00    +0.000 A 
ATOM     14 CL   UNL     1       7.473   5.068  13.684  0.00  0.00    +0.000 Cl
ATOM     15  C   UNL     1       6.907   5.803  16.220  0.00  0.00    +0.000 A 
ATOM     16  C   UNL     1       6.134   5.786  17.384  0.00  0.00    +0.000 A 
ENDBRANCH   7  10
ENDBRANCH   4   7
BRANCH   1  18
ATOM     17  C   UNL     1       2.230  11.363  18.240  0.00  0.00    +0.000 C 
ATOM     18  C   UNL     1       1.161  10.395  18.763  0.00  0.00    +0.000 C 
BRANCH  18  19
ATOM     19  N   UNL     1       0.416  10.766  19.980  0.00  0.00    +0.000 NA
ATOM     20  C   UNL     1       0.749  12.020  20.678  0.00  0.00    +0.000 C 
ATOM     21  C   UNL     1      -0.099  13.288  20.346  0.00  0.00    +0.000 C 
ATOM     22  N   UNL     1      -1.568  13.106  20.207  0.00  0.00    +0.000 NA
ATOM     23  C   UNL     1      -1.752  11.931  19.326  0.00  0.00    +0.000 C 
ATOM     24  C   UNL     1      -1.045  10.647  19.827  0.00  0.00    +0.000 C 
BRANCH  22  25
ATOM     25  C   UNL     1      -2.291  12.991  21.502  0.00  0.00    +0.000 C 
ATOM     26  C   UNL     1      -1.996  14.170  22.475  0.00  0.00    +0.000 C 
ATOM     27  C   UNL     1      -2.630  15.502  22.068  0.00  0.00    +0.000 C 
ATOM     28  C   UNL     1      -4.134  15.376  21.833  0.00  0.00    +0.000 C 
ATOM     29  C   UNL     1      -4.443  14.251  20.854  0.00  0.00    +0.000 C 
ATOM     30  C   UNL     1      -3.839  12.934  21.351  0.00  0.00    +0.000 C 
ENDBRANCH  22  25
ENDBRANCH  18  19
ENDBRANCH   1  18
TORSDOF 5
ENDMDL
