MODEL 1
REMARK VINA RESULT:      -7.7      0.000      0.000
REMARK  Name = 
REMARK  7 active torsions:
REMARK  status: ('A' for Active; 'I' for Inactive)
REMARK    1  A    between atoms: C_1  and  C_2
REMARK    2  A    between atoms: C_3  and  C_4
REMARK    3  A    between atoms: N_6  and  C_7
REMARK    4  A    between atoms: N_13  and  C_14
REMARK    5  A    between atoms: C_22  and  N_23
REMARK    6  A    between atoms: C_24  and  C_25
REMARK    7  A    between atoms: C_28  and  C_29
REMARK                            x       y       z     vdW  Elec       q    Type
REMARK                         _______ _______ _______ _____ _____    ______ ____
ROOT
ATOM      1  C   UNL     1       1.508   7.104  20.450  0.00  0.00    +0.000 C 
ATOM      2  C   UNL     1       2.341   6.973  19.224  0.00  0.00    +0.000 A 
ATOM      3  C   UNL     1       2.515   8.010  18.247  0.00  0.00    +0.000 A 
ATOM      4  N   UNL     1       3.472   7.669  17.364  0.00  0.00    +0.000 NA
ATOM      5  N   UNL     1       3.736   6.355  17.610  0.00  0.00    +0.000 N 
ATOM      6  C   UNL     1       3.175   5.930  18.811  0.00  0.00    +0.000 A 
ENDROOT
BRANCH   5   7
ATOM      7  C   UNL     1       4.453   5.647  16.608  0.00  0.00    +0.000 A 
ATOM      8  C   UNL     1       5.517   6.293  15.946  0.00  0.00    +0.000 A 
ATOM      9  C   UNL     1       6.284   5.594  15.011  0.00  0.00    +0.000 A 
ATOM     10  C   UNL     1       5.979   4.267  14.727  0.00  0.00    +0.000 A 
ATOM     11  F   UNL     1       6.730   3.590  13.851  0.00  0.00    +0.000 F 
ATOM     12  C   UNL     1       4.904   3.632  15.339  0.00  0.00    +0.000 A 
ATOM     13  C   UNL     1       4.133   4.333  16.270  0.00  0.00    +0.000 A 
ATOM     14  F   UNL     1       3.070   3.713  16.794  0.00  0.00    +0.000 F 
ENDBRANCH   5   7
BRANCH   6  15
ATOM     15  N   UNL     1       3.482   4.705  19.465  0.00  0.00    +0.000 N 
ATOM     16  C   UNL     1       4.763   4.175  19.725  0.00  0.00    +0.000 A 
ATOM     17  C   UNL     1       6.080   4.829  19.476  0.00  0.00    +0.000 C 
ATOM     18  C   UNL     1       4.631   2.931  20.313  0.00  0.00    +0.000 A 
ATOM     19  C   UNL     1       3.272   2.696  20.512  0.00  0.00    +0.000 A 
ATOM     20  C   UNL     1       2.574   3.769  19.994  0.00  0.00    +0.000 A 
ATOM     21  C   UNL     1       1.089   3.826  19.911  0.00  0.00    +0.000 C 
ENDBRANCH   6  15
BRANCH   3  22
ATOM     22  C   UNL     1       1.841   9.339  18.160  0.00  0.00    +0.000 C 
ATOM     23  O   UNL     1       2.446  10.405  18.168  0.00  0.00    +0.000 OA
ATOM     24  N   UNL     1       0.463   9.250  18.103  0.00  0.00    +0.000 N 
ATOM     25  H   UNL     1       0.112   8.297  18.111  0.00  0.00    +0.000 HD
BRANCH  24  26
ATOM     26  C   UNL     1      -0.490  10.333  18.009  0.00  0.00    +0.000 C 
ATOM     27  C   UNL     1      -1.797  10.038  17.275  0.00  0.00    +0.000 C 
ATOM     28  C   UNL     1      -2.648  11.272  17.572  0.00  0.00    +0.000 C 
ATOM     29  C   UNL     1      -2.194  11.769  18.946  0.00  0.00    +0.000 C 
ATOM     30  C   UNL     1      -0.985  10.913  19.334  0.00  0.00    +0.000 C 
ENDBRANCH  24  26
ENDBRANCH   3  22
TORSDOF 4
ENDMDL
MODEL 2
REMARK VINA RESULT:      -7.7      0.072      1.512
REMARK  Name = 
REMARK  7 active torsions:
REMARK  status: ('A' for Active; 'I' for Inactive)
REMARK    1  A    between atoms: C_1  and  C_2
REMARK    2  A    between atoms: C_3  and  C_4
REMARK    3  A    between atoms: N_6  and  C_7
REMARK    4  A    between atoms: N_13  and  C_14
REMARK    5  A    between atoms: C_22  and  N_23
REMARK    6  A    between atoms: C_24  and  C_25
REMARK    7  A    between atoms: C_28  and  C_29
REMARK                            x       y       z     vdW  Elec       q    Type
REMARK                         _______ _______ _______ _____ _____    ______ ____
ROOT
ATOM      1  C   UNL     1       1.507   7.046  20.422  0.00  0.00    +0.000 C 
ATOM      2  C   UNL     1       2.352   6.930  19.203  0.00  0.00    +0.000 A 
ATOM      3  C   UNL     1       2.536   7.979  18.240  0.00  0.00    +0.000 A 
ATOM      4  N   UNL     1       3.503   7.649  17.364  0.00  0.00    +0.000 NA
ATOM      5  N   UNL     1       3.763   6.332  17.595  0.00  0.00    +0.000 N 
ATOM      6  C   UNL     1       3.191   5.892  18.785  0.00  0.00    +0.000 A 
ENDROOT
BRANCH   5   7
ATOM      7  C   UNL     1       4.491   5.636  16.592  0.00  0.00    +0.000 A 
ATOM      8  C   UNL     1       5.561   6.290  15.949  0.00  0.00    +0.000 A 
ATOM      9  C   UNL     1       6.338   5.603  15.013  0.00  0.00    +0.000 A 
ATOM     10  C   UNL     1       6.036   4.280  14.710  0.00  0.00    +0.000 A 
ATOM     11  F   UNL     1       6.795   3.614  13.833  0.00  0.00    +0.000 F 
ATOM     12  C   UNL     1       4.955   3.638  15.303  0.00  0.00    +0.000 A 
ATOM     13  C   UNL     1       4.175   4.327  16.234  0.00  0.00    +0.000 A 
ATOM     14  F   UNL     1       3.106   3.700  16.740  0.00  0.00    +0.000 F 
ENDBRANCH   5   7
BRANCH   6  15
ATOM     15  N   UNL     1       3.490   4.659  19.427  0.00  0.00    +0.000 N 
ATOM     16  C   UNL     1       2.571   3.700  19.902  0.00  0.00    +0.000 A 
ATOM     17  C   UNL     1       1.089   3.708  19.737  0.00  0.00    +0.000 C 
ATOM     18  C   UNL     1       3.261   2.679  20.527  0.00  0.00    +0.000 A 
ATOM     19  C   UNL     1       4.623   2.932  20.381  0.00  0.00    +0.000 A 
ATOM     20  C   UNL     1       4.764   4.135  19.718  0.00  0.00    +0.000 A 
ATOM     21  C   UNL     1       6.074   4.801  19.484  0.00  0.00    +0.000 C 
ENDBRANCH   6  15
BRANCH   3  22
ATOM     22  C   UNL     1       1.863   9.309  18.163  0.00  0.00    +0.000 C 
ATOM     23  O   UNL     1       2.470  10.374  18.146  0.00  0.00    +0.000 OA
ATOM     24  N   UNL     1       0.484   9.223  18.147  0.00  0.00    +0.000 N 
ATOM     25  H   UNL     1       0.131   8.271  18.172  0.00  0.00    +0.000 HD
BRANCH  24  26
ATOM     26  C   UNL     1      -0.468  10.309  18.072  0.00  0.00    +0.000 C 
ATOM     27  C   UNL     1      -1.754  10.042  17.291  0.00  0.00    +0.000 C 
ATOM     28  C   UNL     1      -2.616  11.262  17.615  0.00  0.00    +0.000 C 
ATOM     29  C   UNL     1      -2.202  11.701  19.022  0.00  0.00    +0.000 C 
ATOM     30  C   UNL     1      -1.001  10.831  19.406  0.00  0.00    +0.000 C 
ENDBRANCH  24  26
ENDBRANCH   3  22
TORSDOF 4
ENDMDL
MODEL 3
REMARK VINA RESULT:      -7.7      1.159      2.055
REMARK  Name = 
REMARK  7 active torsions:
REMARK  status: ('A' for Active; 'I' for Inactive)
REMARK    1  A    between atoms: C_1  and  C_2
REMARK    2  A    between atoms: C_3  and  C_4
REMARK    3  A    between atoms: N_6  and  C_7
REMARK    4  A    between atoms: N_13  and  C_14
REMARK    5  A    between atoms: C_22  and  N_23
REMARK    6  A    between atoms: C_24  and  C_25
REMARK    7  A    between atoms: C_28  and  C_29
REMARK                            x       y       z     vdW  Elec       q    Type
REMARK                         _______ _______ _______ _____ _____    ______ ____
ROOT
ATOM      1  C   UNL     1       1.551   6.723  19.849  0.00  0.00    +0.000 C 
ATOM      2  C   UNL     1       2.534   6.720  18.733  0.00  0.00    +0.000 A 
ATOM      3  C   UNL     1       2.817   7.853  17.897  0.00  0.00    +0.000 A 
ATOM      4  N   UNL     1       3.883   7.606  17.115  0.00  0.00    +0.000 NA
ATOM      5  N   UNL     1       4.132   6.274  17.256  0.00  0.00    +0.000 N 
ATOM      6  C   UNL     1       3.430   5.727  18.326  0.00  0.00    +0.000 A 
ENDROOT
BRANCH   5   7
ATOM      7  C   UNL     1       4.982   5.674  16.287  0.00  0.00    +0.000 A 
ATOM      8  C   UNL     1       4.467   4.648  15.470  0.00  0.00    +0.000 A 
ATOM      9  C   UNL     1       5.260   4.095  14.462  0.00  0.00    +0.000 A 
ATOM     10  C   UNL     1       6.562   4.551  14.285  0.00  0.00    +0.000 A 
ATOM     11  F   UNL     1       7.312   4.040  13.302  0.00  0.00    +0.000 F 
ATOM     12  C   UNL     1       7.097   5.532  15.113  0.00  0.00    +0.000 A 
ATOM     13  C   UNL     1       6.306   6.080  16.125  0.00  0.00    +0.000 A 
ATOM     14  F   UNL     1       6.871   6.976  16.943  0.00  0.00    +0.000 F 
ENDBRANCH   5   7
BRANCH   6  15
ATOM     15  N   UNL     1       3.669   4.442  18.885  0.00  0.00    +0.000 N 
ATOM     16  C   UNL     1       2.744   3.384  19.017  0.00  0.00    +0.000 A 
ATOM     17  C   UNL     1       1.346   3.335  18.499  0.00  0.00    +0.000 C 
ATOM     18  C   UNL     1       3.347   2.331  19.678  0.00  0.00    +0.000 A 
ATOM     19  C   UNL     1       4.681   2.671  19.895  0.00  0.00    +0.000 A 
ATOM     20  C   UNL     1       4.876   3.953  19.418  0.00  0.00    +0.000 A 
ATOM     21  C   UNL     1       6.147   4.710  19.582  0.00  0.00    +0.000 C 
ENDBRANCH   6  15
BRANCH   3  22
ATOM     22  C   UNL     1       2.139   9.183  17.861  0.00  0.00    +0.000 C 
ATOM     23  O   UNL     1       2.733  10.239  17.674  0.00  0.00    +0.000 OA
ATOM     24  N   UNL     1       0.778   9.110  18.092  0.00  0.00    +0.000 N 
ATOM     25  H   UNL     1       0.437   8.164  18.235  0.00  0.00    +0.000 HD
BRANCH  24  26
ATOM     26  C   UNL     1      -0.173  10.198  18.121  0.00  0.00    +0.000 C 
ATOM     27  C   UNL     1      -1.497   9.973  17.394  0.00  0.00    +0.000 C 
ATOM     28  C   UNL     1      -2.337  11.175  17.824  0.00  0.00    +0.000 C 
ATOM     29  C   UNL     1      -1.851  11.541  19.228  0.00  0.00    +0.000 C 
ATOM     30  C   UNL     1      -0.635  10.652  19.506  0.00  0.00    +0.000 C 
ENDBRANCH  24  26
ENDBRANCH   3  22
TORSDOF 4
ENDMDL
MODEL 4
REMARK VINA RESULT:      -7.6      1.470      2.371
REMARK  Name = 
REMARK  7 active torsions:
REMARK  status: ('A' for Active; 'I' for Inactive)
REMARK    1  A    between atoms: C_1  and  C_2
REMARK    2  A    between atoms: C_3  and  C_4
REMARK    3  A    between atoms: N_6  and  C_7
REMARK    4  A    between atoms: N_13  and  C_14
REMARK    5  A    between atoms: C_22  and  N_23
REMARK    6  A    between atoms: C_24  and  C_25
REMARK    7  A    between atoms: C_28  and  C_29
REMARK                            x       y       z     vdW  Elec       q    Type
REMARK                         _______ _______ _______ _____ _____    ______ ____
ROOT
ATOM      1  C   UNL     1       1.408   6.224  20.022  0.00  0.00    +0.000 C 
ATOM      2  C   UNL     1       2.425   6.345  18.943  0.00  0.00    +0.000 A 
ATOM      3  C   UNL     1       2.718   7.561  18.238  0.00  0.00    +0.000 A 
ATOM      4  N   UNL     1       3.811   7.406  17.468  0.00  0.00    +0.000 NA
ATOM      5  N   UNL     1       4.072   6.068  17.479  0.00  0.00    +0.000 N 
ATOM      6  C   UNL     1       3.345   5.407  18.464  0.00  0.00    +0.000 A 
ENDROOT
BRANCH   5   7
ATOM      7  C   UNL     1       4.959   5.580  16.481  0.00  0.00    +0.000 A 
ATOM      8  C   UNL     1       4.500   4.592  15.586  0.00  0.00    +0.000 A 
ATOM      9  C   UNL     1       5.327   4.150  14.551  0.00  0.00    +0.000 A 
ATOM     10  C   UNL     1       6.608   4.677  14.424  0.00  0.00    +0.000 A 
ATOM     11  F   UNL     1       7.391   4.273  13.417  0.00  0.00    +0.000 F 
ATOM     12  C   UNL     1       7.089   5.618  15.327  0.00  0.00    +0.000 A 
ATOM     13  C   UNL     1       6.264   6.056  16.365  0.00  0.00    +0.000 A 
ATOM     14  F   UNL     1       6.778   6.915  17.253  0.00  0.00    +0.000 F 
ENDBRANCH   5   7
BRANCH   6  15
ATOM     15  N   UNL     1       3.583   4.074  18.896  0.00  0.00    +0.000 N 
ATOM     16  C   UNL     1       2.658   3.008  18.922  0.00  0.00    +0.000 A 
ATOM     17  C   UNL     1       1.262   3.010  18.397  0.00  0.00    +0.000 C 
ATOM     18  C   UNL     1       3.260   1.896  19.478  0.00  0.00    +0.000 A 
ATOM     19  C   UNL     1       4.593   2.213  19.731  0.00  0.00    +0.000 A 
ATOM     20  C   UNL     1       4.789   3.535  19.382  0.00  0.00    +0.000 A 
ATOM     21  C   UNL     1       6.059   4.273  19.623  0.00  0.00    +0.000 C 
ENDBRANCH   6  15
BRANCH   3  22
ATOM     22  C   UNL     1       2.026   8.881  18.317  0.00  0.00    +0.000 C 
ATOM     23  O   UNL     1       2.013   9.693  17.399  0.00  0.00    +0.000 OA
ATOM     24  N   UNL     1       1.427   9.111  19.541  0.00  0.00    +0.000 N 
ATOM     25  H   UNL     1       1.531   8.345  20.200  0.00  0.00    +0.000 HD
BRANCH  24  26
ATOM     26  C   UNL     1       0.675  10.275  19.952  0.00  0.00    +0.000 C 
ATOM     27  C   UNL     1      -0.703  10.461  19.320  0.00  0.00    +0.000 C 
ATOM     28  C   UNL     1      -1.307  11.604  20.135  0.00  0.00    +0.000 C 
ATOM     29  C   UNL     1      -0.696  11.486  21.533  0.00  0.00    +0.000 C 
ATOM     30  C   UNL     1       0.365  10.385  21.445  0.00  0.00    +0.000 C 
ENDBRANCH  24  26
ENDBRANCH   3  22
TORSDOF 4
ENDMDL
MODEL 5
REMARK VINA RESULT:      -7.6      1.432      1.816
REMARK  Name = 
REMARK  7 active torsions:
REMARK  status: ('A' for Active; 'I' for Inactive)
REMARK    1  A    between atoms: C_1  and  C_2
REMARK    2  A    between atoms: C_3  and  C_4
REMARK    3  A    between atoms: N_6  and  C_7
REMARK    4  A    between atoms: N_13  and  C_14
REMARK    5  A    between atoms: C_22  and  N_23
REMARK    6  A    between atoms: C_24  and  C_25
REMARK    7  A    between atoms: C_28  and  C_29
REMARK                            x       y       z     vdW  Elec       q    Type
REMARK                         _______ _______ _______ _____ _____    ______ ____
ROOT
ATOM      1  C   UNL     1       1.453   6.293  20.027  0.00  0.00    +0.000 C 
ATOM      2  C   UNL     1       2.456   6.381  18.932  0.00  0.00    +0.000 A 
ATOM      3  C   UNL     1       2.752   7.579  18.197  0.00  0.00    +0.000 A 
ATOM      4  N   UNL     1       3.832   7.397  17.416  0.00  0.00    +0.000 NA
ATOM      5  N   UNL     1       4.081   6.058  17.452  0.00  0.00    +0.000 N 
ATOM      6  C   UNL     1       3.361   5.425  18.461  0.00  0.00    +0.000 A 
ENDROOT
BRANCH   5   7
ATOM      7  C   UNL     1       4.949   5.540  16.453  0.00  0.00    +0.000 A 
ATOM      8  C   UNL     1       4.469   4.538  15.585  0.00  0.00    +0.000 A 
ATOM      9  C   UNL     1       5.278   4.067  14.549  0.00  0.00    +0.000 A 
ATOM     10  C   UNL     1       6.562   4.578  14.393  0.00  0.00    +0.000 A 
ATOM     11  F   UNL     1       7.327   4.145  13.385  0.00  0.00    +0.000 F 
ATOM     12  C   UNL     1       7.063   5.534  15.270  0.00  0.00    +0.000 A 
ATOM     13  C   UNL     1       6.257   6.001  16.310  0.00  0.00    +0.000 A 
ATOM     14  F   UNL     1       6.791   6.874  17.172  0.00  0.00    +0.000 F 
ENDBRANCH   5   7
BRANCH   6  15
ATOM     15  N   UNL     1       3.591   4.098  18.917  0.00  0.00    +0.000 N 
ATOM     16  C   UNL     1       4.799   3.565  19.414  0.00  0.00    +0.000 A 
ATOM     17  C   UNL     1       6.070   4.299  19.679  0.00  0.00    +0.000 C 
ATOM     18  C   UNL     1       4.628   2.220  19.681  0.00  0.00    +0.000 A 
ATOM     19  C   UNL     1       3.292   1.904  19.441  0.00  0.00    +0.000 A 
ATOM     20  C   UNL     1       2.664   3.041  18.973  0.00  0.00    +0.000 A 
ATOM     21  C   UNL     1       1.255   3.067  18.492  0.00  0.00    +0.000 C 
ENDBRANCH   6  15
BRANCH   3  22
ATOM     22  C   UNL     1       2.073   8.907  18.258  0.00  0.00    +0.000 C 
ATOM     23  O   UNL     1       2.135   9.740  17.360  0.00  0.00    +0.000 OA
ATOM     24  N   UNL     1       1.394   9.120  19.443  0.00  0.00    +0.000 N 
ATOM     25  H   UNL     1       1.441   8.338  20.089  0.00  0.00    +0.000 HD
BRANCH  24  26
ATOM     26  C   UNL     1       0.630  10.286  19.827  0.00  0.00    +0.000 C 
ATOM     27  C   UNL     1      -0.777  10.408  19.246  0.00  0.00    +0.000 C 
ATOM     28  C   UNL     1      -1.375  11.577  20.027  0.00  0.00    +0.000 C 
ATOM     29  C   UNL     1      -0.703  11.544  21.402  0.00  0.00    +0.000 C 
ATOM     30  C   UNL     1       0.381  10.466  21.324  0.00  0.00    +0.000 C 
ENDBRANCH  24  26
ENDBRANCH   3  22
TORSDOF 4
ENDMDL
MODEL 6
REMARK VINA RESULT:      -7.5      1.066      1.368
REMARK  Name = 
REMARK  7 active torsions:
REMARK  status: ('A' for Active; 'I' for Inactive)
REMARK    1  A    between atoms: C_1  and  C_2
REMARK    2  A    between atoms: C_3  and  C_4
REMARK    3  A    between atoms: N_6  and  C_7
REMARK    4  A    between atoms: N_13  and  C_14
REMARK    5  A    between atoms: C_22  and  N_23
REMARK    6  A    between atoms: C_24  and  C_25
REMARK    7  A    between atoms: C_28  and  C_29
REMARK                            x       y       z     vdW  Elec       q    Type
REMARK                         _______ _______ _______ _____ _____    ______ ____
ROOT
ATOM      1  C   UNL     1       1.537   6.840  19.984  0.00  0.00    +0.000 C 
ATOM      2  C   UNL     1       2.501   6.797  18.852  0.00  0.00    +0.000 A 
ATOM      3  C   UNL     1       2.765   7.898  17.968  0.00  0.00    +0.000 A 
ATOM      4  N   UNL     1       3.819   7.624  17.177  0.00  0.00    +0.000 NA
ATOM      5  N   UNL     1       4.075   6.299  17.365  0.00  0.00    +0.000 N 
ATOM      6  C   UNL     1       3.393   5.791  18.467  0.00  0.00    +0.000 A 
ENDROOT
BRANCH   5   7
ATOM      7  C   UNL     1       4.909   5.665  16.405  0.00  0.00    +0.000 A 
ATOM      8  C   UNL     1       4.400   4.573  15.674  0.00  0.00    +0.000 A 
ATOM      9  C   UNL     1       5.175   3.981  14.674  0.00  0.00    +0.000 A 
ATOM     10  C   UNL     1       6.454   4.464  14.420  0.00  0.00    +0.000 A 
ATOM     11  F   UNL     1       7.186   3.914  13.445  0.00  0.00    +0.000 F 
ATOM     12  C   UNL     1       6.985   5.511  15.165  0.00  0.00    +0.000 A 
ATOM     13  C   UNL     1       6.213   6.099  16.169  0.00  0.00    +0.000 A 
ATOM     14  F   UNL     1       6.776   7.062  16.907  0.00  0.00    +0.000 F 
ENDBRANCH   5   7
BRANCH   6  15
ATOM     15  N   UNL     1       3.645   4.529  19.070  0.00  0.00    +0.000 N 
ATOM     16  C   UNL     1       4.886   4.031  19.520  0.00  0.00    +0.000 A 
ATOM     17  C   UNL     1       6.188   4.758  19.567  0.00  0.00    +0.000 C 
ATOM     18  C   UNL     1       4.720   2.738  19.976  0.00  0.00    +0.000 A 
ATOM     19  C   UNL     1       3.363   2.431  19.905  0.00  0.00    +0.000 A 
ATOM     20  C   UNL     1       2.710   3.515  19.351  0.00  0.00    +0.000 A 
ATOM     21  C   UNL     1       1.263   3.517  19.003  0.00  0.00    +0.000 C 
ENDBRANCH   6  15
BRANCH   3  22
ATOM     22  C   UNL     1       2.084   9.224  17.894  0.00  0.00    +0.000 C 
ATOM     23  O   UNL     1       2.673  10.275  17.666  0.00  0.00    +0.000 OA
ATOM     24  N   UNL     1       0.725   9.155  18.139  0.00  0.00    +0.000 N 
ATOM     25  H   UNL     1       0.387   8.213  18.316  0.00  0.00    +0.000 HD
BRANCH  24  26
ATOM     26  C   UNL     1      -0.229  10.240  18.140  0.00  0.00    +0.000 C 
ATOM     27  C   UNL     1      -1.542  10.003  17.395  0.00  0.00    +0.000 C 
ATOM     28  C   UNL     1      -2.392  11.208  17.797  0.00  0.00    +0.000 C 
ATOM     29  C   UNL     1      -1.927  11.593  19.204  0.00  0.00    +0.000 C 
ATOM     30  C   UNL     1      -0.714  10.711  19.511  0.00  0.00    +0.000 C 
ENDBRANCH  24  26
ENDBRANCH   3  22
TORSDOF 4
ENDMDL
MODEL 7
REMARK VINA RESULT:      -7.5      6.174      8.734
REMARK  Name = 
REMARK  7 active torsions:
REMARK  status: ('A' for Active; 'I' for Inactive)
REMARK    1  A    between atoms: C_1  and  C_2
REMARK    2  A    between atoms: C_3  and  C_4
REMARK    3  A    between atoms: N_6  and  C_7
REMARK    4  A    between atoms: N_13  and  C_14
REMARK    5  A    between atoms: C_22  and  N_23
REMARK    6  A    between atoms: C_24  and  C_25
REMARK    7  A    between atoms: C_28  and  C_29
REMARK                            x       y       z     vdW  Elec       q    Type
REMARK                         _______ _______ _______ _____ _____    ______ ____
ROOT
ATOM      1  C   UNL     1       1.865  14.447  21.721  0.00  0.00    +0.000 C 
ATOM      2  C   UNL     1       1.310  13.723  20.547  0.00  0.00    +0.000 A 
ATOM      3  C   UNL     1       1.751  13.914  19.193  0.00  0.00    +0.000 A 
ATOM      4  N   UNL     1       1.209  12.984  18.386  0.00  0.00    +0.000 NA
ATOM      5  N   UNL     1       0.257  12.365  19.139  0.00  0.00    +0.000 N 
ATOM      6  C   UNL     1       0.376  12.685  20.488  0.00  0.00    +0.000 A 
ENDROOT
BRANCH   5   7
ATOM      7  C   UNL     1      -0.702  11.580  18.442  0.00  0.00    +0.000 A 
ATOM      8  C   UNL     1      -1.994  12.103  18.240  0.00  0.00    +0.000 A 
ATOM      9  C   UNL     1      -2.930  11.382  17.494  0.00  0.00    +0.000 A 
ATOM     10  C   UNL     1      -2.582  10.141  16.972  0.00  0.00    +0.000 A 
ATOM     11  F   UNL     1      -3.469   9.462  16.236  0.00  0.00    +0.000 F 
ATOM     12  C   UNL     1      -1.324   9.594  17.202  0.00  0.00    +0.000 A 
ATOM     13  C   UNL     1      -0.391  10.312  17.953  0.00  0.00    +0.000 A 
ATOM     14  F   UNL     1       0.786   9.730  18.208  0.00  0.00    +0.000 F 
ENDBRANCH   5   7
BRANCH   6  15
ATOM     15  N   UNL     1      -0.293  12.011  21.547  0.00  0.00    +0.000 N 
ATOM     16  C   UNL     1      -1.338  12.513  22.352  0.00  0.00    +0.000 A 
ATOM     17  C   UNL     1      -2.051  13.814  22.200  0.00  0.00    +0.000 C 
ATOM     18  C   UNL     1      -1.662  11.576  23.314  0.00  0.00    +0.000 A 
ATOM     19  C   UNL     1      -0.891  10.439  23.079  0.00  0.00    +0.000 A 
ATOM     20  C   UNL     1      -0.057  10.704  22.011  0.00  0.00    +0.000 A 
ATOM     21  C   UNL     1       1.001   9.770  21.539  0.00  0.00    +0.000 C 
ENDBRANCH   6  15
BRANCH   3  22
ATOM     22  C   UNL     1       2.717  14.918  18.655  0.00  0.00    +0.000 C 
ATOM     23  O   UNL     1       2.376  15.995  18.181  0.00  0.00    +0.000 OA
ATOM     24  N   UNL     1       4.032  14.497  18.715  0.00  0.00    +0.000 N 
ATOM     25  H   UNL     1       4.151  13.578  19.130  0.00  0.00    +0.000 HD
BRANCH  24  26
ATOM     26  C   UNL     1       5.210  15.218  18.288  0.00  0.00    +0.000 C 
ATOM     27  C   UNL     1       5.870  16.130  19.321  0.00  0.00    +0.000 C 
ATOM     28  C   UNL     1       7.183  16.525  18.647  0.00  0.00    +0.000 C 
ATOM     29  C   UNL     1       7.566  15.341  17.757  0.00  0.00    +0.000 C 
ATOM     30  C   UNL     1       6.386  14.366  17.810  0.00  0.00    +0.000 C 
ENDBRANCH  24  26
ENDBRANCH   3  22
TORSDOF 4
ENDMDL
MODEL 8
REMARK VINA RESULT:      -7.5      6.257      8.760
REMARK  Name = 
REMARK  7 active torsions:
REMARK  status: ('A' for Active; 'I' for Inactive)
REMARK    1  A    between atoms: C_1  and  C_2
REMARK    2  A    between atoms: C_3  and  C_4
REMARK    3  A    between atoms: N_6  and  C_7
REMARK    4  A    between atoms: N_13  and  C_14
REMARK    5  A    between atoms: C_22  and  N_23
REMARK    6  A    between atoms: C_24  and  C_25
REMARK    7  A    between atoms: C_28  and  C_29
REMARK                            x       y       z     vdW  Elec       q    Type
REMARK                         _______ _______ _______ _____ _____    ______ ____
ROOT
ATOM      1  C   UNL     1       1.739  14.674  21.742  0.00  0.00    +0.000 C 
ATOM      2  C   UNL     1       1.236  13.892  20.581  0.00  0.00    +0.000 A 
ATOM      3  C   UNL     1       1.721  14.032  19.237  0.00  0.00    +0.000 A 
ATOM      4  N   UNL     1       1.220  13.059  18.452  0.00  0.00    +0.000 NA
ATOM      5  N   UNL     1       0.251  12.458  19.199  0.00  0.00    +0.000 N 
ATOM      6  C   UNL     1       0.319  12.837  20.536  0.00  0.00    +0.000 A 
ENDROOT
BRANCH   5   7
ATOM      7  C   UNL     1      -0.671  11.629  18.504  0.00  0.00    +0.000 A 
ATOM      8  C   UNL     1      -1.969  12.116  18.252  0.00  0.00    +0.000 A 
ATOM      9  C   UNL     1      -2.869  11.349  17.507  0.00  0.00    +0.000 A 
ATOM     10  C   UNL     1      -2.480  10.100  17.036  0.00  0.00    +0.000 A 
ATOM     11  F   UNL     1      -3.332   9.377  16.301  0.00  0.00    +0.000 F 
ATOM     12  C   UNL     1      -1.217   9.589  17.317  0.00  0.00    +0.000 A 
ATOM     13  C   UNL     1      -0.320  10.353  18.066  0.00  0.00    +0.000 A 
ATOM     14  F   UNL     1       0.863   9.807  18.371  0.00  0.00    +0.000 F 
ENDBRANCH   5   7
BRANCH   6  15
ATOM     15  N   UNL     1      -0.376  12.200  21.600  0.00  0.00    +0.000 N 
ATOM     16  C   UNL     1      -0.165  10.896  22.096  0.00  0.00    +0.000 A 
ATOM     17  C   UNL     1       0.907   9.939  21.695  0.00  0.00    +0.000 C 
ATOM     18  C   UNL     1      -1.094  10.627  23.083  0.00  0.00    +0.000 A 
ATOM     19  C   UNL     1      -1.847  11.782  23.285  0.00  0.00    +0.000 A 
ATOM     20  C   UNL     1      -1.416  12.735  22.383  0.00  0.00    +0.000 A 
ATOM     21  C   UNL     1      -2.065  14.064  22.212  0.00  0.00    +0.000 C 
ENDBRANCH   6  15
BRANCH   3  22
ATOM     22  C   UNL     1       2.690  15.026  18.689  0.00  0.00    +0.000 C 
ATOM     23  O   UNL     1       2.355  16.111  18.227  0.00  0.00    +0.000 OA
ATOM     24  N   UNL     1       4.001  14.589  18.723  0.00  0.00    +0.000 N 
ATOM     25  H   UNL     1       4.115  13.665  19.131  0.00  0.00    +0.000 HD
BRANCH  24  26
ATOM     26  C   UNL     1       5.181  15.297  18.282  0.00  0.00    +0.000 C 
ATOM     27  C   UNL     1       5.829  16.247  19.287  0.00  0.00    +0.000 C 
ATOM     28  C   UNL     1       7.147  16.622  18.610  0.00  0.00    +0.000 C 
ATOM     29  C   UNL     1       7.540  15.407  17.766  0.00  0.00    +0.000 C 
ATOM     30  C   UNL     1       6.362  14.432  17.844  0.00  0.00    +0.000 C 
ENDBRANCH  24  26
ENDBRANCH   3  22
TORSDOF 4
ENDMDL
MODEL 9
REMARK VINA RESULT:      -7.4      0.920      1.925
REMARK  Name = 
REMARK  7 active torsions:
REMARK  status: ('A' for Active; 'I' for Inactive)
REMARK    1  A    between atoms: C_1  and  C_2
REMARK    2  A    between atoms: C_3  and  C_4
REMARK    3  A    between atoms: N_6  and  C_7
REMARK    4  A    between atoms: N_13  and  C_14
REMARK    5  A    between atoms: C_22  and  N_23
REMARK    6  A    between atoms: C_24  and  C_25
REMARK    7  A    between atoms: C_28  and  C_29
REMARK                            x       y       z     vdW  Elec       q    Type
REMARK                         _______ _______ _______ _____ _____    ______ ____
ROOT
ATOM      1  C   UNL     1       1.472   6.561  20.507  0.00  0.00    +0.000 C 
ATOM      2  C   UNL     1       2.352   6.562  19.307  0.00  0.00    +0.000 A 
ATOM      3  C   UNL     1       2.551   7.695  18.448  0.00  0.00    +0.000 A 
ATOM      4  N   UNL     1       3.545   7.454  17.574  0.00  0.00    +0.000 NA
ATOM      5  N   UNL     1       3.815   6.123  17.694  0.00  0.00    +0.000 N 
ATOM      6  C   UNL     1       3.215   5.574  18.823  0.00  0.00    +0.000 A 
ENDROOT
BRANCH   5   7
ATOM      7  C   UNL     1       4.579   5.528  16.654  0.00  0.00    +0.000 A 
ATOM      8  C   UNL     1       5.669   6.240  16.115  0.00  0.00    +0.000 A 
ATOM      9  C   UNL     1       6.479   5.645  15.145  0.00  0.00    +0.000 A 
ATOM     10  C   UNL     1       6.191   4.358  14.704  0.00  0.00    +0.000 A 
ATOM     11  F   UNL     1       6.982   3.779  13.794  0.00  0.00    +0.000 F 
ATOM     12  C   UNL     1       5.092   3.662  15.196  0.00  0.00    +0.000 A 
ATOM     13  C   UNL     1       4.278   4.259  16.161  0.00  0.00    +0.000 A 
ATOM     14  F   UNL     1       3.194   3.587  16.567  0.00  0.00    +0.000 F 
ENDBRANCH   5   7
BRANCH   6  15
ATOM     15  N   UNL     1       3.511   4.292  19.361  0.00  0.00    +0.000 N 
ATOM     16  C   UNL     1       2.591   3.278  19.707  0.00  0.00    +0.000 A 
ATOM     17  C   UNL     1       1.117   3.281  19.481  0.00  0.00    +0.000 C 
ATOM     18  C   UNL     1       3.274   2.214  20.264  0.00  0.00    +0.000 A 
ATOM     19  C   UNL     1       4.636   2.500  20.199  0.00  0.00    +0.000 A 
ATOM     20  C   UNL     1       4.781   3.762  19.656  0.00  0.00    +0.000 A 
ATOM     21  C   UNL     1       6.087   4.466  19.539  0.00  0.00    +0.000 C 
ENDBRANCH   6  15
BRANCH   3  22
ATOM     22  C   UNL     1       1.864   9.020  18.471  0.00  0.00    +0.000 C 
ATOM     23  O   UNL     1       1.876   9.804  17.528  0.00  0.00    +0.000 OA
ATOM     24  N   UNL     1       1.239   9.292  19.673  0.00  0.00    +0.000 N 
ATOM     25  H   UNL     1       1.324   8.546  20.358  0.00  0.00    +0.000 HD
BRANCH  24  26
ATOM     26  C   UNL     1       0.485  10.472  20.031  0.00  0.00    +0.000 C 
ATOM     27  C   UNL     1      -0.913  10.603  19.428  0.00  0.00    +0.000 C 
ATOM     28  C   UNL     1      -1.508  11.789  20.185  0.00  0.00    +0.000 C 
ATOM     29  C   UNL     1      -0.857  11.766  21.570  0.00  0.00    +0.000 C 
ATOM     30  C   UNL     1       0.215  10.674  21.522  0.00  0.00    +0.000 C 
ENDBRANCH  24  26
ENDBRANCH   3  22
TORSDOF 4
ENDMDL
