MODEL 1
REMARK VINA RESULT:      -6.9      0.000      0.000
REMARK  Name = 
REMARK  4 active torsions:
REMARK  status: ('A' for Active; 'I' for Inactive)
REMARK    1  A    between atoms: C_6  and  N_7
REMARK    2  A    between atoms: N_7  and  C_8
REMARK    3  A    between atoms: C_8  and  C_9
REMARK    4  A    between atoms: C_9  and  N_10
REMARK                            x       y       z     vdW  Elec       q    Type
REMARK                         _______ _______ _______ _____ _____    ______ ____
ROOT
ATOM      1 CL   UNL     1       1.533   8.982  20.823  0.00  0.00    +0.000 Cl
ATOM      2  C   UNL     1       1.794   7.446  20.090  0.00  0.00    +0.000 A 
ATOM      3  C   UNL     1       2.284   7.368  18.792  0.00  0.00    +0.000 A 
ATOM      4  C   UNL     1       2.480   6.114  18.203  0.00  0.00    +0.000 A 
ATOM      5  C   UNL     1       2.197   4.922  18.917  0.00  0.00    +0.000 A 
ATOM      6  C   UNL     1       2.340   3.615  18.380  0.00  0.00    +0.000 A 
ATOM      7  C   UNL     1       2.072   2.528  19.224  0.00  0.00    +0.000 A 
ATOM      8  C   UNL     1       1.598   2.760  20.498  0.00  0.00    +0.000 A 
ATOM      9  N   UNL     1       1.408   3.982  21.013  0.00  0.00    +0.000 NA
ATOM     10  C   UNL     1       1.706   5.038  20.244  0.00  0.00    +0.000 A 
ATOM     11  C   UNL     1       1.510   6.289  20.805  0.00  0.00    +0.000 A 
ENDROOT
BRANCH   6  12
ATOM     12  N   UNL     1       2.820   3.422  17.043  0.00  0.00    +0.000 N 
ATOM     13  H   UNL     1       2.526   4.228  16.487  0.00  0.00    +0.000 HD
BRANCH  12  14
ATOM     14  C   UNL     1       4.283   3.234  16.954  0.00  0.00    +0.000 C 
BRANCH  14  15
ATOM     15  C   UNL     1       5.036   4.352  16.206  0.00  0.00    +0.000 C 
BRANCH  15  16
ATOM     16  N   UNL     1       5.727   5.280  17.140  0.00  0.00    +0.000 NA
ATOM     17  C   UNL     1       6.096   4.595  18.389  0.00  0.00    +0.000 C 
ATOM     18  C   UNL     1       6.721   5.564  19.399  0.00  0.00    +0.000 C 
ATOM     19  C   UNL     1       7.922   6.293  18.809  0.00  0.00    +0.000 C 
ATOM     20  C   UNL     1       7.538   6.947  17.491  0.00  0.00    +0.000 C 
ATOM     21  C   UNL     1       6.897   5.939  16.537  0.00  0.00    +0.000 C 
ENDBRANCH  15  16
ENDBRANCH  14  15
ENDBRANCH  12  14
ENDBRANCH   6  12
TORSDOF 4
ENDMDL
MODEL 2
REMARK VINA RESULT:      -6.6      2.456      4.062
REMARK  Name = 
REMARK  4 active torsions:
REMARK  status: ('A' for Active; 'I' for Inactive)
REMARK    1  A    between atoms: C_6  and  N_7
REMARK    2  A    between atoms: N_7  and  C_8
REMARK    3  A    between atoms: C_8  and  C_9
REMARK    4  A    between atoms: C_9  and  N_10
REMARK                            x       y       z     vdW  Elec       q    Type
REMARK                         _______ _______ _______ _____ _____    ______ ____
ROOT
ATOM      1 CL   UNL     1      -0.966  11.617  22.179  0.00  0.00    +0.000 Cl
ATOM      2  C   UNL     1      -0.039  10.358  21.456  0.00  0.00    +0.000 A 
ATOM      3  C   UNL     1       0.320   9.242  22.201  0.00  0.00    +0.000 A 
ATOM      4  C   UNL     1       1.084   8.232  21.605  0.00  0.00    +0.000 A 
ATOM      5  C   UNL     1       1.487   8.328  20.250  0.00  0.00    +0.000 A 
ATOM      6  C   UNL     1       2.288   7.362  19.583  0.00  0.00    +0.000 A 
ATOM      7  C   UNL     1       2.563   7.567  18.223  0.00  0.00    +0.000 A 
ATOM      8  C   UNL     1       2.131   8.724  17.611  0.00  0.00    +0.000 A 
ATOM      9  N   UNL     1       1.416   9.674  18.230  0.00  0.00    +0.000 NA
ATOM     10  C   UNL     1       1.097   9.478  19.515  0.00  0.00    +0.000 A 
ATOM     11  C   UNL     1       0.347  10.471  20.126  0.00  0.00    +0.000 A 
ENDROOT
BRANCH   6  12
ATOM     12  N   UNL     1       2.729   6.181  20.266  0.00  0.00    +0.000 N 
ATOM     13  H   UNL     1       2.134   6.057  21.087  0.00  0.00    +0.000 HD
BRANCH  12  14
ATOM     14  C   UNL     1       2.719   4.966  19.425  0.00  0.00    +0.000 C 
BRANCH  14  15
ATOM     15  C   UNL     1       4.079   4.247  19.311  0.00  0.00    +0.000 C 
BRANCH  15  16
ATOM     16  N   UNL     1       4.854   4.706  18.127  0.00  0.00    +0.000 NA
ATOM     17  C   UNL     1       6.299   4.691  18.403  0.00  0.00    +0.000 C 
ATOM     18  C   UNL     1       7.102   5.255  17.225  0.00  0.00    +0.000 C 
ATOM     19  C   UNL     1       6.793   4.516  15.929  0.00  0.00    +0.000 C 
ATOM     20  C   UNL     1       5.292   4.491  15.689  0.00  0.00    +0.000 C 
ATOM     21  C   UNL     1       4.543   3.945  16.906  0.00  0.00    +0.000 C 
ENDBRANCH  15  16
ENDBRANCH  14  15
ENDBRANCH  12  14
ENDBRANCH   6  12
TORSDOF 4
ENDMDL
MODEL 3
REMARK VINA RESULT:      -6.5      1.850      5.036
REMARK  Name = 
REMARK  4 active torsions:
REMARK  status: ('A' for Active; 'I' for Inactive)
REMARK    1  A    between atoms: C_6  and  N_7
REMARK    2  A    between atoms: N_7  and  C_8
REMARK    3  A    between atoms: C_8  and  C_9
REMARK    4  A    between atoms: C_9  and  N_10
REMARK                            x       y       z     vdW  Elec       q    Type
REMARK                         _______ _______ _______ _____ _____    ______ ____
ROOT
ATOM      1 CL   UNL     1       1.456   8.993  17.884  0.00  0.00    +0.000 Cl
ATOM      2  C   UNL     1       2.664   7.773  18.013  0.00  0.00    +0.000 A 
ATOM      3  C   UNL     1       2.577   6.809  19.010  0.00  0.00    +0.000 A 
ATOM      4  C   UNL     1       3.572   5.830  19.112  0.00  0.00    +0.000 A 
ATOM      5  C   UNL     1       4.661   5.803  18.205  0.00  0.00    +0.000 A 
ATOM      6  C   UNL     1       5.725   4.863  18.262  0.00  0.00    +0.000 A 
ATOM      7  C   UNL     1       6.708   4.927  17.263  0.00  0.00    +0.000 A 
ATOM      8  C   UNL     1       6.660   5.939  16.328  0.00  0.00    +0.000 A 
ATOM      9  N   UNL     1       5.694   6.867  16.282  0.00  0.00    +0.000 NA
ATOM     10  C   UNL     1       4.716   6.798  17.194  0.00  0.00    +0.000 A 
ATOM     11  C   UNL     1       3.725   7.763  17.116  0.00  0.00    +0.000 A 
ENDROOT
BRANCH   6  12
ATOM     12  N   UNL     1       5.742   3.837  19.263  0.00  0.00    +0.000 N 
ATOM     13  H   UNL     1       5.307   4.218  20.105  0.00  0.00    +0.000 HD
BRANCH  12  14
ATOM     14  C   UNL     1       5.075   2.586  18.849  0.00  0.00    +0.000 C 
BRANCH  14  15
ATOM     15  C   UNL     1       4.428   1.787  19.998  0.00  0.00    +0.000 C 
BRANCH  15  16
ATOM     16  N   UNL     1       2.968   2.052  20.108  0.00  0.00    +0.000 NA
ATOM     17  C   UNL     1       2.684   3.001  21.196  0.00  0.00    +0.000 C 
ATOM     18  C   UNL     1       1.176   3.207  21.384  0.00  0.00    +0.000 C 
ATOM     19  C   UNL     1       0.504   3.651  20.090  0.00  0.00    +0.000 C 
ATOM     20  C   UNL     1       0.855   2.691  18.964  0.00  0.00    +0.000 C 
ATOM     21  C   UNL     1       2.369   2.506  18.843  0.00  0.00    +0.000 C 
ENDBRANCH  15  16
ENDBRANCH  14  15
ENDBRANCH  12  14
ENDBRANCH   6  12
TORSDOF 4
ENDMDL
MODEL 4
REMARK VINA RESULT:      -6.4      2.085      5.423
REMARK  Name = 
REMARK  4 active torsions:
REMARK  status: ('A' for Active; 'I' for Inactive)
REMARK    1  A    between atoms: C_6  and  N_7
REMARK    2  A    between atoms: N_7  and  C_8
REMARK    3  A    between atoms: C_8  and  C_9
REMARK    4  A    between atoms: C_9  and  N_10
REMARK                            x       y       z     vdW  Elec       q    Type
REMARK                         _______ _______ _______ _____ _____    ______ ____
ROOT
ATOM      1 CL   UNL     1       8.739   8.410  18.675  0.00  0.00    +0.000 Cl
ATOM      2  C   UNL     1       7.725   7.097  18.214  0.00  0.00    +0.000 A 
ATOM      3  C   UNL     1       7.225   6.231  19.179  0.00  0.00    +0.000 A 
ATOM      4  C   UNL     1       6.412   5.160  18.790  0.00  0.00    +0.000 A 
ATOM      5  C   UNL     1       6.083   4.954  17.427  0.00  0.00    +0.000 A 
ATOM      6  C   UNL     1       5.291   3.875  16.949  0.00  0.00    +0.000 A 
ATOM      7  C   UNL     1       5.005   3.831  15.577  0.00  0.00    +0.000 A 
ATOM      8  C   UNL     1       5.567   4.768  14.737  0.00  0.00    +0.000 A 
ATOM      9  N   UNL     1       6.357   5.767  15.155  0.00  0.00    +0.000 NA
ATOM     10  C   UNL     1       6.604   5.862  16.467  0.00  0.00    +0.000 A 
ATOM     11  C   UNL     1       7.414   6.910  16.872  0.00  0.00    +0.000 A 
ENDROOT
BRANCH   6  12
ATOM     12  N   UNL     1       4.741   2.913  17.859  0.00  0.00    +0.000 N 
ATOM     13  H   UNL     1       4.695   3.349  18.782  0.00  0.00    +0.000 HD
BRANCH  12  14
ATOM     14  C   UNL     1       3.415   2.400  17.457  0.00  0.00    +0.000 C 
BRANCH  14  15
ATOM     15  C   UNL     1       2.267   3.425  17.556  0.00  0.00    +0.000 C 
BRANCH  15  16
ATOM     16  N   UNL     1       2.472   4.385  18.674  0.00  0.00    +0.000 NA
ATOM     17  C   UNL     1       2.426   5.775  18.192  0.00  0.00    +0.000 C 
ATOM     18  C   UNL     1       2.733   6.770  19.317  0.00  0.00    +0.000 C 
ATOM     19  C   UNL     1       1.800   6.580  20.506  0.00  0.00    +0.000 C 
ATOM     20  C   UNL     1       1.816   5.128  20.955  0.00  0.00    +0.000 C 
ATOM     21  C   UNL     1       1.530   4.182  19.786  0.00  0.00    +0.000 C 
ENDBRANCH  15  16
ENDBRANCH  14  15
ENDBRANCH  12  14
ENDBRANCH   6  12
TORSDOF 4
ENDMDL
MODEL 5
REMARK VINA RESULT:      -6.3      1.161      1.211
REMARK  Name = 
REMARK  4 active torsions:
REMARK  status: ('A' for Active; 'I' for Inactive)
REMARK    1  A    between atoms: C_6  and  N_7
REMARK    2  A    between atoms: N_7  and  C_8
REMARK    3  A    between atoms: C_8  and  C_9
REMARK    4  A    between atoms: C_9  and  N_10
REMARK                            x       y       z     vdW  Elec       q    Type
REMARK                         _______ _______ _______ _____ _____    ______ ____
ROOT
ATOM      1 CL   UNL     1       1.426   8.041  20.900  0.00  0.00    +0.000 Cl
ATOM      2  C   UNL     1       2.016   6.589  20.187  0.00  0.00    +0.000 A 
ATOM      3  C   UNL     1       3.278   6.562  19.607  0.00  0.00    +0.000 A 
ATOM      4  C   UNL     1       3.741   5.379  19.019  0.00  0.00    +0.000 A 
ATOM      5  C   UNL     1       2.945   4.206  19.019  0.00  0.00    +0.000 A 
ATOM      6  C   UNL     1       3.330   2.978  18.417  0.00  0.00    +0.000 A 
ATOM      7  C   UNL     1       2.459   1.887  18.543  0.00  0.00    +0.000 A 
ATOM      8  C   UNL     1       1.237   2.062  19.157  0.00  0.00    +0.000 A 
ATOM      9  N   UNL     1       0.829   3.222  19.689  0.00  0.00    +0.000 NA
ATOM     10  C   UNL     1       1.664   4.267  19.627  0.00  0.00    +0.000 A 
ATOM     11  C   UNL     1       1.220   5.450  20.195  0.00  0.00    +0.000 A 
ENDROOT
BRANCH   6  12
ATOM     12  N   UNL     1       4.605   2.847  17.775  0.00  0.00    +0.000 N 
ATOM     13  H   UNL     1       4.796   1.849  17.663  0.00  0.00    +0.000 HD
BRANCH  12  14
ATOM     14  C   UNL     1       4.695   3.545  16.476  0.00  0.00    +0.000 C 
BRANCH  14  15
ATOM     15  C   UNL     1       6.075   4.159  16.166  0.00  0.00    +0.000 C 
BRANCH  15  16
ATOM     16  N   UNL     1       6.438   5.231  17.132  0.00  0.00    +0.000 NA
ATOM     17  C   UNL     1       7.525   4.793  18.022  0.00  0.00    +0.000 C 
ATOM     18  C   UNL     1       7.841   5.852  19.086  0.00  0.00    +0.000 C 
ATOM     19  C   UNL     1       8.169   7.200  18.456  0.00  0.00    +0.000 C 
ATOM     20  C   UNL     1       7.064   7.610  17.495  0.00  0.00    +0.000 C 
ATOM     21  C   UNL     1       6.775   6.505  16.477  0.00  0.00    +0.000 C 
ENDBRANCH  15  16
ENDBRANCH  14  15
ENDBRANCH  12  14
ENDBRANCH   6  12
TORSDOF 4
ENDMDL
MODEL 6
REMARK VINA RESULT:      -6.3      2.827      6.598
REMARK  Name = 
REMARK  4 active torsions:
REMARK  status: ('A' for Active; 'I' for Inactive)
REMARK    1  A    between atoms: C_6  and  N_7
REMARK    2  A    between atoms: N_7  and  C_8
REMARK    3  A    between atoms: C_8  and  C_9
REMARK    4  A    between atoms: C_9  and  N_10
REMARK                            x       y       z     vdW  Elec       q    Type
REMARK                         _______ _______ _______ _____ _____    ______ ____
ROOT
ATOM      1 CL   UNL     1       6.249   3.282  12.720  0.00  0.00    +0.000 Cl
ATOM      2  C   UNL     1       6.064   3.987  14.280  0.00  0.00    +0.000 A 
ATOM      3  C   UNL     1       5.022   3.585  15.107  0.00  0.00    +0.000 A 
ATOM      4  C   UNL     1       4.875   4.176  16.368  0.00  0.00    +0.000 A 
ATOM      5  C   UNL     1       5.781   5.170  16.815  0.00  0.00    +0.000 A 
ATOM      6  C   UNL     1       5.682   5.837  18.066  0.00  0.00    +0.000 A 
ATOM      7  C   UNL     1       6.683   6.762  18.395  0.00  0.00    +0.000 A 
ATOM      8  C   UNL     1       7.665   7.055  17.472  0.00  0.00    +0.000 A 
ATOM      9  N   UNL     1       7.753   6.476  16.267  0.00  0.00    +0.000 NA
ATOM     10  C   UNL     1       6.838   5.552  15.948  0.00  0.00    +0.000 A 
ATOM     11  C   UNL     1       6.961   4.962  14.701  0.00  0.00    +0.000 A 
ENDROOT
BRANCH   6  12
ATOM     12  N   UNL     1       4.633   5.511  18.987  0.00  0.00    +0.000 N 
ATOM     13  H   UNL     1       4.945   5.782  19.922  0.00  0.00    +0.000 HD
BRANCH  12  14
ATOM     14  C   UNL     1       3.337   6.142  18.666  0.00  0.00    +0.000 C 
BRANCH  14  15
ATOM     15  C   UNL     1       2.328   6.178  19.832  0.00  0.00    +0.000 C 
BRANCH  15  16
ATOM     16  N   UNL     1       1.612   4.883  19.990  0.00  0.00    +0.000 NA
ATOM     17  C   UNL     1       1.560   4.150  18.715  0.00  0.00    +0.000 C 
ATOM     18  C   UNL     1       0.740   2.861  18.841  0.00  0.00    +0.000 C 
ATOM     19  C   UNL     1       1.266   1.967  19.957  0.00  0.00    +0.000 C 
ATOM     20  C   UNL     1       1.368   2.756  21.253  0.00  0.00    +0.000 C 
ATOM     21  C   UNL     1       2.173   4.042  21.059  0.00  0.00    +0.000 C 
ENDBRANCH  15  16
ENDBRANCH  14  15
ENDBRANCH  12  14
ENDBRANCH   6  12
TORSDOF 4
ENDMDL
MODEL 7
REMARK VINA RESULT:      -6.3      2.973      6.350
REMARK  Name = 
REMARK  4 active torsions:
REMARK  status: ('A' for Active; 'I' for Inactive)
REMARK    1  A    between atoms: C_6  and  N_7
REMARK    2  A    between atoms: N_7  and  C_8
REMARK    3  A    between atoms: C_8  and  C_9
REMARK    4  A    between atoms: C_9  and  N_10
REMARK                            x       y       z     vdW  Elec       q    Type
REMARK                         _______ _______ _______ _____ _____    ______ ____
ROOT
ATOM      1 CL   UNL     1       6.653   3.516  12.477  0.00  0.00    +0.000 Cl
ATOM      2  C   UNL     1       6.373   4.329  13.969  0.00  0.00    +0.000 A 
ATOM      3  C   UNL     1       5.316   5.223  14.087  0.00  0.00    +0.000 A 
ATOM      4  C   UNL     1       5.107   5.887  15.302  0.00  0.00    +0.000 A 
ATOM      5  C   UNL     1       5.952   5.650  16.415  0.00  0.00    +0.000 A 
ATOM      6  C   UNL     1       5.825   6.306  17.669  0.00  0.00    +0.000 A 
ATOM      7  C   UNL     1       6.703   5.929  18.696  0.00  0.00    +0.000 A 
ATOM      8  C   UNL     1       7.702   5.017  18.433  0.00  0.00    +0.000 A 
ATOM      9  N   UNL     1       7.875   4.421  17.245  0.00  0.00    +0.000 NA
ATOM     10  C   UNL     1       7.018   4.725  16.262  0.00  0.00    +0.000 A 
ATOM     11  C   UNL     1       7.213   4.085  15.049  0.00  0.00    +0.000 A 
ENDROOT
BRANCH   6  12
ATOM     12  N   UNL     1       4.779   7.261  17.892  0.00  0.00    +0.000 N 
ATOM     13  H   UNL     1       4.820   7.948  17.137  0.00  0.00    +0.000 HD
BRANCH  12  14
ATOM     14  C   UNL     1       3.432   6.662  17.982  0.00  0.00    +0.000 C 
BRANCH  14  15
ATOM     15  C   UNL     1       3.043   6.149  19.383  0.00  0.00    +0.000 C 
BRANCH  15  16
ATOM     16  N   UNL     1       2.616   4.724  19.356  0.00  0.00    +0.000 NA
ATOM     17  C   UNL     1       1.494   4.491  20.279  0.00  0.00    +0.000 C 
ATOM     18  C   UNL     1       1.110   3.008  20.334  0.00  0.00    +0.000 C 
ATOM     19  C   UNL     1       0.792   2.459  18.949  0.00  0.00    +0.000 C 
ATOM     20  C   UNL     1       1.937   2.758  17.994  0.00  0.00    +0.000 C 
ATOM     21  C   UNL     1       2.292   4.246  18.003  0.00  0.00    +0.000 C 
ENDBRANCH  15  16
ENDBRANCH  14  15
ENDBRANCH  12  14
ENDBRANCH   6  12
TORSDOF 4
ENDMDL
MODEL 8
REMARK VINA RESULT:      -6.3      2.691      4.291
REMARK  Name = 
REMARK  4 active torsions:
REMARK  status: ('A' for Active; 'I' for Inactive)
REMARK    1  A    between atoms: C_6  and  N_7
REMARK    2  A    between atoms: N_7  and  C_8
REMARK    3  A    between atoms: C_8  and  C_9
REMARK    4  A    between atoms: C_9  and  N_10
REMARK                            x       y       z     vdW  Elec       q    Type
REMARK                         _______ _______ _______ _____ _____    ______ ____
ROOT
ATOM      1 CL   UNL     1      -1.247  11.589  22.623  0.00  0.00    +0.000 Cl
ATOM      2  C   UNL     1      -0.312  10.437  21.749  0.00  0.00    +0.000 A 
ATOM      3  C   UNL     1      -0.028   9.199  22.312  0.00  0.00    +0.000 A 
ATOM      4  C   UNL     1       0.743   8.276  21.596  0.00  0.00    +0.000 A 
ATOM      5  C   UNL     1       1.230   8.584  20.301  0.00  0.00    +0.000 A 
ATOM      6  C   UNL     1       2.044   7.715  19.525  0.00  0.00    +0.000 A 
ATOM      7  C   UNL     1       2.406   8.135  18.237  0.00  0.00    +0.000 A 
ATOM      8  C   UNL     1       2.043   9.394  17.808  0.00  0.00    +0.000 A 
ATOM      9  N   UNL     1       1.318  10.252  18.538  0.00  0.00    +0.000 NA
ATOM     10  C   UNL     1       0.916   9.855  19.752  0.00  0.00    +0.000 A 
ATOM     11  C   UNL     1       0.158  10.757  20.481  0.00  0.00    +0.000 A 
ENDROOT
BRANCH   6  12
ATOM     12  N   UNL     1       2.410   6.421  20.020  0.00  0.00    +0.000 N 
ATOM     13  H   UNL     1       1.631   5.786  19.838  0.00  0.00    +0.000 HD
BRANCH  12  14
ATOM     14  C   UNL     1       3.661   5.891  19.441  0.00  0.00    +0.000 C 
BRANCH  14  15
ATOM     15  C   UNL     1       3.474   5.021  18.181  0.00  0.00    +0.000 C 
BRANCH  15  16
ATOM     16  N   UNL     1       4.774   4.558  17.625  0.00  0.00    +0.000 NA
ATOM     17  C   UNL     1       4.686   4.363  16.169  0.00  0.00    +0.000 C 
ATOM     18  C   UNL     1       5.990   3.793  15.599  0.00  0.00    +0.000 C 
ATOM     19  C   UNL     1       7.188   4.664  15.955  0.00  0.00    +0.000 C 
ATOM     20  C   UNL     1       7.230   4.902  17.456  0.00  0.00    +0.000 C 
ATOM     21  C   UNL     1       5.896   5.445  17.970  0.00  0.00    +0.000 C 
ENDBRANCH  15  16
ENDBRANCH  14  15
ENDBRANCH  12  14
ENDBRANCH   6  12
TORSDOF 4
ENDMDL
MODEL 9
REMARK VINA RESULT:      -6.2      3.600      6.693
REMARK  Name = 
REMARK  4 active torsions:
REMARK  status: ('A' for Active; 'I' for Inactive)
REMARK    1  A    between atoms: C_6  and  N_7
REMARK    2  A    between atoms: N_7  and  C_8
REMARK    3  A    between atoms: C_8  and  C_9
REMARK    4  A    between atoms: C_9  and  N_10
REMARK                            x       y       z     vdW  Elec       q    Type
REMARK                         _______ _______ _______ _____ _____    ______ ____
ROOT
ATOM      1 CL   UNL     1       6.041   4.096  14.738  0.00  0.00    +0.000 Cl
ATOM      2  C   UNL     1       5.071   4.638  16.054  0.00  0.00    +0.000 A 
ATOM      3  C   UNL     1       5.259   5.910  16.580  0.00  0.00    +0.000 A 
ATOM      4  C   UNL     1       4.472   6.333  17.658  0.00  0.00    +0.000 A 
ATOM      5  C   UNL     1       3.480   5.485  18.212  0.00  0.00    +0.000 A 
ATOM      6  C   UNL     1       2.665   5.829  19.324  0.00  0.00    +0.000 A 
ATOM      7  C   UNL     1       1.688   4.908  19.728  0.00  0.00    +0.000 A 
ATOM      8  C   UNL     1       1.613   3.681  19.103  0.00  0.00    +0.000 A 
ATOM      9  N   UNL     1       2.403   3.313  18.085  0.00  0.00    +0.000 NA
ATOM     10  C   UNL     1       3.310   4.195  17.646  0.00  0.00    +0.000 A 
ATOM     11  C   UNL     1       4.104   3.792  16.585  0.00  0.00    +0.000 A 
ENDROOT
BRANCH   6  12
ATOM     12  N   UNL     1       2.790   7.111  19.953  0.00  0.00    +0.000 N 
ATOM     13  H   UNL     1       3.083   7.781  19.240  0.00  0.00    +0.000 HD
BRANCH  12  14
ATOM     14  C   UNL     1       1.557   7.570  20.626  0.00  0.00    +0.000 C 
BRANCH  14  15
ATOM     15  C   UNL     1       0.994   8.907  20.104  0.00  0.00    +0.000 C 
BRANCH  15  16
ATOM     16  N   UNL     1       0.583   9.810  21.213  0.00  0.00    +0.000 NA
ATOM     17  C   UNL     1      -0.075  11.019  20.693  0.00  0.00    +0.000 C 
ATOM     18  C   UNL     1      -0.415  12.002  21.820  0.00  0.00    +0.000 C 
ATOM     19  C   UNL     1      -1.265  11.346  22.901  0.00  0.00    +0.000 C 
ATOM     20  C   UNL     1      -0.599  10.069  23.385  0.00  0.00    +0.000 C 
ATOM     21  C   UNL     1      -0.260   9.141  22.216  0.00  0.00    +0.000 C 
ENDBRANCH  15  16
ENDBRANCH  14  15
ENDBRANCH  12  14
ENDBRANCH   6  12
TORSDOF 4
ENDMDL
