MODEL 1
REMARK VINA RESULT:      -8.0      0.000      0.000
REMARK  Name = 
REMARK  6 active torsions:
REMARK  status: ('A' for Active; 'I' for Inactive)
REMARK    1  A    between atoms: C_1  and  C_2
REMARK    2  A    between atoms: C_2  and  S_3
REMARK    3  A    between atoms: C_2  and  C_10
REMARK    4  A    between atoms: S_3  and  C_4
REMARK    5  A    between atoms: N_8  and  C_9
REMARK    6  A    between atoms: C_14  and  N_15
REMARK                            x       y       z     vdW  Elec       q    Type
REMARK                         _______ _______ _______ _____ _____    ______ ____
ROOT
ATOM      1  C   UNL     1       4.275   4.645  16.814  0.00  0.00    +0.000 A 
ATOM      2  C   UNL     1       3.466   3.520  16.665  0.00  0.00    +0.000 A 
ATOM      3  C   UNL     1       2.292   3.396  17.416  0.00  0.00    +0.000 A 
ATOM      4  C   UNL     1       1.889   4.401  18.307  0.00  0.00    +0.000 A 
ATOM      5  C   UNL     1       2.656   5.545  18.445  0.00  0.00    +0.000 A 
ATOM      6  C   UNL     1       3.869   5.607  17.746  0.00  0.00    +0.000 A 
ENDROOT
BRANCH   5   7
ATOM      7  N   UNL     1       2.257   6.686  19.178  0.00  0.00    +0.000 N 
ATOM      8  C   UNL     1       2.191   7.982  18.512  0.00  0.00    +0.000 C 
ATOM      9  C   UNL     1       1.608   8.863  19.532  0.00  0.00    +0.000 A 
ATOM     10  C   UNL     1       1.340   8.163  20.689  0.00  0.00    +0.000 A 
ATOM     11  C   UNL     1       0.831   8.793  21.804  0.00  0.00    +0.000 A 
ATOM     12  C   UNL     1       0.605  10.154  21.666  0.00  0.00    +0.000 A 
ATOM     13  N   UNL     1       0.834  10.873  20.532  0.00  0.00    +0.000 NA
ATOM     14  C   UNL     1       1.335  10.197  19.477  0.00  0.00    +0.000 A 
ATOM     15 CL   UNL     1       1.612  11.132  18.068  0.00  0.00    +0.000 Cl
ATOM     16  C   UNL     1       1.696   6.744  20.465  0.00  0.00    +0.000 C 
ATOM     17  O   UNL     1       1.492   5.875  21.281  0.00  0.00    +0.000 OA
ENDBRANCH   5   7
BRANCH   1  19
ATOM     18  C   UNL     1       5.554   4.052  14.670  0.00  0.00    +0.000 C 
ATOM     19  C   UNL     1       5.526   4.866  15.974  0.00  0.00    +0.000 C 
BRANCH  19  20
ATOM     20  S   UNL     1       7.075   4.621  16.928  0.00  0.00    +0.000 S 
BRANCH  20  21
ATOM     21  C   UNL     1       7.536   6.220  17.394  0.00  0.00    +0.000 A 
ATOM     22  N   UNL     1       7.488   7.315  16.669  0.00  0.00    +0.000 NA
ATOM     23  N   UNL     1       7.916   8.363  17.455  0.00  0.00    +0.000 NA
ATOM     24  C   UNL     1       8.202   7.877  18.642  0.00  0.00    +0.000 A 
ATOM     25  N   UNL     1       7.962   6.535  18.654  0.00  0.00    +0.000 N 
ATOM     26  C   UNL     1       8.132   5.658  19.780  0.00  0.00    +0.000 C 
ENDBRANCH  20  21
ENDBRANCH  19  20
ENDBRANCH   1  19
TORSDOF 4
ENDMDL
MODEL 2
REMARK VINA RESULT:      -8.0      1.748      2.166
REMARK  Name = 
REMARK  6 active torsions:
REMARK  status: ('A' for Active; 'I' for Inactive)
REMARK    1  A    between atoms: C_1  and  C_2
REMARK    2  A    between atoms: C_2  and  S_3
REMARK    3  A    between atoms: C_2  and  C_10
REMARK    4  A    between atoms: S_3  and  C_4
REMARK    5  A    between atoms: N_8  and  C_9
REMARK    6  A    between atoms: C_14  and  N_15
REMARK                            x       y       z     vdW  Elec       q    Type
REMARK                         _______ _______ _______ _____ _____    ______ ____
ROOT
ATOM      1  C   UNL     1       4.224   4.935  17.993  0.00  0.00    +0.000 A 
ATOM      2  C   UNL     1       3.974   3.842  18.821  0.00  0.00    +0.000 A 
ATOM      3  C   UNL     1       3.141   3.983  19.936  0.00  0.00    +0.000 A 
ATOM      4  C   UNL     1       2.520   5.204  20.231  0.00  0.00    +0.000 A 
ATOM      5  C   UNL     1       2.722   6.295  19.403  0.00  0.00    +0.000 A 
ATOM      6  C   UNL     1       3.627   6.152  18.342  0.00  0.00    +0.000 A 
ENDROOT
BRANCH   5   7
ATOM      7  N   UNL     1       2.015   7.514  19.507  0.00  0.00    +0.000 N 
ATOM      8  C   UNL     1       1.451   7.912  20.792  0.00  0.00    +0.000 C 
ATOM      9  C   UNL     1       0.939   9.266  20.539  0.00  0.00    +0.000 A 
ATOM     10  C   UNL     1       1.182   9.644  19.236  0.00  0.00    +0.000 A 
ATOM     11  C   UNL     1       0.748  10.860  18.753  0.00  0.00    +0.000 A 
ATOM     12  C   UNL     1       0.073  11.656  19.667  0.00  0.00    +0.000 A 
ATOM     13  N   UNL     1      -0.161  11.325  20.967  0.00  0.00    +0.000 NA
ATOM     14  C   UNL     1       0.287  10.120  21.376  0.00  0.00    +0.000 A 
ATOM     15 CL   UNL     1      -0.026   9.736  23.016  0.00  0.00    +0.000 Cl
ATOM     16  C   UNL     1       1.926   8.554  18.567  0.00  0.00    +0.000 C 
ATOM     17  O   UNL     1       2.347   8.640  17.436  0.00  0.00    +0.000 OA
ENDBRANCH   5   7
BRANCH   1  19
ATOM     18  C   UNL     1       4.547   3.782  15.724  0.00  0.00    +0.000 C 
ATOM     19  C   UNL     1       5.065   4.825  16.728  0.00  0.00    +0.000 C 
BRANCH  19  20
ATOM     20  S   UNL     1       6.847   4.559  17.081  0.00  0.00    +0.000 S 
BRANCH  20  21
ATOM     21  C   UNL     1       7.441   6.140  17.448  0.00  0.00    +0.000 A 
ATOM     22  N   UNL     1       7.466   7.192  16.662  0.00  0.00    +0.000 NA
ATOM     23  N   UNL     1       7.988   8.246  17.380  0.00  0.00    +0.000 NA
ATOM     24  C   UNL     1       8.256   7.807  18.590  0.00  0.00    +0.000 A 
ATOM     25  N   UNL     1       7.913   6.491  18.682  0.00  0.00    +0.000 N 
ATOM     26  C   UNL     1       8.033   5.667  19.855  0.00  0.00    +0.000 C 
ENDBRANCH  20  21
ENDBRANCH  19  20
ENDBRANCH   1  19
TORSDOF 4
ENDMDL
MODEL 3
REMARK VINA RESULT:      -7.9      2.361      3.462
REMARK  Name = 
REMARK  6 active torsions:
REMARK  status: ('A' for Active; 'I' for Inactive)
REMARK    1  A    between atoms: C_1  and  C_2
REMARK    2  A    between atoms: C_2  and  S_3
REMARK    3  A    between atoms: C_2  and  C_10
REMARK    4  A    between atoms: S_3  and  C_4
REMARK    5  A    between atoms: N_8  and  C_9
REMARK    6  A    between atoms: C_14  and  N_15
REMARK                            x       y       z     vdW  Elec       q    Type
REMARK                         _______ _______ _______ _____ _____    ______ ____
ROOT
ATOM      1  C   UNL     1       4.570   4.938  18.039  0.00  0.00    +0.000 A 
ATOM      2  C   UNL     1       4.064   3.719  18.483  0.00  0.00    +0.000 A 
ATOM      3  C   UNL     1       2.939   3.687  19.314  0.00  0.00    +0.000 A 
ATOM      4  C   UNL     1       2.283   4.865  19.695  0.00  0.00    +0.000 A 
ATOM      5  C   UNL     1       2.744   6.088  19.236  0.00  0.00    +0.000 A 
ATOM      6  C   UNL     1       3.920   6.098  18.475  0.00  0.00    +0.000 A 
ENDROOT
BRANCH   5   7
ATOM      7  N   UNL     1       2.060   7.312  19.413  0.00  0.00    +0.000 N 
ATOM      8  C   UNL     1       1.568   7.676  20.736  0.00  0.00    +0.000 C 
ATOM      9  C   UNL     1       1.064   9.044  20.552  0.00  0.00    +0.000 A 
ATOM     10  C   UNL     1       1.248   9.461  19.251  0.00  0.00    +0.000 A 
ATOM     11  C   UNL     1       0.809  10.697  18.828  0.00  0.00    +0.000 A 
ATOM     12  C   UNL     1       0.192  11.473  19.799  0.00  0.00    +0.000 A 
ATOM     13  N   UNL     1       0.018  11.104  21.098  0.00  0.00    +0.000 NA
ATOM     14  C   UNL     1       0.467   9.880  21.447  0.00  0.00    +0.000 A 
ATOM     15 CL   UNL     1       0.230   9.448  23.087  0.00  0.00    +0.000 Cl
ATOM     16  C   UNL     1       1.941   8.383  18.511  0.00  0.00    +0.000 C 
ATOM     17  O   UNL     1       2.307   8.499  17.364  0.00  0.00    +0.000 OA
ENDBRANCH   5   7
BRANCH   1  19
ATOM     18  C   UNL     1       6.160   6.472  16.733  0.00  0.00    +0.000 C 
ATOM     19  C   UNL     1       5.749   5.031  17.078  0.00  0.00    +0.000 C 
BRANCH  19  20
ATOM     20  S   UNL     1       5.500   4.042  15.551  0.00  0.00    +0.000 S 
BRANCH  20  21
ATOM     21  C   UNL     1       6.673   4.672  14.450  0.00  0.00    +0.000 A 
ATOM     22  N   UNL     1       7.651   5.510  14.708  0.00  0.00    +0.000 NA
ATOM     23  N   UNL     1       8.360   5.708  13.543  0.00  0.00    +0.000 NA
ATOM     24  C   UNL     1       7.798   4.974  12.609  0.00  0.00    +0.000 A 
ATOM     25  N   UNL     1       6.743   4.293  13.138  0.00  0.00    +0.000 N 
ATOM     26  C   UNL     1       5.895   3.369  12.434  0.00  0.00    +0.000 C 
ENDBRANCH  20  21
ENDBRANCH  19  20
ENDBRANCH   1  19
TORSDOF 4
ENDMDL
MODEL 4
REMARK VINA RESULT:      -7.9      4.242      8.267
REMARK  Name = 
REMARK  6 active torsions:
REMARK  status: ('A' for Active; 'I' for Inactive)
REMARK    1  A    between atoms: C_1  and  C_2
REMARK    2  A    between atoms: C_2  and  S_3
REMARK    3  A    between atoms: C_2  and  C_10
REMARK    4  A    between atoms: S_3  and  C_4
REMARK    5  A    between atoms: N_8  and  C_9
REMARK    6  A    between atoms: C_14  and  N_15
REMARK                            x       y       z     vdW  Elec       q    Type
REMARK                         _______ _______ _______ _____ _____    ______ ____
ROOT
ATOM      1  C   UNL     1       0.766   9.719  20.506  0.00  0.00    +0.000 A 
ATOM      2  C   UNL     1       0.545  10.293  19.256  0.00  0.00    +0.000 A 
ATOM      3  C   UNL     1       1.080   9.700  18.107  0.00  0.00    +0.000 A 
ATOM      4  C   UNL     1       1.819   8.511  18.179  0.00  0.00    +0.000 A 
ATOM      5  C   UNL     1       2.020   7.900  19.405  0.00  0.00    +0.000 A 
ATOM      6  C   UNL     1       1.548   8.559  20.548  0.00  0.00    +0.000 A 
ENDROOT
BRANCH   5   7
ATOM      7  N   UNL     1       2.595   6.620  19.570  0.00  0.00    +0.000 N 
ATOM      8  C   UNL     1       1.920   5.629  20.400  0.00  0.00    +0.000 C 
ATOM      9  C   UNL     1       2.723   4.414  20.208  0.00  0.00    +0.000 A 
ATOM     10  C   UNL     1       3.768   4.651  19.341  0.00  0.00    +0.000 A 
ATOM     11  C   UNL     1       4.687   3.667  19.044  0.00  0.00    +0.000 A 
ATOM     12  C   UNL     1       4.473   2.447  19.667  0.00  0.00    +0.000 A 
ATOM     13  N   UNL     1       3.438   2.170  20.508  0.00  0.00    +0.000 NA
ATOM     14  C   UNL     1       2.575   3.176  20.759  0.00  0.00    +0.000 A 
ATOM     15 CL   UNL     1       1.287   2.795  21.822  0.00  0.00    +0.000 Cl
ATOM     16  C   UNL     1       3.672   6.051  18.871  0.00  0.00    +0.000 C 
ATOM     17  O   UNL     1       4.412   6.518  18.035  0.00  0.00    +0.000 OA
ENDBRANCH   5   7
BRANCH   1  19
ATOM     18  C   UNL     1      -0.468   9.213  22.697  0.00  0.00    +0.000 C 
ATOM     19  C   UNL     1       0.152  10.281  21.781  0.00  0.00    +0.000 C 
BRANCH  19  20
ATOM     20  S   UNL     1      -1.044  11.636  21.457  0.00  0.00    +0.000 S 
BRANCH  20  21
ATOM     21  C   UNL     1      -0.160  13.072  21.831  0.00  0.00    +0.000 A 
ATOM     22  N   UNL     1       1.128  13.286  21.682  0.00  0.00    +0.000 NA
ATOM     23  N   UNL     1       1.391  14.582  22.071  0.00  0.00    +0.000 NA
ATOM     24  C   UNL     1       0.251  15.124  22.436  0.00  0.00    +0.000 A 
ATOM     25  N   UNL     1      -0.754  14.216  22.286  0.00  0.00    +0.000 N 
ATOM     26  C   UNL     1      -2.147  14.445  22.559  0.00  0.00    +0.000 C 
ENDBRANCH  20  21
ENDBRANCH  19  20
ENDBRANCH   1  19
TORSDOF 4
ENDMDL
MODEL 5
REMARK VINA RESULT:      -7.8      4.130      8.347
REMARK  Name = 
REMARK  6 active torsions:
REMARK  status: ('A' for Active; 'I' for Inactive)
REMARK    1  A    between atoms: C_1  and  C_2
REMARK    2  A    between atoms: C_2  and  S_3
REMARK    3  A    between atoms: C_2  and  C_10
REMARK    4  A    between atoms: S_3  and  C_4
REMARK    5  A    between atoms: N_8  and  C_9
REMARK    6  A    between atoms: C_14  and  N_15
REMARK                            x       y       z     vdW  Elec       q    Type
REMARK                         _______ _______ _______ _____ _____    ______ ____
ROOT
ATOM      1  C   UNL     1       1.034   9.557  20.100  0.00  0.00    +0.000 A 
ATOM      2  C   UNL     1       1.162  10.360  18.969  0.00  0.00    +0.000 A 
ATOM      3  C   UNL     1       1.855   9.888  17.848  0.00  0.00    +0.000 A 
ATOM      4  C   UNL     1       2.408   8.600  17.824  0.00  0.00    +0.000 A 
ATOM      5  C   UNL     1       2.262   7.769  18.922  0.00  0.00    +0.000 A 
ATOM      6  C   UNL     1       1.639   8.296  20.062  0.00  0.00    +0.000 A 
ENDROOT
BRANCH   5   7
ATOM      7  N   UNL     1       2.625   6.404  18.939  0.00  0.00    +0.000 N 
ATOM      8  C   UNL     1       1.993   5.502  19.895  0.00  0.00    +0.000 C 
ATOM      9  C   UNL     1       2.505   4.180  19.512  0.00  0.00    +0.000 A 
ATOM     10  C   UNL     1       3.350   4.278  18.427  0.00  0.00    +0.000 A 
ATOM     11  C   UNL     1       3.990   3.169  17.917  0.00  0.00    +0.000 A 
ATOM     12  C   UNL     1       3.712   1.973  18.562  0.00  0.00    +0.000 A 
ATOM     13  N   UNL     1       2.864   1.835  19.618  0.00  0.00    +0.000 NA
ATOM     14  C   UNL     1       2.271   2.960  20.072  0.00  0.00    +0.000 A 
ATOM     15 CL   UNL     1       1.213   2.750  21.402  0.00  0.00    +0.000 Cl
ATOM     16  C   UNL     1       3.398   5.695  18.003  0.00  0.00    +0.000 C 
ATOM     17  O   UNL     1       3.998   6.071  17.023  0.00  0.00    +0.000 OA
ENDBRANCH   5   7
BRANCH   1  19
ATOM     18  C   UNL     1      -0.329   8.820  22.145  0.00  0.00    +0.000 C 
ATOM     19  C   UNL     1       0.233   9.990  21.321  0.00  0.00    +0.000 C 
BRANCH  19  20
ATOM     20  S   UNL     1      -1.091  11.195  20.912  0.00  0.00    +0.000 S 
BRANCH  20  21
ATOM     21  C   UNL     1      -0.761  12.544  21.940  0.00  0.00    +0.000 A 
ATOM     22  N   UNL     1       0.272  13.354  21.897  0.00  0.00    +0.000 NA
ATOM     23  N   UNL     1       0.105  14.308  22.878  0.00  0.00    +0.000 NA
ATOM     24  C   UNL     1      -1.033  14.056  23.484  0.00  0.00    +0.000 A 
ATOM     25  N   UNL     1      -1.620  12.965  22.916  0.00  0.00    +0.000 N 
ATOM     26  C   UNL     1      -2.887  12.397  23.289  0.00  0.00    +0.000 C 
ENDBRANCH  20  21
ENDBRANCH  19  20
ENDBRANCH   1  19
TORSDOF 4
ENDMDL
MODEL 6
REMARK VINA RESULT:      -7.8      2.252      3.370
REMARK  Name = 
REMARK  6 active torsions:
REMARK  status: ('A' for Active; 'I' for Inactive)
REMARK    1  A    between atoms: C_1  and  C_2
REMARK    2  A    between atoms: C_2  and  S_3
REMARK    3  A    between atoms: C_2  and  C_10
REMARK    4  A    between atoms: S_3  and  C_4
REMARK    5  A    between atoms: N_8  and  C_9
REMARK    6  A    between atoms: C_14  and  N_15
REMARK                            x       y       z     vdW  Elec       q    Type
REMARK                         _______ _______ _______ _____ _____    ______ ____
ROOT
ATOM      1  C   UNL     1       5.154   5.016  19.065  0.00  0.00    +0.000 A 
ATOM      2  C   UNL     1       4.656   3.755  19.386  0.00  0.00    +0.000 A 
ATOM      3  C   UNL     1       3.365   3.624  19.911  0.00  0.00    +0.000 A 
ATOM      4  C   UNL     1       2.540   4.741  20.099  0.00  0.00    +0.000 A 
ATOM      5  C   UNL     1       2.998   6.001  19.753  0.00  0.00    +0.000 A 
ATOM      6  C   UNL     1       4.323   6.114  19.309  0.00  0.00    +0.000 A 
ENDROOT
BRANCH   5   7
ATOM      7  N   UNL     1       2.194   7.163  19.737  0.00  0.00    +0.000 N 
ATOM      8  C   UNL     1       1.515   7.585  20.957  0.00  0.00    +0.000 C 
ATOM      9  C   UNL     1       0.920   8.877  20.590  0.00  0.00    +0.000 A 
ATOM     10  C   UNL     1       1.222   9.201  19.285  0.00  0.00    +0.000 A 
ATOM     11  C   UNL     1       0.731  10.350  18.702  0.00  0.00    +0.000 A 
ATOM     12  C   UNL     1      -0.063  11.138  19.521  0.00  0.00    +0.000 A 
ATOM     13  N   UNL     1      -0.361  10.862  20.821  0.00  0.00    +0.000 NA
ATOM     14  C   UNL     1       0.148   9.721  21.330  0.00  0.00    +0.000 A 
ATOM     15 CL   UNL     1      -0.247   9.404  22.967  0.00  0.00    +0.000 Cl
ATOM     16  C   UNL     1       2.091   8.139  18.732  0.00  0.00    +0.000 C 
ATOM     17  O   UNL     1       2.582   8.196  17.628  0.00  0.00    +0.000 OA
ENDBRANCH   5   7
BRANCH   1  19
ATOM     18  C   UNL     1       7.638   5.544  19.432  0.00  0.00    +0.000 C 
ATOM     19  C   UNL     1       6.523   5.213  18.426  0.00  0.00    +0.000 C 
BRANCH  19  20
ATOM     20  S   UNL     1       6.499   6.434  17.056  0.00  0.00    +0.000 S 
BRANCH  20  21
ATOM     21  C   UNL     1       6.603   5.464  15.630  0.00  0.00    +0.000 A 
ATOM     22  N   UNL     1       7.597   5.395  14.774  0.00  0.00    +0.000 NA
ATOM     23  N   UNL     1       7.265   4.465  13.811  0.00  0.00    +0.000 NA
ATOM     24  C   UNL     1       6.080   3.986  14.116  0.00  0.00    +0.000 A 
ATOM     25  N   UNL     1       5.632   4.573  15.262  0.00  0.00    +0.000 N 
ATOM     26  C   UNL     1       4.388   4.292  15.925  0.00  0.00    +0.000 C 
ENDBRANCH  20  21
ENDBRANCH  19  20
ENDBRANCH   1  19
TORSDOF 4
ENDMDL
MODEL 7
REMARK VINA RESULT:      -7.8      2.941      7.426
REMARK  Name = 
REMARK  6 active torsions:
REMARK  status: ('A' for Active; 'I' for Inactive)
REMARK    1  A    between atoms: C_1  and  C_2
REMARK    2  A    between atoms: C_2  and  S_3
REMARK    3  A    between atoms: C_2  and  C_10
REMARK    4  A    between atoms: S_3  and  C_4
REMARK    5  A    between atoms: N_8  and  C_9
REMARK    6  A    between atoms: C_14  and  N_15
REMARK                            x       y       z     vdW  Elec       q    Type
REMARK                         _______ _______ _______ _____ _____    ______ ____
ROOT
ATOM      1  C   UNL     1       1.558   7.125  20.420  0.00  0.00    +0.000 A 
ATOM      2  C   UNL     1       1.082   6.034  21.145  0.00  0.00    +0.000 A 
ATOM      3  C   UNL     1       1.424   4.733  20.761  0.00  0.00    +0.000 A 
ATOM      4  C   UNL     1       2.268   4.496  19.667  0.00  0.00    +0.000 A 
ATOM      5  C   UNL     1       2.785   5.564  18.953  0.00  0.00    +0.000 A 
ATOM      6  C   UNL     1       2.359   6.852  19.305  0.00  0.00    +0.000 A 
ENDROOT
BRANCH   5   7
ATOM      7  N   UNL     1       3.775   5.446  17.951  0.00  0.00    +0.000 N 
ATOM      8  C   UNL     1       4.944   6.316  17.988  0.00  0.00    +0.000 C 
ATOM      9  C   UNL     1       5.790   5.803  16.902  0.00  0.00    +0.000 A 
ATOM     10  C   UNL     1       5.191   4.725  16.284  0.00  0.00    +0.000 A 
ATOM     11  C   UNL     1       5.779   4.106  15.202  0.00  0.00    +0.000 A 
ATOM     12  C   UNL     1       6.997   4.635  14.804  0.00  0.00    +0.000 A 
ATOM     13  N   UNL     1       7.629   5.680  15.406  0.00  0.00    +0.000 NA
ATOM     14  C   UNL     1       7.000   6.245  16.458  0.00  0.00    +0.000 A 
ATOM     15 CL   UNL     1       7.821   7.558  17.190  0.00  0.00    +0.000 Cl
ATOM     16  C   UNL     1       3.917   4.440  16.981  0.00  0.00    +0.000 C 
ATOM     17  O   UNL     1       3.214   3.495  16.708  0.00  0.00    +0.000 OA
ENDBRANCH   5   7
BRANCH   1  19
ATOM     18  C   UNL     1       0.106   8.711  21.818  0.00  0.00    +0.000 C 
ATOM     19  C   UNL     1       1.276   8.563  20.832  0.00  0.00    +0.000 C 
BRANCH  19  20
ATOM     20  S   UNL     1       1.060   9.685  19.394  0.00  0.00    +0.000 S 
BRANCH  20  21
ATOM     21  C   UNL     1       0.789  11.234  20.109  0.00  0.00    +0.000 A 
ATOM     22  N   UNL     1       1.420  11.771  21.128  0.00  0.00    +0.000 NA
ATOM     23  N   UNL     1       0.901  13.032  21.332  0.00  0.00    +0.000 NA
ATOM     24  C   UNL     1      -0.025  13.231  20.421  0.00  0.00    +0.000 A 
ATOM     25  N   UNL     1      -0.119  12.132  19.620  0.00  0.00    +0.000 N 
ATOM     26  C   UNL     1      -1.002  11.979  18.496  0.00  0.00    +0.000 C 
ENDBRANCH  20  21
ENDBRANCH  19  20
ENDBRANCH   1  19
TORSDOF 4
ENDMDL
MODEL 8
REMARK VINA RESULT:      -7.8      0.995      1.464
REMARK  Name = 
REMARK  6 active torsions:
REMARK  status: ('A' for Active; 'I' for Inactive)
REMARK    1  A    between atoms: C_1  and  C_2
REMARK    2  A    between atoms: C_2  and  S_3
REMARK    3  A    between atoms: C_2  and  C_10
REMARK    4  A    between atoms: S_3  and  C_4
REMARK    5  A    between atoms: N_8  and  C_9
REMARK    6  A    between atoms: C_14  and  N_15
REMARK                            x       y       z     vdW  Elec       q    Type
REMARK                         _______ _______ _______ _____ _____    ______ ____
ROOT
ATOM      1  C   UNL     1       4.752   4.641  16.466  0.00  0.00    +0.000 A 
ATOM      2  C   UNL     1       4.442   3.310  16.741  0.00  0.00    +0.000 A 
ATOM      3  C   UNL     1       3.638   2.990  17.840  0.00  0.00    +0.000 A 
ATOM      4  C   UNL     1       3.107   3.989  18.668  0.00  0.00    +0.000 A 
ATOM      5  C   UNL     1       3.369   5.320  18.394  0.00  0.00    +0.000 A 
ATOM      6  C   UNL     1       4.245   5.609  17.339  0.00  0.00    +0.000 A 
ENDROOT
BRANCH   5   7
ATOM      7  N   UNL     1       2.748   6.405  19.054  0.00  0.00    +0.000 N 
ATOM      8  C   UNL     1       2.623   7.687  18.371  0.00  0.00    +0.000 C 
ATOM      9  C   UNL     1       1.811   8.491  19.295  0.00  0.00    +0.000 A 
ATOM     10  C   UNL     1       1.475   7.760  20.413  0.00  0.00    +0.000 A 
ATOM     11  C   UNL     1       0.754   8.323  21.444  0.00  0.00    +0.000 A 
ATOM     12  C   UNL     1       0.393   9.650  21.262  0.00  0.00    +0.000 A 
ATOM     13  N   UNL     1       0.686  10.394  20.160  0.00  0.00    +0.000 NA
ATOM     14  C   UNL     1       1.397   9.785  19.188  0.00  0.00    +0.000 A 
ATOM     15 CL   UNL     1       1.749  10.750  17.818  0.00  0.00    +0.000 Cl
ATOM     16  C   UNL     1       2.018   6.393  20.255  0.00  0.00    +0.000 C 
ATOM     17  O   UNL     1       1.809   5.503  21.048  0.00  0.00    +0.000 OA
ENDBRANCH   5   7
BRANCH   1  19
ATOM     18  C   UNL     1       5.193   4.290  13.963  0.00  0.00    +0.000 C 
ATOM     19  C   UNL     1       5.563   5.053  15.245  0.00  0.00    +0.000 C 
BRANCH  19  20
ATOM     20  S   UNL     1       7.374   4.989  15.541  0.00  0.00    +0.000 S 
BRANCH  20  21
ATOM     21  C   UNL     1       7.529   5.252  17.242  0.00  0.00    +0.000 A 
ATOM     22  N   UNL     1       7.695   4.351  18.183  0.00  0.00    +0.000 NA
ATOM     23  N   UNL     1       7.808   5.010  19.388  0.00  0.00    +0.000 NA
ATOM     24  C   UNL     1       7.719   6.298  19.143  0.00  0.00    +0.000 A 
ATOM     25  N   UNL     1       7.559   6.498  17.804  0.00  0.00    +0.000 N 
ATOM     26  C   UNL     1       7.449   7.771  17.147  0.00  0.00    +0.000 C 
ENDBRANCH  20  21
ENDBRANCH  19  20
ENDBRANCH   1  19
TORSDOF 4
ENDMDL
MODEL 9
REMARK VINA RESULT:      -7.8      3.720      8.235
REMARK  Name = 
REMARK  6 active torsions:
REMARK  status: ('A' for Active; 'I' for Inactive)
REMARK    1  A    between atoms: C_1  and  C_2
REMARK    2  A    between atoms: C_2  and  S_3
REMARK    3  A    between atoms: C_2  and  C_10
REMARK    4  A    between atoms: S_3  and  C_4
REMARK    5  A    between atoms: N_8  and  C_9
REMARK    6  A    between atoms: C_14  and  N_15
REMARK                            x       y       z     vdW  Elec       q    Type
REMARK                         _______ _______ _______ _____ _____    ______ ____
ROOT
ATOM      1  C   UNL     1       1.056   9.697  19.278  0.00  0.00    +0.000 A 
ATOM      2  C   UNL     1       0.739   9.367  20.594  0.00  0.00    +0.000 A 
ATOM      3  C   UNL     1       1.142   8.137  21.125  0.00  0.00    +0.000 A 
ATOM      4  C   UNL     1       1.891   7.227  20.366  0.00  0.00    +0.000 A 
ATOM      5  C   UNL     1       2.250   7.547  19.068  0.00  0.00    +0.000 A 
ATOM      6  C   UNL     1       1.763   8.747  18.532  0.00  0.00    +0.000 A 
ENDROOT
BRANCH   5   7
ATOM      7  N   UNL     1       3.143   6.786  18.280  0.00  0.00    +0.000 N 
ATOM      8  C   UNL     1       4.512   7.252  18.089  0.00  0.00    +0.000 C 
ATOM      9  C   UNL     1       5.153   6.149  17.361  0.00  0.00    +0.000 A 
ATOM     10  C   UNL     1       4.260   5.120  17.147  0.00  0.00    +0.000 A 
ATOM     11  C   UNL     1       4.623   3.995  16.439  0.00  0.00    +0.000 A 
ATOM     12  C   UNL     1       5.932   3.977  15.982  0.00  0.00    +0.000 A 
ATOM     13  N   UNL     1       6.847   4.962  16.197  0.00  0.00    +0.000 NA
ATOM     14  C   UNL     1       6.428   6.039  16.893  0.00  0.00    +0.000 A 
ATOM     15 CL   UNL     1       7.604   7.259  17.144  0.00  0.00    +0.000 Cl
ATOM     16  C   UNL     1       2.973   5.484  17.781  0.00  0.00    +0.000 C 
ATOM     17  O   UNL     1       2.024   4.735  17.825  0.00  0.00    +0.000 OA
ENDBRANCH   5   7
BRANCH   1  19
ATOM     18  C   UNL     1       1.901  12.007  18.545  0.00  0.00    +0.000 C 
ATOM     19  C   UNL     1       0.705  11.048  18.668  0.00  0.00    +0.000 C 
BRANCH  19  20
ATOM     20  S   UNL     1      -0.701  11.867  19.519  0.00  0.00    +0.000 S 
BRANCH  20  21
ATOM     21  C   UNL     1      -2.048  11.573  18.478  0.00  0.00    +0.000 A 
ATOM     22  N   UNL     1      -2.047  10.966  17.313  0.00  0.00    +0.000 NA
ATOM     23  N   UNL     1      -3.347  10.922  16.855  0.00  0.00    +0.000 NA
ATOM     24  C   UNL     1      -4.105  11.495  17.763  0.00  0.00    +0.000 A 
ATOM     25  N   UNL     1      -3.333  11.905  18.809  0.00  0.00    +0.000 N 
ATOM     26  C   UNL     1      -3.803  12.551  20.004  0.00  0.00    +0.000 C 
ENDBRANCH  20  21
ENDBRANCH  19  20
ENDBRANCH   1  19
TORSDOF 4
ENDMDL
