MODEL 1
REMARK VINA RESULT:      -7.6      0.000      0.000
REMARK  Name = 
REMARK  8 active torsions:
REMARK  status: ('A' for Active; 'I' for Inactive)
REMARK    1  A    between atoms: C_1  and  O_2
REMARK    2  A    between atoms: O_2  and  C_3
REMARK    3  A    between atoms: C_5  and  N_6
REMARK    4  A    between atoms: C_7  and  C_9
REMARK    5  A    between atoms: C_16  and  O_17
REMARK    6  A    between atoms: O_17  and  C_18
REMARK    7  A    between atoms: C_19  and  O_20
REMARK    8  A    between atoms: O_20  and  C_21
REMARK                            x       y       z     vdW  Elec       q    Type
REMARK                         _______ _______ _______ _____ _____    ______ ____
ROOT
ATOM      1  C   UNL     1       6.322   4.060  14.310  0.00  0.00    +0.000 A 
ATOM      2  C   UNL     1       5.360   3.603  15.224  0.00  0.00    +0.000 A 
ATOM      3  C   UNL     1       5.133   4.259  16.424  0.00  0.00    +0.000 A 
ATOM      4  C   UNL     1       5.966   5.322  16.765  0.00  0.00    +0.000 A 
ATOM      5  C   UNL     1       7.015   5.733  15.920  0.00  0.00    +0.000 A 
ATOM      6  C   UNL     1       7.194   5.113  14.666  0.00  0.00    +0.000 A 
ENDROOT
BRANCH   3   7
ATOM      7  N   UNL     1       4.054   3.946  17.272  0.00  0.00    +0.000 N 
ATOM      8  C   UNL     1       4.115   3.470  18.575  0.00  0.00    +0.000 C 
ATOM      9  O   UNL     1       5.125   3.360  19.266  0.00  0.00    +0.000 OA
ATOM     10  H   UNL     1       3.123   4.018  16.873  0.00  0.00    +0.000 HD
BRANCH   8  11
ATOM     11  C   UNL     1       2.776   2.920  19.083  0.00  0.00    +0.000 C 
ATOM     12  C   UNL     1       1.712   4.010  19.044  0.00  0.00    +0.000 C 
ATOM     13  C   UNL     1       0.804   3.713  20.231  0.00  0.00    +0.000 C 
ATOM     14  C   UNL     1       1.683   2.921  21.155  0.00  0.00    +0.000 C 
ATOM     15  O   UNL     1       1.443   2.618  22.308  0.00  0.00    +0.000 OA
ATOM     16  N   UNL     1       2.814   2.532  20.473  0.00  0.00    +0.000 N 
ATOM     17  H   UNL     1       3.404   1.804  20.864  0.00  0.00    +0.000 HD
ENDBRANCH   8  11
ENDBRANCH   3   7
BRANCH   1  19
ATOM     18  C   UNL     1       5.217   3.415  12.320  0.00  0.00    +0.000 C 
ATOM     19  O   UNL     1       6.425   3.461  13.083  0.00  0.00    +0.000 OA
ENDBRANCH   1  19
BRANCH   5  20
ATOM     20  O   UNL     1       7.730   6.765  16.479  0.00  0.00    +0.000 OA
ATOM     21  C   UNL     1       7.541   7.089  17.849  0.00  0.00    +0.000 C 
ENDBRANCH   5  20
BRANCH   6  22
ATOM     22  O   UNL     1       8.233   5.565  13.896  0.00  0.00    +0.000 OA
ATOM     23  C   UNL     1       8.047   5.765  12.503  0.00  0.00    +0.000 C 
ENDBRANCH   6  22
TORSDOF 5
ENDMDL
MODEL 2
REMARK VINA RESULT:      -7.5      0.242      2.843
REMARK  Name = 
REMARK  8 active torsions:
REMARK  status: ('A' for Active; 'I' for Inactive)
REMARK    1  A    between atoms: C_1  and  O_2
REMARK    2  A    between atoms: O_2  and  C_3
REMARK    3  A    between atoms: C_5  and  N_6
REMARK    4  A    between atoms: C_7  and  C_9
REMARK    5  A    between atoms: C_16  and  O_17
REMARK    6  A    between atoms: O_17  and  C_18
REMARK    7  A    between atoms: C_19  and  O_20
REMARK    8  A    between atoms: O_20  and  C_21
REMARK                            x       y       z     vdW  Elec       q    Type
REMARK                         _______ _______ _______ _____ _____    ______ ____
ROOT
ATOM      1  C   UNL     1       6.979   5.847  16.066  0.00  0.00    +0.000 A 
ATOM      2  C   UNL     1       5.834   5.572  16.830  0.00  0.00    +0.000 A 
ATOM      3  C   UNL     1       5.002   4.506  16.527  0.00  0.00    +0.000 A 
ATOM      4  C   UNL     1       5.258   3.775  15.369  0.00  0.00    +0.000 A 
ATOM      5  C   UNL     1       6.333   4.098  14.519  0.00  0.00    +0.000 A 
ATOM      6  C   UNL     1       7.222   5.135  14.871  0.00  0.00    +0.000 A 
ENDROOT
BRANCH   3   7
ATOM      7  N   UNL     1       3.961   4.084  17.376  0.00  0.00    +0.000 N 
ATOM      8  C   UNL     1       4.078   3.542  18.648  0.00  0.00    +0.000 C 
ATOM      9  O   UNL     1       5.107   3.452  19.313  0.00  0.00    +0.000 OA
ATOM     10  H   UNL     1       3.019   4.123  16.998  0.00  0.00    +0.000 HD
BRANCH   8  11
ATOM     11  C   UNL     1       2.784   2.886  19.149  0.00  0.00    +0.000 C 
ATOM     12  C   UNL     1       1.631   3.880  19.078  0.00  0.00    +0.000 C 
ATOM     13  C   UNL     1       0.735   3.525  20.259  0.00  0.00    +0.000 C 
ATOM     14  C   UNL     1       1.666   2.827  21.207  0.00  0.00    +0.000 C 
ATOM     15  O   UNL     1       1.437   2.522  22.361  0.00  0.00    +0.000 OA
ATOM     16  N   UNL     1       2.836   2.525  20.546  0.00  0.00    +0.000 N 
ATOM     17  H   UNL     1       3.480   1.857  20.956  0.00  0.00    +0.000 HD
ENDBRANCH   8  11
ENDBRANCH   3   7
BRANCH   1  19
ATOM     18  C   UNL     1       7.373   7.651  17.546  0.00  0.00    +0.000 C 
ATOM     19  O   UNL     1       7.843   6.829  16.475  0.00  0.00    +0.000 OA
ENDBRANCH   1  19
BRANCH   5  20
ATOM     20  O   UNL     1       6.365   3.276  13.419  0.00  0.00    +0.000 OA
ATOM     21  C   UNL     1       5.363   3.402  12.419  0.00  0.00    +0.000 C 
ENDBRANCH   5  20
BRANCH   6  22
ATOM     22  O   UNL     1       8.247   5.394  13.998  0.00  0.00    +0.000 OA
ATOM     23  C   UNL     1       7.959   5.782  12.664  0.00  0.00    +0.000 C 
ENDBRANCH   6  22
TORSDOF 5
ENDMDL
MODEL 3
REMARK VINA RESULT:      -7.1      1.360      1.460
REMARK  Name = 
REMARK  8 active torsions:
REMARK  status: ('A' for Active; 'I' for Inactive)
REMARK    1  A    between atoms: C_1  and  O_2
REMARK    2  A    between atoms: O_2  and  C_3
REMARK    3  A    between atoms: C_5  and  N_6
REMARK    4  A    between atoms: C_7  and  C_9
REMARK    5  A    between atoms: C_16  and  O_17
REMARK    6  A    between atoms: O_17  and  C_18
REMARK    7  A    between atoms: C_19  and  O_20
REMARK    8  A    between atoms: O_20  and  C_21
REMARK                            x       y       z     vdW  Elec       q    Type
REMARK                         _______ _______ _______ _____ _____    ______ ____
ROOT
ATOM      1  C   UNL     1       6.042   4.192  14.721  0.00  0.00    +0.000 A 
ATOM      2  C   UNL     1       4.972   4.079  15.622  0.00  0.00    +0.000 A 
ATOM      3  C   UNL     1       4.806   4.978  16.665  0.00  0.00    +0.000 A 
ATOM      4  C   UNL     1       5.795   5.935  16.876  0.00  0.00    +0.000 A 
ATOM      5  C   UNL     1       6.940   6.002  16.058  0.00  0.00    +0.000 A 
ATOM      6  C   UNL     1       7.067   5.135  14.953  0.00  0.00    +0.000 A 
ENDROOT
BRANCH   3   7
ATOM      7  N   UNL     1       3.649   5.012  17.466  0.00  0.00    +0.000 N 
ATOM      8  C   UNL     1       3.584   5.147  18.846  0.00  0.00    +0.000 C 
ATOM      9  O   UNL     1       4.520   5.391  19.603  0.00  0.00    +0.000 OA
ATOM     10  H   UNL     1       2.762   4.863  16.995  0.00  0.00    +0.000 HD
BRANCH   8  11
ATOM     11  C   UNL     1       2.203   4.809  19.423  0.00  0.00    +0.000 C 
ATOM     12  C   UNL     1       2.353   4.110  20.770  0.00  0.00    +0.000 C 
ATOM     13  C   UNL     1       1.185   3.134  20.836  0.00  0.00    +0.000 C 
ATOM     14  C   UNL     1       0.835   2.907  19.395  0.00  0.00    +0.000 C 
ATOM     15  O   UNL     1       0.080   2.063  18.952  0.00  0.00    +0.000 OA
ATOM     16  N   UNL     1       1.474   3.852  18.624  0.00  0.00    +0.000 N 
ATOM     17  H   UNL     1       1.176   3.995  17.664  0.00  0.00    +0.000 HD
ENDBRANCH   8  11
ENDBRANCH   3   7
BRANCH   1  19
ATOM     18  C   UNL     1       5.123   3.619  12.617  0.00  0.00    +0.000 C 
ATOM     19  O   UNL     1       6.097   3.363  13.632  0.00  0.00    +0.000 OA
ENDBRANCH   1  19
BRANCH   5  20
ATOM     20  O   UNL     1       7.797   6.990  16.480  0.00  0.00    +0.000 OA
ATOM     21  C   UNL     1       7.686   7.499  17.801  0.00  0.00    +0.000 C 
ENDBRANCH   5  20
BRANCH   6  22
ATOM     22  O   UNL     1       8.206   5.258  14.199  0.00  0.00    +0.000 OA
ATOM     23  C   UNL     1       8.123   5.735  12.865  0.00  0.00    +0.000 C 
ENDBRANCH   6  22
TORSDOF 5
ENDMDL
MODEL 4
REMARK VINA RESULT:      -7.0      2.462      7.058
REMARK  Name = 
REMARK  8 active torsions:
REMARK  status: ('A' for Active; 'I' for Inactive)
REMARK    1  A    between atoms: C_1  and  O_2
REMARK    2  A    between atoms: O_2  and  C_3
REMARK    3  A    between atoms: C_5  and  N_6
REMARK    4  A    between atoms: C_7  and  C_9
REMARK    5  A    between atoms: C_16  and  O_17
REMARK    6  A    between atoms: O_17  and  C_18
REMARK    7  A    between atoms: C_19  and  O_20
REMARK    8  A    between atoms: O_20  and  C_21
REMARK                            x       y       z     vdW  Elec       q    Type
REMARK                         _______ _______ _______ _____ _____    ______ ____
ROOT
ATOM      1  C   UNL     1       4.190   6.240  17.692  0.00  0.00    +0.000 A 
ATOM      2  C   UNL     1       4.695   5.833  16.447  0.00  0.00    +0.000 A 
ATOM      3  C   UNL     1       4.848   4.491  16.132  0.00  0.00    +0.000 A 
ATOM      4  C   UNL     1       4.601   3.547  17.126  0.00  0.00    +0.000 A 
ATOM      5  C   UNL     1       4.203   3.930  18.422  0.00  0.00    +0.000 A 
ATOM      6  C   UNL     1       3.975   5.291  18.715  0.00  0.00    +0.000 A 
ENDROOT
BRANCH   3   7
ATOM      7  N   UNL     1       5.165   4.042  14.836  0.00  0.00    +0.000 N 
ATOM      8  C   UNL     1       6.345   4.255  14.136  0.00  0.00    +0.000 C 
ATOM      9  O   UNL     1       7.374   4.765  14.573  0.00  0.00    +0.000 OA
ATOM     10  H   UNL     1       4.431   3.559  14.328  0.00  0.00    +0.000 HD
BRANCH   8  11
ATOM     11  C   UNL     1       6.230   3.925  12.642  0.00  0.00    +0.000 C 
ATOM     12  C   UNL     1       4.767   3.745  12.255  0.00  0.00    +0.000 C 
ATOM     13  C   UNL     1       4.779   2.684  11.162  0.00  0.00    +0.000 C 
ATOM     14  C   UNL     1       6.058   1.940  11.410  0.00  0.00    +0.000 C 
ATOM     15  O   UNL     1       6.405   0.894  10.896  0.00  0.00    +0.000 OA
ATOM     16  N   UNL     1       6.831   2.659  12.294  0.00  0.00    +0.000 N 
ATOM     17  H   UNL     1       7.814   2.428  12.397  0.00  0.00    +0.000 HD
ENDBRANCH   8  11
ENDBRANCH   3   7
BRANCH   1  19
ATOM     18  C   UNL     1       2.592   7.985  17.652  0.00  0.00    +0.000 C 
ATOM     19  O   UNL     1       3.934   7.567  17.914  0.00  0.00    +0.000 OA
ENDBRANCH   1  19
BRANCH   5  20
ATOM     20  O   UNL     1       4.062   2.838  19.244  0.00  0.00    +0.000 OA
ATOM     21  C   UNL     1       3.081   1.855  18.944  0.00  0.00    +0.000 C 
ENDBRANCH   5  20
BRANCH   6  22
ATOM     22  O   UNL     1       3.588   5.590  19.995  0.00  0.00    +0.000 OA
ATOM     23  C   UNL     1       2.223   5.472  20.367  0.00  0.00    +0.000 C 
ENDBRANCH   6  22
TORSDOF 5
ENDMDL
MODEL 5
REMARK VINA RESULT:      -6.9      1.186      1.191
REMARK  Name = 
REMARK  8 active torsions:
REMARK  status: ('A' for Active; 'I' for Inactive)
REMARK    1  A    between atoms: C_1  and  O_2
REMARK    2  A    between atoms: O_2  and  C_3
REMARK    3  A    between atoms: C_5  and  N_6
REMARK    4  A    between atoms: C_7  and  C_9
REMARK    5  A    between atoms: C_16  and  O_17
REMARK    6  A    between atoms: O_17  and  C_18
REMARK    7  A    between atoms: C_19  and  O_20
REMARK    8  A    between atoms: O_20  and  C_21
REMARK                            x       y       z     vdW  Elec       q    Type
REMARK                         _______ _______ _______ _____ _____    ______ ____
ROOT
ATOM      1  C   UNL     1       6.247   3.926  14.509  0.00  0.00    +0.000 A 
ATOM      2  C   UNL     1       5.402   3.162  15.329  0.00  0.00    +0.000 A 
ATOM      3  C   UNL     1       5.236   3.460  16.673  0.00  0.00    +0.000 A 
ATOM      4  C   UNL     1       6.021   4.468  17.229  0.00  0.00    +0.000 A 
ATOM      5  C   UNL     1       6.962   5.177  16.457  0.00  0.00    +0.000 A 
ATOM      6  C   UNL     1       7.073   4.923  15.074  0.00  0.00    +0.000 A 
ENDROOT
BRANCH   3   7
ATOM      7  N   UNL     1       4.258   2.843  17.476  0.00  0.00    +0.000 N 
ATOM      8  C   UNL     1       2.883   3.030  17.424  0.00  0.00    +0.000 C 
ATOM      9  O   UNL     1       2.264   3.670  16.578  0.00  0.00    +0.000 OA
ATOM     10  H   UNL     1       4.593   2.238  18.220  0.00  0.00    +0.000 HD
BRANCH   8  11
ATOM     11  C   UNL     1       2.149   2.470  18.649  0.00  0.00    +0.000 C 
ATOM     12  C   UNL     1       1.051   3.432  19.088  0.00  0.00    +0.000 C 
ATOM     13  C   UNL     1       0.990   3.289  20.604  0.00  0.00    +0.000 C 
ATOM     14  C   UNL     1       2.353   2.773  20.963  0.00  0.00    +0.000 C 
ATOM     15  O   UNL     1       2.825   2.677  22.079  0.00  0.00    +0.000 OA
ATOM     16  N   UNL     1       2.993   2.362  19.815  0.00  0.00    +0.000 N 
ATOM     17  H   UNL     1       3.821   1.779  19.889  0.00  0.00    +0.000 HD
ENDBRANCH   8  11
ENDBRANCH   3   7
BRANCH   1  19
ATOM     18  C   UNL     1       5.013   3.456  12.545  0.00  0.00    +0.000 C 
ATOM     19  O   UNL     1       6.283   3.679  13.162  0.00  0.00    +0.000 OA
ENDBRANCH   1  19
BRANCH   5  20
ATOM     20  O   UNL     1       7.651   6.087  17.222  0.00  0.00    +0.000 OA
ATOM     21  C   UNL     1       7.135   7.401  17.383  0.00  0.00    +0.000 C 
ENDBRANCH   5  20
BRANCH   6  22
ATOM     22  O   UNL     1       8.008   5.651  14.385  0.00  0.00    +0.000 OA
ATOM     23  C   UNL     1       8.160   5.464  12.986  0.00  0.00    +0.000 C 
ENDBRANCH   6  22
TORSDOF 5
ENDMDL
MODEL 6
REMARK VINA RESULT:      -6.8      1.485      3.253
REMARK  Name = 
REMARK  8 active torsions:
REMARK  status: ('A' for Active; 'I' for Inactive)
REMARK    1  A    between atoms: C_1  and  O_2
REMARK    2  A    between atoms: O_2  and  C_3
REMARK    3  A    between atoms: C_5  and  N_6
REMARK    4  A    between atoms: C_7  and  C_9
REMARK    5  A    between atoms: C_16  and  O_17
REMARK    6  A    between atoms: O_17  and  C_18
REMARK    7  A    between atoms: C_19  and  O_20
REMARK    8  A    between atoms: O_20  and  C_21
REMARK                            x       y       z     vdW  Elec       q    Type
REMARK                         _______ _______ _______ _____ _____    ______ ____
ROOT
ATOM      1  C   UNL     1       6.864   6.160  16.187  0.00  0.00    +0.000 A 
ATOM      2  C   UNL     1       5.648   6.169  16.888  0.00  0.00    +0.000 A 
ATOM      3  C   UNL     1       4.683   5.197  16.673  0.00  0.00    +0.000 A 
ATOM      4  C   UNL     1       4.892   4.272  15.654  0.00  0.00    +0.000 A 
ATOM      5  C   UNL     1       6.052   4.307  14.855  0.00  0.00    +0.000 A 
ATOM      6  C   UNL     1       7.066   5.248  15.128  0.00  0.00    +0.000 A 
ENDROOT
BRANCH   3   7
ATOM      7  N   UNL     1       3.542   5.061  17.487  0.00  0.00    +0.000 N 
ATOM      8  C   UNL     1       3.456   5.263  18.858  0.00  0.00    +0.000 C 
ATOM      9  O   UNL     1       4.332   5.722  19.586  0.00  0.00    +0.000 OA
ATOM     10  H   UNL     1       2.698   4.720  17.037  0.00  0.00    +0.000 HD
BRANCH   8  11
ATOM     11  C   UNL     1       2.165   4.705  19.472  0.00  0.00    +0.000 C 
ATOM     12  C   UNL     1       2.497   3.730  20.595  0.00  0.00    +0.000 C 
ATOM     13  C   UNL     1       1.389   2.685  20.546  0.00  0.00    +0.000 C 
ATOM     14  C   UNL     1       0.891   2.769  19.133  0.00  0.00    +0.000 C 
ATOM     15  O   UNL     1       0.130   1.997  18.581  0.00  0.00    +0.000 OA
ATOM     16  N   UNL     1       1.396   3.908  18.546  0.00  0.00    +0.000 N 
ATOM     17  H   UNL     1       0.986   4.244  17.681  0.00  0.00    +0.000 HD
ENDBRANCH   8  11
ENDBRANCH   3   7
BRANCH   1  19
ATOM     18  C   UNL     1       7.754   7.598  17.843  0.00  0.00    +0.000 C 
ATOM     19  O   UNL     1       7.842   7.059  16.521  0.00  0.00    +0.000 OA
ENDBRANCH   1  19
BRANCH   5  20
ATOM     20  O   UNL     1       6.021   3.331  13.888  0.00  0.00    +0.000 OA
ATOM     21  C   UNL     1       5.319   3.566  12.676  0.00  0.00    +0.000 C 
ENDBRANCH   5  20
BRANCH   6  22
ATOM     22  O   UNL     1       8.167   5.224  14.312  0.00  0.00    +0.000 OA
ATOM     23  C   UNL     1       8.081   5.736  12.991  0.00  0.00    +0.000 C 
ENDBRANCH   6  22
TORSDOF 5
ENDMDL
MODEL 7
REMARK VINA RESULT:      -6.8      5.209      7.399
REMARK  Name = 
REMARK  8 active torsions:
REMARK  status: ('A' for Active; 'I' for Inactive)
REMARK    1  A    between atoms: C_1  and  O_2
REMARK    2  A    between atoms: O_2  and  C_3
REMARK    3  A    between atoms: C_5  and  N_6
REMARK    4  A    between atoms: C_7  and  C_9
REMARK    5  A    between atoms: C_16  and  O_17
REMARK    6  A    between atoms: O_17  and  C_18
REMARK    7  A    between atoms: C_19  and  O_20
REMARK    8  A    between atoms: O_20  and  C_21
REMARK                            x       y       z     vdW  Elec       q    Type
REMARK                         _______ _______ _______ _____ _____    ______ ____
ROOT
ATOM      1  C   UNL     1       1.598   4.406  19.962  0.00  0.00    +0.000 A 
ATOM      2  C   UNL     1       1.482   5.506  20.826  0.00  0.00    +0.000 A 
ATOM      3  C   UNL     1       1.929   6.766  20.457  0.00  0.00    +0.000 A 
ATOM      4  C   UNL     1       2.609   6.898  19.249  0.00  0.00    +0.000 A 
ATOM      5  C   UNL     1       2.843   5.790  18.411  0.00  0.00    +0.000 A 
ATOM      6  C   UNL     1       2.320   4.526  18.754  0.00  0.00    +0.000 A 
ENDROOT
BRANCH   3   7
ATOM      7  N   UNL     1       1.658   7.923  21.212  0.00  0.00    +0.000 N 
ATOM      8  C   UNL     1       0.415   8.412  21.588  0.00  0.00    +0.000 C 
ATOM      9  O   UNL     1      -0.668   7.851  21.439  0.00  0.00    +0.000 OA
ATOM     10  H   UNL     1       2.454   8.502  21.461  0.00  0.00    +0.000 HD
BRANCH   8  11
ATOM     11  C   UNL     1       0.463   9.856  22.105  0.00  0.00    +0.000 C 
ATOM     12  C   UNL     1      -0.666  10.094  23.102  0.00  0.00    +0.000 C 
ATOM     13  C   UNL     1      -1.062  11.552  22.902  0.00  0.00    +0.000 C 
ATOM     14  C   UNL     1      -0.609  11.850  21.503  0.00  0.00    +0.000 C 
ATOM     15  O   UNL     1      -0.874  12.838  20.846  0.00  0.00    +0.000 OA
ATOM     16  N   UNL     1       0.217  10.835  21.073  0.00  0.00    +0.000 N 
ATOM     17  H   UNL     1       0.794  10.979  20.251  0.00  0.00    +0.000 HD
ENDBRANCH   8  11
ENDBRANCH   3   7
BRANCH   1  19
ATOM     18  C   UNL     1       1.509   2.636  21.530  0.00  0.00    +0.000 C 
ATOM     19  O   UNL     1       1.029   3.211  20.312  0.00  0.00    +0.000 OA
ENDBRANCH   1  19
BRANCH   5  20
ATOM     20  O   UNL     1       3.569   6.149  17.301  0.00  0.00    +0.000 OA
ATOM     21  C   UNL     1       4.986   6.214  17.380  0.00  0.00    +0.000 C 
ENDBRANCH   5  20
BRANCH   6  22
ATOM     22  O   UNL     1       2.583   3.494  17.892  0.00  0.00    +0.000 OA
ATOM     23  C   UNL     1       3.713   2.662  18.108  0.00  0.00    +0.000 C 
ENDBRANCH   6  22
TORSDOF 5
ENDMDL
MODEL 8
REMARK VINA RESULT:      -6.8      4.695      6.671
REMARK  Name = 
REMARK  8 active torsions:
REMARK  status: ('A' for Active; 'I' for Inactive)
REMARK    1  A    between atoms: C_1  and  O_2
REMARK    2  A    between atoms: O_2  and  C_3
REMARK    3  A    between atoms: C_5  and  N_6
REMARK    4  A    between atoms: C_7  and  C_9
REMARK    5  A    between atoms: C_16  and  O_17
REMARK    6  A    between atoms: O_17  and  C_18
REMARK    7  A    between atoms: C_19  and  O_20
REMARK    8  A    between atoms: O_20  and  C_21
REMARK                            x       y       z     vdW  Elec       q    Type
REMARK                         _______ _______ _______ _____ _____    ______ ____
ROOT
ATOM      1  C   UNL     1       4.645   5.095  18.154  0.00  0.00    +0.000 A 
ATOM      2  C   UNL     1       4.129   6.386  17.960  0.00  0.00    +0.000 A 
ATOM      3  C   UNL     1       2.773   6.649  18.088  0.00  0.00    +0.000 A 
ATOM      4  C   UNL     1       1.908   5.577  18.297  0.00  0.00    +0.000 A 
ATOM      5  C   UNL     1       2.384   4.254  18.381  0.00  0.00    +0.000 A 
ATOM      6  C   UNL     1       3.771   4.000  18.328  0.00  0.00    +0.000 A 
ENDROOT
BRANCH   3   7
ATOM      7  N   UNL     1       2.246   7.954  18.092  0.00  0.00    +0.000 N 
ATOM      8  C   UNL     1       1.711   8.644  19.171  0.00  0.00    +0.000 C 
ATOM      9  O   UNL     1       1.721   8.285  20.346  0.00  0.00    +0.000 OA
ATOM     10  H   UNL     1       2.193   8.428  17.196  0.00  0.00    +0.000 HD
BRANCH   8  11
ATOM     11  C   UNL     1       0.928   9.898  18.761  0.00  0.00    +0.000 C 
ATOM     12  C   UNL     1      -0.036  10.301  19.871  0.00  0.00    +0.000 C 
ATOM     13  C   UNL     1      -1.239  10.894  19.148  0.00  0.00    +0.000 C 
ATOM     14  C   UNL     1      -1.167  10.275  17.782  0.00  0.00    +0.000 C 
ATOM     15  O   UNL     1      -2.021  10.315  16.918  0.00  0.00    +0.000 OA
ATOM     16  N   UNL     1       0.065   9.680  17.624  0.00  0.00    +0.000 N 
ATOM     17  H   UNL     1       0.374   9.417  16.694  0.00  0.00    +0.000 HD
ENDBRANCH   8  11
ENDBRANCH   3   7
BRANCH   1  19
ATOM     18  C   UNL     1       6.716   5.537  19.210  0.00  0.00    +0.000 C 
ATOM     19  O   UNL     1       6.001   4.903  18.146  0.00  0.00    +0.000 OA
ENDBRANCH   1  19
BRANCH   5  20
ATOM     20  O   UNL     1       1.351   3.362  18.543  0.00  0.00    +0.000 OA
ATOM     21  C   UNL     1       0.812   3.140  19.838  0.00  0.00    +0.000 C 
ENDBRANCH   5  20
BRANCH   6  22
ATOM     22  O   UNL     1       4.162   2.690  18.418  0.00  0.00    +0.000 OA
ATOM     23  C   UNL     1       4.399   2.108  19.692  0.00  0.00    +0.000 C 
ENDBRANCH   6  22
TORSDOF 5
ENDMDL
MODEL 9
REMARK VINA RESULT:      -6.7      4.270      5.451
REMARK  Name = 
REMARK  8 active torsions:
REMARK  status: ('A' for Active; 'I' for Inactive)
REMARK    1  A    between atoms: C_1  and  O_2
REMARK    2  A    between atoms: O_2  and  C_3
REMARK    3  A    between atoms: C_5  and  N_6
REMARK    4  A    between atoms: C_7  and  C_9
REMARK    5  A    between atoms: C_16  and  O_17
REMARK    6  A    between atoms: O_17  and  C_18
REMARK    7  A    between atoms: C_19  and  O_20
REMARK    8  A    between atoms: O_20  and  C_21
REMARK                            x       y       z     vdW  Elec       q    Type
REMARK                         _______ _______ _______ _____ _____    ______ ____
ROOT
ATOM      1  C   UNL     1       5.428   6.508  16.965  0.00  0.00    +0.000 A 
ATOM      2  C   UNL     1       4.336   7.273  17.404  0.00  0.00    +0.000 A 
ATOM      3  C   UNL     1       3.188   6.676  17.902  0.00  0.00    +0.000 A 
ATOM      4  C   UNL     1       3.088   5.288  17.848  0.00  0.00    +0.000 A 
ATOM      5  C   UNL     1       4.121   4.497  17.307  0.00  0.00    +0.000 A 
ATOM      6  C   UNL     1       5.318   5.103  16.872  0.00  0.00    +0.000 A 
ENDROOT
BRANCH   3   7
ATOM      7  N   UNL     1       2.157   7.404  18.526  0.00  0.00    +0.000 N 
ATOM      8  C   UNL     1       1.767   8.710  18.259  0.00  0.00    +0.000 C 
ATOM      9  O   UNL     1       2.167   9.420  17.340  0.00  0.00    +0.000 OA
ATOM     10  H   UNL     1       1.681   6.951  19.300  0.00  0.00    +0.000 HD
BRANCH   8  11
ATOM     11  C   UNL     1       0.851   9.300  19.340  0.00  0.00    +0.000 C 
ATOM     12  C   UNL     1       1.081  10.803  19.458  0.00  0.00    +0.000 C 
ATOM     13  C   UNL     1       0.858  11.117  20.932  0.00  0.00    +0.000 C 
ATOM     14  C   UNL     1       1.110   9.803  21.613  0.00  0.00    +0.000 C 
ATOM     15  O   UNL     1       1.224   9.612  22.808  0.00  0.00    +0.000 OA
ATOM     16  N   UNL     1       1.146   8.806  20.664  0.00  0.00    +0.000 N 
ATOM     17  H   UNL     1       1.076   7.838  20.958  0.00  0.00    +0.000 HD
ENDBRANCH   8  11
ENDBRANCH   3   7
BRANCH   1  19
ATOM     18  C   UNL     1       7.563   7.273  17.641  0.00  0.00    +0.000 C 
ATOM     19  O   UNL     1       6.589   7.137  16.603  0.00  0.00    +0.000 OA
ENDBRANCH   1  19
BRANCH   5  20
ATOM     20  O   UNL     1       3.786   3.164  17.315  0.00  0.00    +0.000 OA
ATOM     21  C   UNL     1       3.684   2.474  18.553  0.00  0.00    +0.000 C 
ENDBRANCH   5  20
BRANCH   6  22
ATOM     22  O   UNL     1       6.280   4.273  16.359  0.00  0.00    +0.000 OA
ATOM     23  C   UNL     1       6.322   4.016  14.964  0.00  0.00    +0.000 C 
ENDBRANCH   6  22
TORSDOF 5
ENDMDL
