MODEL 1
REMARK VINA RESULT:      -7.2      0.000      0.000
REMARK  Name = 
REMARK  9 active torsions:
REMARK  status: ('A' for Active; 'I' for Inactive)
REMARK    1  A    between atoms: C_1  and  C_2
REMARK    2  A    between atoms: C_5  and  C_6
REMARK    3  A    between atoms: N_8  and  C_9
REMARK    4  A    between atoms: C_9  and  N_10
REMARK    5  A    between atoms: C_9  and  C_24
REMARK    6  A    between atoms: C_11  and  S_12
REMARK    7  A    between atoms: N_13  and  C_14
REMARK    8  A    between atoms: C_17  and  S_18
REMARK    9  A    between atoms: S_18  and  N_19
REMARK                            x       y       z     vdW  Elec       q    Type
REMARK                         _______ _______ _______ _____ _____    ______ ____
ROOT
ATOM      1  N   UNL     1       0.861   9.655  19.724  0.00  0.00    +0.000 NA
ATOM      2  C   UNL     1       0.889   9.135  20.895  0.00  0.00    +0.000 C 
ATOM      3  N   UNL     1       1.632   8.028  21.191  0.00  0.00    +0.000 N 
ATOM      4  H   UNL     1       2.012   7.979  22.126  0.00  0.00    +0.000 HD
ENDROOT
BRANCH   3   5
ATOM      5  C   UNL     1       2.037   7.042  20.280  0.00  0.00    +0.000 A 
ATOM      6  C   UNL     1       1.845   5.692  20.600  0.00  0.00    +0.000 A 
ATOM      7  C   UNL     1       2.266   4.687  19.725  0.00  0.00    +0.000 A 
ATOM      8  C   UNL     1       2.879   5.032  18.520  0.00  0.00    +0.000 A 
ATOM      9  C   UNL     1       3.101   6.365  18.189  0.00  0.00    +0.000 A 
ATOM     10  C   UNL     1       2.678   7.359  19.070  0.00  0.00    +0.000 A 
BRANCH   8  11
ATOM     11  S   UNL     1       3.383   3.768  17.402  0.00  0.00    +0.000 S 
ATOM     12  O   UNL     1       2.232   3.025  16.942  0.00  0.00    +0.000 OA
ATOM     13  O   UNL     1       4.369   4.299  16.488  0.00  0.00    +0.000 OA
BRANCH  11  14
ATOM     14  N   UNL     1       4.215   2.736  18.431  0.00  0.00    +0.000 NA
ATOM     15  H   UNL     1       4.607   3.263  19.211  0.00  0.00    +0.000 HD
ATOM     16  H   UNL     1       3.614   1.961  18.711  0.00  0.00    +0.000 HD
ENDBRANCH  11  14
ENDBRANCH   8  11
ENDBRANCH   3   5
BRANCH   2  17
ATOM     17  S   UNL     1      -0.010   9.729  22.276  0.00  0.00    +0.000 S 
ATOM     18  H   UNL     1       0.931  10.587  22.703  0.00  0.00    +0.000 HD
ENDBRANCH   2  17
BRANCH   1  19
ATOM     19  C   UNL     1       0.146  10.868  19.374  0.00  0.00    +0.000 C 
BRANCH  19  22
ATOM     20  C   UNL     1      -1.925  10.832  18.050  0.00  0.00    +0.000 C 
ATOM     21  O   UNL     1      -2.532  11.424  18.936  0.00  0.00    +0.000 OA
ATOM     22  N   UNL     1      -0.619  10.454  18.214  0.00  0.00    +0.000 N 
ATOM     23  H   UNL     1      -0.081  10.028  17.479  0.00  0.00    +0.000 HD
BRANCH  20  28
ATOM     24  C   UNL     1      -4.476  10.014  12.909  0.00  0.00    +0.000 C 
ATOM     25  C   UNL     1      -3.854  10.151  14.267  0.00  0.00    +0.000 A 
ATOM     26  C   UNL     1      -4.370  11.054  15.200  0.00  0.00    +0.000 A 
ATOM     27  C   UNL     1      -3.740  11.232  16.432  0.00  0.00    +0.000 A 
ATOM     28  C   UNL     1      -2.584  10.509  16.752  0.00  0.00    +0.000 A 
ATOM     29  C   UNL     1      -2.088   9.573  15.834  0.00  0.00    +0.000 A 
ATOM     30  C   UNL     1      -2.724   9.397  14.600  0.00  0.00    +0.000 A 
ENDBRANCH  20  28
ENDBRANCH  19  22
BRANCH  19  31
ATOM     31  C   UNL     1       1.141  12.108  19.157  0.00  0.00    +0.000 C 
ATOM     32 CL   UNL     1       2.518  11.737  18.046  0.00  0.00    +0.000 Cl
ATOM     33 CL   UNL     1       0.249  13.525  18.476  0.00  0.00    +0.000 Cl
ATOM     34 CL   UNL     1       1.893  12.691  20.706  0.00  0.00    +0.000 Cl
ENDBRANCH  19  31
ENDBRANCH   1  19
TORSDOF 8
ENDMDL
MODEL 2
REMARK VINA RESULT:      -6.9      0.340      1.321
REMARK  Name = 
REMARK  9 active torsions:
REMARK  status: ('A' for Active; 'I' for Inactive)
REMARK    1  A    between atoms: C_1  and  C_2
REMARK    2  A    between atoms: C_5  and  C_6
REMARK    3  A    between atoms: N_8  and  C_9
REMARK    4  A    between atoms: C_9  and  N_10
REMARK    5  A    between atoms: C_9  and  C_24
REMARK    6  A    between atoms: C_11  and  S_12
REMARK    7  A    between atoms: N_13  and  C_14
REMARK    8  A    between atoms: C_17  and  S_18
REMARK    9  A    between atoms: S_18  and  N_19
REMARK                            x       y       z     vdW  Elec       q    Type
REMARK                         _______ _______ _______ _____ _____    ______ ____
ROOT
ATOM      1  N   UNL     1       0.936   9.969  19.786  0.00  0.00    +0.000 NA
ATOM      2  C   UNL     1       0.855   9.401  20.931  0.00  0.00    +0.000 C 
ATOM      3  N   UNL     1       1.522   8.247  21.229  0.00  0.00    +0.000 N 
ATOM      4  H   UNL     1       1.831   8.139  22.184  0.00  0.00    +0.000 HD
ENDROOT
BRANCH   3   5
ATOM      5  C   UNL     1       1.944   7.280  20.305  0.00  0.00    +0.000 A 
ATOM      6  C   UNL     1       1.869   5.924  20.647  0.00  0.00    +0.000 A 
ATOM      7  C   UNL     1       2.311   4.940  19.759  0.00  0.00    +0.000 A 
ATOM      8  C   UNL     1       2.827   5.313  18.517  0.00  0.00    +0.000 A 
ATOM      9  C   UNL     1       2.932   6.654  18.161  0.00  0.00    +0.000 A 
ATOM     10  C   UNL     1       2.489   7.626  19.056  0.00  0.00    +0.000 A 
BRANCH   8  11
ATOM     11  S   UNL     1       3.356   4.073  17.383  0.00  0.00    +0.000 S 
ATOM     12  O   UNL     1       2.228   3.274  16.959  0.00  0.00    +0.000 OA
ATOM     13  O   UNL     1       4.285   4.650  16.438  0.00  0.00    +0.000 OA
BRANCH  11  14
ATOM     14  N   UNL     1       4.270   3.084  18.385  0.00  0.00    +0.000 NA
ATOM     15  H   UNL     1       4.788   3.651  19.056  0.00  0.00    +0.000 HD
ATOM     16  H   UNL     1       3.676   2.372  18.809  0.00  0.00    +0.000 HD
ENDBRANCH  11  14
ENDBRANCH   8  11
ENDBRANCH   3   5
BRANCH   2  17
ATOM     17  S   UNL     1      -0.112   9.981  22.272  0.00  0.00    +0.000 S 
ATOM     18  H   UNL     1      -0.943  10.737  21.534  0.00  0.00    +0.000 HD
ENDBRANCH   2  17
BRANCH   1  19
ATOM     19  C   UNL     1       0.307  11.231  19.442  0.00  0.00    +0.000 C 
BRANCH  19  22
ATOM     20  C   UNL     1      -1.834  10.982  18.257  0.00  0.00    +0.000 C 
ATOM     21  O   UNL     1      -2.459  11.247  19.279  0.00  0.00    +0.000 OA
ATOM     22  N   UNL     1      -0.468  10.881  18.267  0.00  0.00    +0.000 N 
ATOM     23  H   UNL     1       0.070  10.731  17.431  0.00  0.00    +0.000 HD
BRANCH  20  28
ATOM     24  C   UNL     1      -4.589   9.720  13.316  0.00  0.00    +0.000 C 
ATOM     25  C   UNL     1      -3.842  10.118  14.554  0.00  0.00    +0.000 A 
ATOM     26  C   UNL     1      -2.664   9.463  14.918  0.00  0.00    +0.000 A 
ATOM     27  C   UNL     1      -2.017   9.786  16.111  0.00  0.00    +0.000 A 
ATOM     28  C   UNL     1      -2.538  10.769  16.961  0.00  0.00    +0.000 A 
ATOM     29  C   UNL     1      -3.698  11.456  16.578  0.00  0.00    +0.000 A 
ATOM     30  C   UNL     1      -4.343  11.130  15.380  0.00  0.00    +0.000 A 
ENDBRANCH  20  28
ENDBRANCH  19  22
BRANCH  19  31
ATOM     31  C   UNL     1       1.382  12.406  19.253  0.00  0.00    +0.000 C 
ATOM     32 CL   UNL     1       2.246  12.839  20.781  0.00  0.00    +0.000 Cl
ATOM     33 CL   UNL     1       2.627  11.936  18.030  0.00  0.00    +0.000 Cl
ATOM     34 CL   UNL     1       0.643  13.951  18.644  0.00  0.00    +0.000 Cl
ENDBRANCH  19  31
ENDBRANCH   1  19
TORSDOF 8
ENDMDL
MODEL 3
REMARK VINA RESULT:      -6.8      0.340      1.336
REMARK  Name = 
REMARK  9 active torsions:
REMARK  status: ('A' for Active; 'I' for Inactive)
REMARK    1  A    between atoms: C_1  and  C_2
REMARK    2  A    between atoms: C_5  and  C_6
REMARK    3  A    between atoms: N_8  and  C_9
REMARK    4  A    between atoms: C_9  and  N_10
REMARK    5  A    between atoms: C_9  and  C_24
REMARK    6  A    between atoms: C_11  and  S_12
REMARK    7  A    between atoms: N_13  and  C_14
REMARK    8  A    between atoms: C_17  and  S_18
REMARK    9  A    between atoms: S_18  and  N_19
REMARK                            x       y       z     vdW  Elec       q    Type
REMARK                         _______ _______ _______ _____ _____    ______ ____
ROOT
ATOM      1  N   UNL     1       0.809   9.703  19.922  0.00  0.00    +0.000 NA
ATOM      2  C   UNL     1       0.855   9.233  21.113  0.00  0.00    +0.000 C 
ATOM      3  N   UNL     1       1.572   8.117  21.436  0.00  0.00    +0.000 N 
ATOM      4  H   UNL     1       1.978   8.095  22.360  0.00  0.00    +0.000 HD
ENDROOT
BRANCH   3   5
ATOM      5  C   UNL     1       1.919   7.081  20.557  0.00  0.00    +0.000 A 
ATOM      6  C   UNL     1       2.379   7.394  19.272  0.00  0.00    +0.000 A 
ATOM      7  C   UNL     1       2.703   6.382  18.365  0.00  0.00    +0.000 A 
ATOM      8  C   UNL     1       2.571   5.046  18.746  0.00  0.00    +0.000 A 
ATOM      9  C   UNL     1       2.096   4.707  20.009  0.00  0.00    +0.000 A 
ATOM     10  C   UNL     1       1.775   5.725  20.905  0.00  0.00    +0.000 A 
BRANCH   8  11
ATOM     11  S   UNL     1       3.008   3.768  17.615  0.00  0.00    +0.000 S 
ATOM     12  O   UNL     1       1.865   3.407  16.807  0.00  0.00    +0.000 OA
ATOM     13  O   UNL     1       4.298   4.062  17.031  0.00  0.00    +0.000 OA
BRANCH  11  14
ATOM     14  N   UNL     1       3.258   2.479  18.660  0.00  0.00    +0.000 NA
ATOM     15  H   UNL     1       2.751   1.658  18.328  0.00  0.00    +0.000 HD
ATOM     16  H   UNL     1       4.257   2.326  18.795  0.00  0.00    +0.000 HD
ENDBRANCH  11  14
ENDBRANCH   8  11
ENDBRANCH   3   5
BRANCH   2  17
ATOM     17  S   UNL     1       0.015   9.913  22.492  0.00  0.00    +0.000 S 
ATOM     18  H   UNL     1      -1.223   9.600  22.075  0.00  0.00    +0.000 HD
ENDBRANCH   2  17
BRANCH   1  19
ATOM     19  C   UNL     1       0.122  10.923  19.539  0.00  0.00    +0.000 C 
BRANCH  19  22
ATOM     20  C   UNL     1      -1.914  10.989  18.163  0.00  0.00    +0.000 C 
ATOM     21  O   UNL     1      -2.473  11.713  18.980  0.00  0.00    +0.000 OA
ATOM     22  N   UNL     1      -0.658  10.494  18.396  0.00  0.00    +0.000 N 
ATOM     23  H   UNL     1      -0.154   9.956  17.713  0.00  0.00    +0.000 HD
BRANCH  20  28
ATOM     24  C   UNL     1      -4.467  10.019  13.050  0.00  0.00    +0.000 C 
ATOM     25  C   UNL     1      -3.847  10.198  14.403  0.00  0.00    +0.000 A 
ATOM     26  C   UNL     1      -4.341  11.154  15.294  0.00  0.00    +0.000 A 
ATOM     27  C   UNL     1      -3.710  11.368  16.520  0.00  0.00    +0.000 A 
ATOM     28  C   UNL     1      -2.577  10.629  16.877  0.00  0.00    +0.000 A 
ATOM     29  C   UNL     1      -2.104   9.641  16.004  0.00  0.00    +0.000 A 
ATOM     30  C   UNL     1      -2.739   9.429  14.775  0.00  0.00    +0.000 A 
ENDBRANCH  20  28
ENDBRANCH  19  22
BRANCH  19  31
ATOM     31  C   UNL     1       1.145  12.132  19.282  0.00  0.00    +0.000 C 
ATOM     32 CL   UNL     1       1.951  12.722  20.790  0.00  0.00    +0.000 Cl
ATOM     33 CL   UNL     1       2.440  11.632  18.125  0.00  0.00    +0.000 Cl
ATOM     34 CL   UNL     1       0.348  13.588  18.540  0.00  0.00    +0.000 Cl
ENDBRANCH  19  31
ENDBRANCH   1  19
TORSDOF 8
ENDMDL
MODEL 4
REMARK VINA RESULT:      -6.8      0.417      1.635
REMARK  Name = 
REMARK  9 active torsions:
REMARK  status: ('A' for Active; 'I' for Inactive)
REMARK    1  A    between atoms: C_1  and  C_2
REMARK    2  A    between atoms: C_5  and  C_6
REMARK    3  A    between atoms: N_8  and  C_9
REMARK    4  A    between atoms: C_9  and  N_10
REMARK    5  A    between atoms: C_9  and  C_24
REMARK    6  A    between atoms: C_11  and  S_12
REMARK    7  A    between atoms: N_13  and  C_14
REMARK    8  A    between atoms: C_17  and  S_18
REMARK    9  A    between atoms: S_18  and  N_19
REMARK                            x       y       z     vdW  Elec       q    Type
REMARK                         _______ _______ _______ _____ _____    ______ ____
ROOT
ATOM      1  N   UNL     1       0.808   9.962  19.924  0.00  0.00    +0.000 NA
ATOM      2  C   UNL     1       0.737   9.432  21.088  0.00  0.00    +0.000 C 
ATOM      3  N   UNL     1       1.404   8.286  21.417  0.00  0.00    +0.000 N 
ATOM      4  H   UNL     1       1.722   8.209  22.372  0.00  0.00    +0.000 HD
ENDROOT
BRANCH   3   5
ATOM      5  C   UNL     1       1.813   7.289  20.521  0.00  0.00    +0.000 A 
ATOM      6  C   UNL     1       2.325   7.656  19.270  0.00  0.00    +0.000 A 
ATOM      7  C   UNL     1       2.713   6.683  18.345  0.00  0.00    +0.000 A 
ATOM      8  C   UNL     1       2.593   5.332  18.673  0.00  0.00    +0.000 A 
ATOM      9  C   UNL     1       2.067   4.940  19.900  0.00  0.00    +0.000 A 
ATOM     10  C   UNL     1       1.683   5.920  20.814  0.00  0.00    +0.000 A 
BRANCH   8  11
ATOM     11  S   UNL     1       3.109   4.104  17.522  0.00  0.00    +0.000 S 
ATOM     12  O   UNL     1       1.957   3.460  16.932  0.00  0.00    +0.000 OA
ATOM     13  O   UNL     1       4.192   4.623  16.717  0.00  0.00    +0.000 OA
BRANCH  11  14
ATOM     14  N   UNL     1       3.798   2.966  18.545  0.00  0.00    +0.000 NA
ATOM     15  H   UNL     1       3.074   2.355  18.924  0.00  0.00    +0.000 HD
ATOM     16  H   UNL     1       4.550   2.473  18.065  0.00  0.00    +0.000 HD
ENDBRANCH  11  14
ENDBRANCH   8  11
ENDBRANCH   3   5
BRANCH   2  17
ATOM     17  S   UNL     1      -0.215  10.059  22.419  0.00  0.00    +0.000 S 
ATOM     18  H   UNL     1      -0.952   8.950  22.603  0.00  0.00    +0.000 HD
ENDBRANCH   2  17
BRANCH   1  19
ATOM     19  C   UNL     1       0.178  11.214  19.545  0.00  0.00    +0.000 C 
BRANCH  19  22
ATOM     20  C   UNL     1      -1.925  11.192  18.271  0.00  0.00    +0.000 C 
ATOM     21  O   UNL     1      -2.517  11.746  19.191  0.00  0.00    +0.000 OA
ATOM     22  N   UNL     1      -0.610  10.827  18.391  0.00  0.00    +0.000 N 
ATOM     23  H   UNL     1      -0.086  10.433  17.629  0.00  0.00    +0.000 HD
BRANCH  20  28
ATOM     24  C   UNL     1      -4.569   9.636  13.352  0.00  0.00    +0.000 C 
ATOM     25  C   UNL     1      -3.859  10.112  14.585  0.00  0.00    +0.000 A 
ATOM     26  C   UNL     1      -2.618   9.581  14.943  0.00  0.00    +0.000 A 
ATOM     27  C   UNL     1      -2.000   9.972  16.131  0.00  0.00    +0.000 A 
ATOM     28  C   UNL     1      -2.612  10.903  16.980  0.00  0.00    +0.000 A 
ATOM     29  C   UNL     1      -3.837  11.469  16.601  0.00  0.00    +0.000 A 
ATOM     30  C   UNL     1      -4.453  11.074  15.409  0.00  0.00    +0.000 A 
ENDBRANCH  20  28
ENDBRANCH  19  22
BRANCH  19  31
ATOM     31  C   UNL     1       1.255  12.378  19.306  0.00  0.00    +0.000 C 
ATOM     32 CL   UNL     1       0.528  13.908  18.672  0.00  0.00    +0.000 Cl
ATOM     33 CL   UNL     1       2.115  12.773  20.846  0.00  0.00    +0.000 Cl
ATOM     34 CL   UNL     1       2.550  11.912  18.118  0.00  0.00    +0.000 Cl
ENDBRANCH  19  31
ENDBRANCH   1  19
TORSDOF 8
ENDMDL
MODEL 5
REMARK VINA RESULT:      -6.8      0.713      1.213
REMARK  Name = 
REMARK  9 active torsions:
REMARK  status: ('A' for Active; 'I' for Inactive)
REMARK    1  A    between atoms: C_1  and  C_2
REMARK    2  A    between atoms: C_5  and  C_6
REMARK    3  A    between atoms: N_8  and  C_9
REMARK    4  A    between atoms: C_9  and  N_10
REMARK    5  A    between atoms: C_9  and  C_24
REMARK    6  A    between atoms: C_11  and  S_12
REMARK    7  A    between atoms: N_13  and  C_14
REMARK    8  A    between atoms: C_17  and  S_18
REMARK    9  A    between atoms: S_18  and  N_19
REMARK                            x       y       z     vdW  Elec       q    Type
REMARK                         _______ _______ _______ _____ _____    ______ ____
ROOT
ATOM      1  N   UNL     1       0.756   9.704  19.937  0.00  0.00    +0.000 NA
ATOM      2  C   UNL     1       0.773   9.236  21.130  0.00  0.00    +0.000 C 
ATOM      3  N   UNL     1       1.486   8.123  21.473  0.00  0.00    +0.000 N 
ATOM      4  H   UNL     1       1.867   8.104  22.408  0.00  0.00    +0.000 HD
ENDROOT
BRANCH   3   5
ATOM      5  C   UNL     1       1.859   7.087  20.606  0.00  0.00    +0.000 A 
ATOM      6  C   UNL     1       2.537   7.394  19.420  0.00  0.00    +0.000 A 
ATOM      7  C   UNL     1       2.895   6.385  18.522  0.00  0.00    +0.000 A 
ATOM      8  C   UNL     1       2.578   5.057  18.813  0.00  0.00    +0.000 A 
ATOM      9  C   UNL     1       1.885   4.728  19.974  0.00  0.00    +0.000 A 
ATOM     10  C   UNL     1       1.533   5.743  20.861  0.00  0.00    +0.000 A 
BRANCH   8  11
ATOM     11  S   UNL     1       3.055   3.781  17.698  0.00  0.00    +0.000 S 
ATOM     12  O   UNL     1       3.790   2.754  18.403  0.00  0.00    +0.000 OA
ATOM     13  O   UNL     1       1.947   3.467  16.823  0.00  0.00    +0.000 OA
BRANCH  11  14
ATOM     14  N   UNL     1       4.182   4.582  16.747  0.00  0.00    +0.000 NA
ATOM     15  H   UNL     1       4.930   4.954  17.332  0.00  0.00    +0.000 HD
ATOM     16  H   UNL     1       4.503   3.972  15.996  0.00  0.00    +0.000 HD
ENDBRANCH  11  14
ENDBRANCH   8  11
ENDBRANCH   3   5
BRANCH   2  17
ATOM     17  S   UNL     1      -0.105   9.915  22.485  0.00  0.00    +0.000 S 
ATOM     18  H   UNL     1       0.976  10.351  23.154  0.00  0.00    +0.000 HD
ENDBRANCH   2  17
BRANCH   1  19
ATOM     19  C   UNL     1       0.075  10.921  19.535  0.00  0.00    +0.000 C 
BRANCH  19  22
ATOM     20  C   UNL     1      -1.960  10.916  18.155  0.00  0.00    +0.000 C 
ATOM     21  O   UNL     1      -2.561  11.580  18.993  0.00  0.00    +0.000 OA
ATOM     22  N   UNL     1      -0.679  10.486  18.375  0.00  0.00    +0.000 N 
ATOM     23  H   UNL     1      -0.143   9.998  17.678  0.00  0.00    +0.000 HD
BRANCH  20  28
ATOM     24  C   UNL     1      -4.435   9.967  12.999  0.00  0.00    +0.000 C 
ATOM     25  C   UNL     1      -3.833  10.139  14.362  0.00  0.00    +0.000 A 
ATOM     26  C   UNL     1      -4.365  11.061  15.266  0.00  0.00    +0.000 A 
ATOM     27  C   UNL     1      -3.753  11.271  16.502  0.00  0.00    +0.000 A 
ATOM     28  C   UNL     1      -2.600  10.560  16.856  0.00  0.00    +0.000 A 
ATOM     29  C   UNL     1      -2.088   9.604  15.968  0.00  0.00    +0.000 A 
ATOM     30  C   UNL     1      -2.705   9.397  14.729  0.00  0.00    +0.000 A 
ENDBRANCH  20  28
ENDBRANCH  19  22
BRANCH  19  31
ATOM     31  C   UNL     1       1.100  12.131  19.296  0.00  0.00    +0.000 C 
ATOM     32 CL   UNL     1       2.445  11.719  18.160  0.00  0.00    +0.000 Cl
ATOM     33 CL   UNL     1       0.237  13.572  18.629  0.00  0.00    +0.000 Cl
ATOM     34 CL   UNL     1       1.898  12.695  20.830  0.00  0.00    +0.000 Cl
ENDBRANCH  19  31
ENDBRANCH   1  19
TORSDOF 8
ENDMDL
MODEL 6
REMARK VINA RESULT:      -6.7      4.035      8.757
REMARK  Name = 
REMARK  9 active torsions:
REMARK  status: ('A' for Active; 'I' for Inactive)
REMARK    1  A    between atoms: C_1  and  C_2
REMARK    2  A    between atoms: C_5  and  C_6
REMARK    3  A    between atoms: N_8  and  C_9
REMARK    4  A    between atoms: C_9  and  N_10
REMARK    5  A    between atoms: C_9  and  C_24
REMARK    6  A    between atoms: C_11  and  S_12
REMARK    7  A    between atoms: N_13  and  C_14
REMARK    8  A    between atoms: C_17  and  S_18
REMARK    9  A    between atoms: S_18  and  N_19
REMARK                            x       y       z     vdW  Elec       q    Type
REMARK                         _______ _______ _______ _____ _____    ______ ____
ROOT
ATOM      1  N   UNL     1      -1.594  12.276  18.804  0.00  0.00    +0.000 NA
ATOM      2  C   UNL     1      -2.517  11.794  18.058  0.00  0.00    +0.000 C 
ATOM      3  N   UNL     1      -3.845  11.963  18.330  0.00  0.00    +0.000 N 
ATOM      4  H   UNL     1      -4.462  12.033  17.534  0.00  0.00    +0.000 HD
ENDROOT
BRANCH   3   5
ATOM      5  C   UNL     1      -4.401  12.197  19.596  0.00  0.00    +0.000 A 
ATOM      6  C   UNL     1      -5.749  11.891  19.821  0.00  0.00    +0.000 A 
ATOM      7  C   UNL     1      -6.339  12.143  21.063  0.00  0.00    +0.000 A 
ATOM      8  C   UNL     1      -5.575  12.700  22.090  0.00  0.00    +0.000 A 
ATOM      9  C   UNL     1      -4.240  13.033  21.885  0.00  0.00    +0.000 A 
ATOM     10  C   UNL     1      -3.663  12.778  20.642  0.00  0.00    +0.000 A 
BRANCH   8  11
ATOM     11  S   UNL     1      -6.307  12.989  23.665  0.00  0.00    +0.000 S 
ATOM     12  O   UNL     1      -6.323  14.405  23.953  0.00  0.00    +0.000 OA
ATOM     13  O   UNL     1      -7.486  12.164  23.806  0.00  0.00    +0.000 OA
BRANCH  11  14
ATOM     14  N   UNL     1      -5.154  12.325  24.688  0.00  0.00    +0.000 NA
ATOM     15  H   UNL     1      -5.098  11.316  24.542  0.00  0.00    +0.000 HD
ATOM     16  H   UNL     1      -4.265  12.812  24.577  0.00  0.00    +0.000 HD
ENDBRANCH  11  14
ENDBRANCH   8  11
ENDBRANCH   3   5
BRANCH   2  17
ATOM     17  S   UNL     1      -2.245  10.848  16.609  0.00  0.00    +0.000 S 
ATOM     18  H   UNL     1      -1.255  11.615  16.121  0.00  0.00    +0.000 HD
ENDBRANCH   2  17
BRANCH   1  19
ATOM     19  C   UNL     1      -0.173  12.187  18.523  0.00  0.00    +0.000 C 
BRANCH  19  22
ATOM     20  C   UNL     1       1.229  10.169  18.433  0.00  0.00    +0.000 C 
ATOM     21  O   UNL     1       1.903  10.647  17.526  0.00  0.00    +0.000 OA
ATOM     22  N   UNL     1       0.141  10.832  18.934  0.00  0.00    +0.000 N 
ATOM     23  H   UNL     1      -0.386  10.493  19.720  0.00  0.00    +0.000 HD
BRANCH  20  28
ATOM     24  C   UNL     1       2.150   4.991  20.871  0.00  0.00    +0.000 C 
ATOM     25  C   UNL     1       1.995   6.351  20.258  0.00  0.00    +0.000 A 
ATOM     26  C   UNL     1       1.344   7.375  20.949  0.00  0.00    +0.000 A 
ATOM     27  C   UNL     1       1.136   8.614  20.342  0.00  0.00    +0.000 A 
ATOM     28  C   UNL     1       1.577   8.850  19.034  0.00  0.00    +0.000 A 
ATOM     29  C   UNL     1       2.268   7.838  18.354  0.00  0.00    +0.000 A 
ATOM     30  C   UNL     1       2.475   6.597  18.966  0.00  0.00    +0.000 A 
ENDBRANCH  20  28
ENDBRANCH  19  22
BRANCH  19  31
ATOM     31  C   UNL     1       0.656  13.354  19.248  0.00  0.00    +0.000 C 
ATOM     32 CL   UNL     1      -0.317  14.849  19.540  0.00  0.00    +0.000 Cl
ATOM     33 CL   UNL     1       1.287  12.786  20.844  0.00  0.00    +0.000 Cl
ATOM     34 CL   UNL     1       2.112  13.884  18.297  0.00  0.00    +0.000 Cl
ENDBRANCH  19  31
ENDBRANCH   1  19
TORSDOF 8
ENDMDL
MODEL 7
REMARK VINA RESULT:      -6.6      4.037      8.714
REMARK  Name = 
REMARK  9 active torsions:
REMARK  status: ('A' for Active; 'I' for Inactive)
REMARK    1  A    between atoms: C_1  and  C_2
REMARK    2  A    between atoms: C_5  and  C_6
REMARK    3  A    between atoms: N_8  and  C_9
REMARK    4  A    between atoms: C_9  and  N_10
REMARK    5  A    between atoms: C_9  and  C_24
REMARK    6  A    between atoms: C_11  and  S_12
REMARK    7  A    between atoms: N_13  and  C_14
REMARK    8  A    between atoms: C_17  and  S_18
REMARK    9  A    between atoms: S_18  and  N_19
REMARK                            x       y       z     vdW  Elec       q    Type
REMARK                         _______ _______ _______ _____ _____    ______ ____
ROOT
ATOM      1  N   UNL     1      -1.565  12.277  18.730  0.00  0.00    +0.000 NA
ATOM      2  C   UNL     1      -2.511  11.848  17.980  0.00  0.00    +0.000 C 
ATOM      3  N   UNL     1      -3.830  12.039  18.278  0.00  0.00    +0.000 N 
ATOM      4  H   UNL     1      -4.457  12.155  17.494  0.00  0.00    +0.000 HD
ENDROOT
BRANCH   3   5
ATOM      5  C   UNL     1      -4.363  12.238  19.560  0.00  0.00    +0.000 A 
ATOM      6  C   UNL     1      -3.519  12.657  20.596  0.00  0.00    +0.000 A 
ATOM      7  C   UNL     1      -4.015  12.834  21.891  0.00  0.00    +0.000 A 
ATOM      8  C   UNL     1      -5.365  12.595  22.151  0.00  0.00    +0.000 A 
ATOM      9  C   UNL     1      -6.219  12.158  21.144  0.00  0.00    +0.000 A 
ATOM     10  C   UNL     1      -5.713  11.984  19.857  0.00  0.00    +0.000 A 
BRANCH   8  11
ATOM     11  S   UNL     1      -5.999  12.847  23.775  0.00  0.00    +0.000 S 
ATOM     12  O   UNL     1      -5.143  12.208  24.748  0.00  0.00    +0.000 OA
ATOM     13  O   UNL     1      -6.429  14.221  23.916  0.00  0.00    +0.000 OA
BRANCH  11  14
ATOM     14  N   UNL     1      -7.403  11.928  23.723  0.00  0.00    +0.000 NA
ATOM     15  H   UNL     1      -7.638  11.706  22.755  0.00  0.00    +0.000 HD
ATOM     16  H   UNL     1      -7.309  11.112  24.328  0.00  0.00    +0.000 HD
ENDBRANCH  11  14
ENDBRANCH   8  11
ENDBRANCH   3   5
BRANCH   2  17
ATOM     17  S   UNL     1      -2.284  10.952  16.492  0.00  0.00    +0.000 S 
ATOM     18  H   UNL     1      -1.864  11.997  15.758  0.00  0.00    +0.000 HD
ENDBRANCH   2  17
BRANCH   1  19
ATOM     19  C   UNL     1      -0.151  12.163  18.424  0.00  0.00    +0.000 C 
BRANCH  19  22
ATOM     20  C   UNL     1       1.257  10.147  18.389  0.00  0.00    +0.000 C 
ATOM     21  O   UNL     1       1.959  10.622  17.503  0.00  0.00    +0.000 OA
ATOM     22  N   UNL     1       0.151  10.811  18.851  0.00  0.00    +0.000 N 
ATOM     23  H   UNL     1      -0.401  10.474  19.621  0.00  0.00    +0.000 HD
BRANCH  20  28
ATOM     24  C   UNL     1       2.109   4.993  20.901  0.00  0.00    +0.000 C 
ATOM     25  C   UNL     1       1.973   6.345  20.267  0.00  0.00    +0.000 A 
ATOM     26  C   UNL     1       1.353   7.394  20.950  0.00  0.00    +0.000 A 
ATOM     27  C   UNL     1       1.161   8.627  20.325  0.00  0.00    +0.000 A 
ATOM     28  C   UNL     1       1.587   8.832  19.008  0.00  0.00    +0.000 A 
ATOM     29  C   UNL     1       2.246   7.794  18.334  0.00  0.00    +0.000 A 
ATOM     30  C   UNL     1       2.437   6.560  18.964  0.00  0.00    +0.000 A 
ENDBRANCH  20  28
ENDBRANCH  19  22
BRANCH  19  31
ATOM     31  C   UNL     1       0.707  13.329  19.115  0.00  0.00    +0.000 C 
ATOM     32 CL   UNL     1      -0.211  14.875  19.311  0.00  0.00    +0.000 Cl
ATOM     33 CL   UNL     1       1.277  12.814  20.751  0.00  0.00    +0.000 Cl
ATOM     34 CL   UNL     1       2.205  13.755  18.177  0.00  0.00    +0.000 Cl
ENDBRANCH  19  31
ENDBRANCH   1  19
TORSDOF 8
ENDMDL
MODEL 8
REMARK VINA RESULT:      -6.6      0.814      1.304
REMARK  Name = 
REMARK  9 active torsions:
REMARK  status: ('A' for Active; 'I' for Inactive)
REMARK    1  A    between atoms: C_1  and  C_2
REMARK    2  A    between atoms: C_5  and  C_6
REMARK    3  A    between atoms: N_8  and  C_9
REMARK    4  A    between atoms: C_9  and  N_10
REMARK    5  A    between atoms: C_9  and  C_24
REMARK    6  A    between atoms: C_11  and  S_12
REMARK    7  A    between atoms: N_13  and  C_14
REMARK    8  A    between atoms: C_17  and  S_18
REMARK    9  A    between atoms: S_18  and  N_19
REMARK                            x       y       z     vdW  Elec       q    Type
REMARK                         _______ _______ _______ _____ _____    ______ ____
ROOT
ATOM      1  N   UNL     1       0.230   9.671  20.327  0.00  0.00    +0.000 NA
ATOM      2  C   UNL     1       0.481   9.209  21.495  0.00  0.00    +0.000 C 
ATOM      3  N   UNL     1       1.383   8.206  21.711  0.00  0.00    +0.000 N 
ATOM      4  H   UNL     1       1.892   8.239  22.582  0.00  0.00    +0.000 HD
ENDROOT
BRANCH   3   5
ATOM      5  C   UNL     1       1.769   7.233  20.778  0.00  0.00    +0.000 A 
ATOM      6  C   UNL     1       2.306   7.636  19.548  0.00  0.00    +0.000 A 
ATOM      7  C   UNL     1       2.671   6.690  18.587  0.00  0.00    +0.000 A 
ATOM      8  C   UNL     1       2.504   5.331  18.857  0.00  0.00    +0.000 A 
ATOM      9  C   UNL     1       1.952   4.906  20.061  0.00  0.00    +0.000 A 
ATOM     10  C   UNL     1       1.591   5.858  21.012  0.00  0.00    +0.000 A 
BRANCH   8  11
ATOM     11  S   UNL     1       2.992   4.136  17.659  0.00  0.00    +0.000 S 
ATOM     12  O   UNL     1       1.825   3.534  17.053  0.00  0.00    +0.000 OA
ATOM     13  O   UNL     1       4.081   4.663  16.868  0.00  0.00    +0.000 OA
BRANCH  11  14
ATOM     14  N   UNL     1       3.664   2.949  18.638  0.00  0.00    +0.000 NA
ATOM     15  H   UNL     1       3.997   3.363  19.509  0.00  0.00    +0.000 HD
ATOM     16  H   UNL     1       3.002   2.184  18.765  0.00  0.00    +0.000 HD
ENDBRANCH  11  14
ENDBRANCH   8  11
ENDBRANCH   3   5
BRANCH   2  17
ATOM     17  S   UNL     1      -0.281   9.756  22.975  0.00  0.00    +0.000 S 
ATOM     18  H   UNL     1       0.834  10.257  23.533  0.00  0.00    +0.000 HD
ENDBRANCH   2  17
BRANCH   1  19
ATOM     19  C   UNL     1      -0.664  10.781  20.051  0.00  0.00    +0.000 C 
BRANCH  19  22
ATOM     20  C   UNL     1      -2.440  10.957  18.360  0.00  0.00    +0.000 C 
ATOM     21  O   UNL     1      -3.070  11.738  19.066  0.00  0.00    +0.000 OA
ATOM     22  N   UNL     1      -1.278  10.381  18.800  0.00  0.00    +0.000 N 
ATOM     23  H   UNL     1      -0.711   9.792  18.216  0.00  0.00    +0.000 HD
BRANCH  20  28
ATOM     24  C   UNL     1      -4.266  10.058  12.932  0.00  0.00    +0.000 C 
ATOM     25  C   UNL     1      -3.831  10.215  14.359  0.00  0.00    +0.000 A 
ATOM     26  C   UNL     1      -4.503  11.087  15.218  0.00  0.00    +0.000 A 
ATOM     27  C   UNL     1      -4.046  11.286  16.521  0.00  0.00    +0.000 A 
ATOM     28  C   UNL     1      -2.910  10.614  16.988  0.00  0.00    +0.000 A 
ATOM     29  C   UNL     1      -2.259   9.707  16.141  0.00  0.00    +0.000 A 
ATOM     30  C   UNL     1      -2.720   9.510  14.835  0.00  0.00    +0.000 A 
ENDBRANCH  20  28
ENDBRANCH  19  22
BRANCH  19  31
ATOM     31  C   UNL     1       0.111  12.186  20.039  0.00  0.00    +0.000 C 
ATOM     32 CL   UNL     1       0.238  12.921  18.392  0.00  0.00    +0.000 Cl
ATOM     33 CL   UNL     1      -0.721  13.378  21.112  0.00  0.00    +0.000 Cl
ATOM     34 CL   UNL     1       1.815  12.060  20.661  0.00  0.00    +0.000 Cl
ENDBRANCH  19  31
ENDBRANCH   1  19
TORSDOF 8
ENDMDL
MODEL 9
REMARK VINA RESULT:      -6.5      3.555      5.105
REMARK  Name = 
REMARK  9 active torsions:
REMARK  status: ('A' for Active; 'I' for Inactive)
REMARK    1  A    between atoms: C_1  and  C_2
REMARK    2  A    between atoms: C_5  and  C_6
REMARK    3  A    between atoms: N_8  and  C_9
REMARK    4  A    between atoms: C_9  and  N_10
REMARK    5  A    between atoms: C_9  and  C_24
REMARK    6  A    between atoms: C_11  and  S_12
REMARK    7  A    between atoms: N_13  and  C_14
REMARK    8  A    between atoms: C_17  and  S_18
REMARK    9  A    between atoms: S_18  and  N_19
REMARK                            x       y       z     vdW  Elec       q    Type
REMARK                         _______ _______ _______ _____ _____    ______ ____
ROOT
ATOM      1  N   UNL     1       0.075   9.774  18.161  0.00  0.00    +0.000 NA
ATOM      2  C   UNL     1       1.307  10.110  18.269  0.00  0.00    +0.000 C 
ATOM      3  N   UNL     1       2.313   9.192  18.361  0.00  0.00    +0.000 N 
ATOM      4  H   UNL     1       3.197   9.450  17.945  0.00  0.00    +0.000 HD
ENDROOT
BRANCH   3   5
ATOM      5  C   UNL     1       2.188   7.880  18.840  0.00  0.00    +0.000 A 
ATOM      6  C   UNL     1       1.861   7.668  20.185  0.00  0.00    +0.000 A 
ATOM      7  C   UNL     1       1.760   6.373  20.699  0.00  0.00    +0.000 A 
ATOM      8  C   UNL     1       1.982   5.279  19.860  0.00  0.00    +0.000 A 
ATOM      9  C   UNL     1       2.329   5.462  18.526  0.00  0.00    +0.000 A 
ATOM     10  C   UNL     1       2.428   6.759  18.025  0.00  0.00    +0.000 A 
BRANCH   8  11
ATOM     11  S   UNL     1       1.824   3.645  20.496  0.00  0.00    +0.000 S 
ATOM     12  O   UNL     1       2.108   3.634  21.914  0.00  0.00    +0.000 OA
ATOM     13  O   UNL     1       0.639   3.026  19.947  0.00  0.00    +0.000 OA
BRANCH  11  14
ATOM     14  N   UNL     1       3.126   2.881  19.762  0.00  0.00    +0.000 NA
ATOM     15  H   UNL     1       3.885   3.548  19.618  0.00  0.00    +0.000 HD
ATOM     16  H   UNL     1       3.393   2.054  20.294  0.00  0.00    +0.000 HD
ENDBRANCH  11  14
ENDBRANCH   8  11
ENDBRANCH   3   5
BRANCH   2  17
ATOM     17  S   UNL     1       1.895  11.759  18.330  0.00  0.00    +0.000 S 
ATOM     18  H   UNL     1       1.736  11.919  19.655  0.00  0.00    +0.000 HD
ENDBRANCH   2  17
BRANCH   1  19
ATOM     19  C   UNL     1      -1.025  10.706  17.989  0.00  0.00    +0.000 C 
BRANCH  19  22
ATOM     20  C   UNL     1      -1.682  12.189  19.837  0.00  0.00    +0.000 C 
ATOM     21  O   UNL     1      -1.396  13.182  19.175  0.00  0.00    +0.000 OA
ATOM     22  N   UNL     1      -1.461  10.927  19.354  0.00  0.00    +0.000 N 
ATOM     23  H   UNL     1      -1.748  10.100  19.848  0.00  0.00    +0.000 HD
BRANCH  20  28
ATOM     24  C   UNL     1      -4.415  12.479  24.941  0.00  0.00    +0.000 C 
ATOM     25  C   UNL     1      -3.662  12.475  23.643  0.00  0.00    +0.000 A 
ATOM     26  C   UNL     1      -4.261  12.940  22.470  0.00  0.00    +0.000 A 
ATOM     27  C   UNL     1      -3.582  12.862  21.254  0.00  0.00    +0.000 A 
ATOM     28  C   UNL     1      -2.293  12.319  21.190  0.00  0.00    +0.000 A 
ATOM     29  C   UNL     1      -1.674  11.891  22.372  0.00  0.00    +0.000 A 
ATOM     30  C   UNL     1      -2.358  11.971  23.590  0.00  0.00    +0.000 A 
ENDBRANCH  20  28
ENDBRANCH  19  22
BRANCH  19  31
ATOM     31  C   UNL     1      -2.134  10.144  16.976  0.00  0.00    +0.000 C 
ATOM     32 CL   UNL     1      -1.522   8.823  15.904  0.00  0.00    +0.000 Cl
ATOM     33 CL   UNL     1      -3.557   9.501  17.885  0.00  0.00    +0.000 Cl
ATOM     34 CL   UNL     1      -2.790  11.424  15.864  0.00  0.00    +0.000 Cl
ENDBRANCH  19  31
ENDBRANCH   1  19
TORSDOF 8
ENDMDL
