MODEL 1
REMARK VINA RESULT:      -8.8      0.000      0.000
REMARK  Name = 
REMARK  7 active torsions:
REMARK  status: ('A' for Active; 'I' for Inactive)
REMARK    1  A    between atoms: C_1  and  C_2
REMARK    2  A    between atoms: C_2  and  C_3
REMARK    3  A    between atoms: C_3  and  C_4
REMARK    4  A    between atoms: C_6  and  C_7
REMARK    5  A    between atoms: N_9  and  C_10
REMARK    6  A    between atoms: C_10  and  C_11
REMARK    7  A    between atoms: C_11  and  N_12
REMARK                            x       y       z     vdW  Elec       q    Type
REMARK                         _______ _______ _______ _____ _____    ______ ____
ROOT
ATOM      1  C   UNL     1       7.318   5.399  16.071  0.00  0.00    +0.000 C 
ATOM      2  O   UNL     1       7.417   6.602  16.274  0.00  0.00    +0.000 OA
ATOM      3  N   UNL     1       7.449   4.463  17.064  0.00  0.00    +0.000 N 
ATOM      4  H   UNL     1       7.430   3.481  16.808  0.00  0.00    +0.000 HD
ENDROOT
BRANCH   1   7
ATOM      5  C   UNL     1       6.377   3.869  12.889  0.00  0.00    +0.000 A 
ATOM      6  C   UNL     1       6.177   3.901  14.288  0.00  0.00    +0.000 A 
ATOM      7  C   UNL     1       7.043   4.866  14.762  0.00  0.00    +0.000 A 
ATOM      8  N   UNL     1       7.696   5.329  13.653  0.00  0.00    +0.000 N 
ATOM      9  N   UNL     1       7.306   4.753  12.504  0.00  0.00    +0.000 NA
ATOM     10  H   UNL     1       8.410   6.050  13.625  0.00  0.00    +0.000 HD
BRANCH   5  11
ATOM     11  C   UNL     1       5.677   3.013  11.889  0.00  0.00    +0.000 C 
BRANCH  11  13
ATOM     12  C   UNL     1       3.704   3.608  10.440  0.00  0.00    +0.000 C 
ATOM     13  C   UNL     1       4.172   3.276  11.847  0.00  0.00    +0.000 C 
ENDBRANCH  11  13
ENDBRANCH   5  11
ENDBRANCH   1   7
BRANCH   3  14
ATOM     14  C   UNL     1       7.785   4.815  18.430  0.00  0.00    +0.000 C 
BRANCH  14  15
ATOM     15  C   UNL     1       6.629   5.456  19.211  0.00  0.00    +0.000 C 
BRANCH  15  16
ATOM     16  N   UNL     1       5.347   4.818  18.992  0.00  0.00    +0.000 N 
ATOM     17  N   UNL     1       5.075   3.521  19.399  0.00  0.00    +0.000 NA
ATOM     18  C   UNL     1       3.826   3.357  19.087  0.00  0.00    +0.000 A 
ATOM     19  C   UNL     1       2.988   2.154  19.277  0.00  0.00    +0.000 A 
ATOM     20  C   UNL     1       1.713   2.205  18.850  0.00  0.00    +0.000 A 
ATOM     21  C   UNL     1       1.167   3.398  18.228  0.00  0.00    +0.000 A 
ATOM     22  C   UNL     1       1.937   4.485  18.083  0.00  0.00    +0.000 A 
ATOM     23  N   UNL     1       3.232   4.438  18.517  0.00  0.00    +0.000 N 
ATOM     24  C   UNL     1       4.193   5.410  18.458  0.00  0.00    +0.000 A 
ATOM     25  O   UNL     1       4.085   6.542  18.006  0.00  0.00    +0.000 OA
ENDBRANCH  15  16
ENDBRANCH  14  15
ENDBRANCH   3  14
TORSDOF 6
ENDMDL
MODEL 2
REMARK VINA RESULT:      -8.3      0.640      1.002
REMARK  Name = 
REMARK  7 active torsions:
REMARK  status: ('A' for Active; 'I' for Inactive)
REMARK    1  A    between atoms: C_1  and  C_2
REMARK    2  A    between atoms: C_2  and  C_3
REMARK    3  A    between atoms: C_3  and  C_4
REMARK    4  A    between atoms: C_6  and  C_7
REMARK    5  A    between atoms: N_9  and  C_10
REMARK    6  A    between atoms: C_10  and  C_11
REMARK    7  A    between atoms: C_11  and  N_12
REMARK                            x       y       z     vdW  Elec       q    Type
REMARK                         _______ _______ _______ _____ _____    ______ ____
ROOT
ATOM      1  C   UNL     1       7.378   5.312  16.118  0.00  0.00    +0.000 C 
ATOM      2  O   UNL     1       7.562   6.512  16.272  0.00  0.00    +0.000 OA
ATOM      3  N   UNL     1       7.458   4.409  17.146  0.00  0.00    +0.000 N 
ATOM      4  H   UNL     1       7.368   3.421  16.929  0.00  0.00    +0.000 HD
ENDROOT
BRANCH   1   7
ATOM      5  C   UNL     1       6.287   3.736  13.006  0.00  0.00    +0.000 A 
ATOM      6  C   UNL     1       6.094   3.852  14.402  0.00  0.00    +0.000 A 
ATOM      7  C   UNL     1       7.050   4.749  14.834  0.00  0.00    +0.000 A 
ATOM      8  N   UNL     1       7.745   5.094  13.706  0.00  0.00    +0.000 N 
ATOM      9  N   UNL     1       7.298   4.506  12.584  0.00  0.00    +0.000 NA
ATOM     10  H   UNL     1       8.526   5.739  13.648  0.00  0.00    +0.000 HD
BRANCH   5  11
ATOM     11  C   UNL     1       5.505   2.908  12.045  0.00  0.00    +0.000 C 
BRANCH  11  13
ATOM     12  C   UNL     1       6.139   0.648  11.130  0.00  0.00    +0.000 C 
ATOM     13  C   UNL     1       6.401   2.143  11.070  0.00  0.00    +0.000 C 
ENDBRANCH  11  13
ENDBRANCH   5  11
ENDBRANCH   1   7
BRANCH   3  14
ATOM     14  C   UNL     1       7.835   4.789  18.493  0.00  0.00    +0.000 C 
BRANCH  14  15
ATOM     15  C   UNL     1       6.705   5.452  19.292  0.00  0.00    +0.000 C 
BRANCH  15  16
ATOM     16  N   UNL     1       5.392   4.903  19.020  0.00  0.00    +0.000 N 
ATOM     17  N   UNL     1       5.027   3.616  19.382  0.00  0.00    +0.000 NA
ATOM     18  C   UNL     1       3.779   3.540  19.031  0.00  0.00    +0.000 A 
ATOM     19  C   UNL     1       2.862   2.390  19.163  0.00  0.00    +0.000 A 
ATOM     20  C   UNL     1       1.606   2.533  18.702  0.00  0.00    +0.000 A 
ATOM     21  C   UNL     1       1.155   3.775  18.099  0.00  0.00    +0.000 A 
ATOM     22  C   UNL     1       1.996   4.814  18.006  0.00  0.00    +0.000 A 
ATOM     23  N   UNL     1       3.272   4.672  18.476  0.00  0.00    +0.000 N 
ATOM     24  C   UNL     1       4.294   5.582  18.471  0.00  0.00    +0.000 A 
ATOM     25  O   UNL     1       4.272   6.730  18.048  0.00  0.00    +0.000 OA
ENDBRANCH  15  16
ENDBRANCH  14  15
ENDBRANCH   3  14
TORSDOF 6
ENDMDL
MODEL 3
REMARK VINA RESULT:      -8.2      1.713      2.409
REMARK  Name = 
REMARK  7 active torsions:
REMARK  status: ('A' for Active; 'I' for Inactive)
REMARK    1  A    between atoms: C_1  and  C_2
REMARK    2  A    between atoms: C_2  and  C_3
REMARK    3  A    between atoms: C_3  and  C_4
REMARK    4  A    between atoms: C_6  and  C_7
REMARK    5  A    between atoms: N_9  and  C_10
REMARK    6  A    between atoms: C_10  and  C_11
REMARK    7  A    between atoms: C_11  and  N_12
REMARK                            x       y       z     vdW  Elec       q    Type
REMARK                         _______ _______ _______ _____ _____    ______ ____
ROOT
ATOM      1  C   UNL     1       6.738   4.456  13.983  0.00  0.00    +0.000 C 
ATOM      2  O   UNL     1       7.580   5.298  13.695  0.00  0.00    +0.000 OA
ATOM      3  N   UNL     1       6.501   4.052  15.271  0.00  0.00    +0.000 N 
ATOM      4  H   UNL     1       5.842   3.295  15.425  0.00  0.00    +0.000 HD
ENDROOT
BRANCH   1   7
ATOM      5  C   UNL     1       4.450   3.119  11.467  0.00  0.00    +0.000 A 
ATOM      6  C   UNL     1       4.697   4.138  12.415  0.00  0.00    +0.000 A 
ATOM      7  C   UNL     1       5.916   3.826  12.983  0.00  0.00    +0.000 A 
ATOM      8  N   UNL     1       6.306   2.668  12.367  0.00  0.00    +0.000 N 
ATOM      9  N   UNL     1       5.444   2.223  11.437  0.00  0.00    +0.000 NA
ATOM     10  H   UNL     1       7.160   2.148  12.537  0.00  0.00    +0.000 HD
BRANCH   5  11
ATOM     11  C   UNL     1       3.275   2.987  10.559  0.00  0.00    +0.000 C 
BRANCH  11  13
ATOM     12  C   UNL     1       2.163   4.835   9.259  0.00  0.00    +0.000 C 
ATOM     13  C   UNL     1       3.368   3.913   9.346  0.00  0.00    +0.000 C 
ENDBRANCH  11  13
ENDBRANCH   5  11
ENDBRANCH   1   7
BRANCH   3  14
ATOM     14  C   UNL     1       7.274   4.536  16.398  0.00  0.00    +0.000 C 
BRANCH  14  15
ATOM     15  C   UNL     1       6.538   5.571  17.259  0.00  0.00    +0.000 C 
BRANCH  15  16
ATOM     16  N   UNL     1       5.288   5.091  17.815  0.00  0.00    +0.000 N 
ATOM     17  N   UNL     1       4.116   5.028  17.079  0.00  0.00    +0.000 NA
ATOM     18  C   UNL     1       3.266   4.490  17.900  0.00  0.00    +0.000 A 
ATOM     19  C   UNL     1       1.839   4.185  17.669  0.00  0.00    +0.000 A 
ATOM     20  C   UNL     1       1.140   3.645  18.683  0.00  0.00    +0.000 A 
ATOM     21  C   UNL     1       1.760   3.363  19.966  0.00  0.00    +0.000 A 
ATOM     22  C   UNL     1       3.060   3.629  20.151  0.00  0.00    +0.000 A 
ATOM     23  N   UNL     1       3.773   4.175  19.121  0.00  0.00    +0.000 N 
ATOM     24  C   UNL     1       5.092   4.539  19.089  0.00  0.00    +0.000 A 
ATOM     25  O   UNL     1       5.917   4.440  19.987  0.00  0.00    +0.000 OA
ENDBRANCH  15  16
ENDBRANCH  14  15
ENDBRANCH   3  14
TORSDOF 6
ENDMDL
MODEL 4
REMARK VINA RESULT:      -8.1      1.235      1.848
REMARK  Name = 
REMARK  7 active torsions:
REMARK  status: ('A' for Active; 'I' for Inactive)
REMARK    1  A    between atoms: C_1  and  C_2
REMARK    2  A    between atoms: C_2  and  C_3
REMARK    3  A    between atoms: C_3  and  C_4
REMARK    4  A    between atoms: C_6  and  C_7
REMARK    5  A    between atoms: N_9  and  C_10
REMARK    6  A    between atoms: C_10  and  C_11
REMARK    7  A    between atoms: C_11  and  N_12
REMARK                            x       y       z     vdW  Elec       q    Type
REMARK                         _______ _______ _______ _____ _____    ______ ____
ROOT
ATOM      1  C   UNL     1       7.225   5.290  16.159  0.00  0.00    +0.000 C 
ATOM      2  O   UNL     1       7.490   6.461  16.396  0.00  0.00    +0.000 OA
ATOM      3  N   UNL     1       7.172   4.327  17.134  0.00  0.00    +0.000 N 
ATOM      4  H   UNL     1       7.021   3.363  16.853  0.00  0.00    +0.000 HD
ENDROOT
BRANCH   1   7
ATOM      5  C   UNL     1       6.228   3.960  12.905  0.00  0.00    +0.000 A 
ATOM      6  C   UNL     1       5.987   3.976  14.297  0.00  0.00    +0.000 A 
ATOM      7  C   UNL     1       6.937   4.826  14.827  0.00  0.00    +0.000 A 
ATOM      8  N   UNL     1       7.674   5.244  13.752  0.00  0.00    +0.000 N 
ATOM      9  N   UNL     1       7.261   4.746  12.575  0.00  0.00    +0.000 NA
ATOM     10  H   UNL     1       8.463   5.881  13.769  0.00  0.00    +0.000 HD
BRANCH   5  11
ATOM     11  C   UNL     1       5.472   3.215  11.858  0.00  0.00    +0.000 C 
BRANCH  11  13
ATOM     12  C   UNL     1       7.171   1.661  10.837  0.00  0.00    +0.000 C 
ATOM     13  C   UNL     1       5.940   1.766  11.721  0.00  0.00    +0.000 C 
ENDBRANCH  11  13
ENDBRANCH   5  11
ENDBRANCH   1   7
BRANCH   3  14
ATOM     14  C   UNL     1       7.491   4.601  18.522  0.00  0.00    +0.000 C 
BRANCH  14  15
ATOM     15  C   UNL     1       6.368   5.309  19.292  0.00  0.00    +0.000 C 
BRANCH  15  16
ATOM     16  N   UNL     1       5.058   4.723  19.089  0.00  0.00    +0.000 N 
ATOM     17  N   UNL     1       4.073   5.332  18.327  0.00  0.00    +0.000 NA
ATOM     18  C   UNL     1       3.101   4.472  18.338  0.00  0.00    +0.000 A 
ATOM     19  C   UNL     1       1.775   4.585  17.696  0.00  0.00    +0.000 A 
ATOM     20  C   UNL     1       0.908   3.570  17.864  0.00  0.00    +0.000 A 
ATOM     21  C   UNL     1       1.255   2.396  18.645  0.00  0.00    +0.000 A 
ATOM     22  C   UNL     1       2.470   2.304  19.204  0.00  0.00    +0.000 A 
ATOM     23  N   UNL     1       3.353   3.332  19.033  0.00  0.00    +0.000 N 
ATOM     24  C   UNL     1       4.626   3.459  19.518  0.00  0.00    +0.000 A 
ATOM     25  O   UNL     1       5.247   2.662  20.209  0.00  0.00    +0.000 OA
ENDBRANCH  15  16
ENDBRANCH  14  15
ENDBRANCH   3  14
TORSDOF 6
ENDMDL
MODEL 5
REMARK VINA RESULT:      -8.1      2.391      3.283
REMARK  Name = 
REMARK  7 active torsions:
REMARK  status: ('A' for Active; 'I' for Inactive)
REMARK    1  A    between atoms: C_1  and  C_2
REMARK    2  A    between atoms: C_2  and  C_3
REMARK    3  A    between atoms: C_3  and  C_4
REMARK    4  A    between atoms: C_6  and  C_7
REMARK    5  A    between atoms: N_9  and  C_10
REMARK    6  A    between atoms: C_10  and  C_11
REMARK    7  A    between atoms: C_11  and  N_12
REMARK                            x       y       z     vdW  Elec       q    Type
REMARK                         _______ _______ _______ _____ _____    ______ ____
ROOT
ATOM      1  C   UNL     1       6.339   4.889  16.865  0.00  0.00    +0.000 C 
ATOM      2  O   UNL     1       6.675   5.878  17.503  0.00  0.00    +0.000 OA
ATOM      3  N   UNL     1       5.621   3.858  17.412  0.00  0.00    +0.000 N 
ATOM      4  H   UNL     1       5.446   3.036  16.842  0.00  0.00    +0.000 HD
ENDROOT
BRANCH   1   7
ATOM      5  C   UNL     1       6.922   4.278  13.309  0.00  0.00    +0.000 A 
ATOM      6  C   UNL     1       6.192   3.918  14.464  0.00  0.00    +0.000 A 
ATOM      7  C   UNL     1       6.668   4.733  15.471  0.00  0.00    +0.000 A 
ATOM      8  N   UNL     1       7.635   5.498  14.878  0.00  0.00    +0.000 N 
ATOM      9  N   UNL     1       7.802   5.254  13.567  0.00  0.00    +0.000 NA
ATOM     10  H   UNL     1       8.201   6.213  15.322  0.00  0.00    +0.000 HD
BRANCH   5  11
ATOM     11  C   UNL     1       6.786   3.717  11.934  0.00  0.00    +0.000 C 
BRANCH  11  13
ATOM     12  C   UNL     1       4.334   3.371  11.476  0.00  0.00    +0.000 C 
ATOM     13  C   UNL     1       5.650   2.699  11.829  0.00  0.00    +0.000 C 
ENDBRANCH  11  13
ENDBRANCH   5  11
ENDBRANCH   1   7
BRANCH   3  14
ATOM     14  C   UNL     1       5.254   3.818  18.814  0.00  0.00    +0.000 C 
BRANCH  14  15
ATOM     15  C   UNL     1       3.742   3.888  19.064  0.00  0.00    +0.000 C 
BRANCH  15  16
ATOM     16  N   UNL     1       3.210   5.236  19.080  0.00  0.00    +0.000 N 
ATOM     17  N   UNL     1       3.337   6.105  18.008  0.00  0.00    +0.000 NA
ATOM     18  C   UNL     1       2.681   7.159  18.387  0.00  0.00    +0.000 A 
ATOM     19  C   UNL     1       2.481   8.424  17.651  0.00  0.00    +0.000 A 
ATOM     20  C   UNL     1       1.779   9.399  18.258  0.00  0.00    +0.000 A 
ATOM     21  C   UNL     1       1.228   9.221  19.590  0.00  0.00    +0.000 A 
ATOM     22  C   UNL     1       1.403   8.059  20.233  0.00  0.00    +0.000 A 
ATOM     23  N   UNL     1       2.113   7.066  19.619  0.00  0.00    +0.000 N 
ATOM     24  C   UNL     1       2.426   5.819  20.087  0.00  0.00    +0.000 A 
ATOM     25  O   UNL     1       2.123   5.327  21.164  0.00  0.00    +0.000 OA
ENDBRANCH  15  16
ENDBRANCH  14  15
ENDBRANCH   3  14
TORSDOF 6
ENDMDL
MODEL 6
REMARK VINA RESULT:      -7.9      1.477      1.924
REMARK  Name = 
REMARK  7 active torsions:
REMARK  status: ('A' for Active; 'I' for Inactive)
REMARK    1  A    between atoms: C_1  and  C_2
REMARK    2  A    between atoms: C_2  and  C_3
REMARK    3  A    between atoms: C_3  and  C_4
REMARK    4  A    between atoms: C_6  and  C_7
REMARK    5  A    between atoms: N_9  and  C_10
REMARK    6  A    between atoms: C_10  and  C_11
REMARK    7  A    between atoms: C_11  and  N_12
REMARK                            x       y       z     vdW  Elec       q    Type
REMARK                         _______ _______ _______ _____ _____    ______ ____
ROOT
ATOM      1  C   UNL     1       6.571   5.507  15.258  0.00  0.00    +0.000 C 
ATOM      2  O   UNL     1       7.624   5.520  15.882  0.00  0.00    +0.000 OA
ATOM      3  N   UNL     1       5.472   6.234  15.635  0.00  0.00    +0.000 N 
ATOM      4  H   UNL     1       4.611   6.114  15.112  0.00  0.00    +0.000 HD
ENDROOT
BRANCH   1   7
ATOM      5  C   UNL     1       5.847   3.443  12.329  0.00  0.00    +0.000 A 
ATOM      6  C   UNL     1       5.416   3.876  13.604  0.00  0.00    +0.000 A 
ATOM      7  C   UNL     1       6.405   4.725  14.059  0.00  0.00    +0.000 A 
ATOM      8  N   UNL     1       7.344   4.738  13.065  0.00  0.00    +0.000 N 
ATOM      9  N   UNL     1       7.028   3.981  12.000  0.00  0.00    +0.000 NA
ATOM     10  H   UNL     1       8.214   5.259  13.058  0.00  0.00    +0.000 HD
BRANCH   5  11
ATOM     11  C   UNL     1       5.138   2.527  11.392  0.00  0.00    +0.000 C 
BRANCH  11  13
ATOM     12  C   UNL     1       3.497   3.915  10.077  0.00  0.00    +0.000 C 
ATOM     13  C   UNL     1       3.670   2.908  11.202  0.00  0.00    +0.000 C 
ENDBRANCH  11  13
ENDBRANCH   5  11
ENDBRANCH   1   7
BRANCH   3  14
ATOM     14  C   UNL     1       5.441   7.030  16.847  0.00  0.00    +0.000 C 
BRANCH  14  15
ATOM     15  C   UNL     1       5.619   6.213  18.133  0.00  0.00    +0.000 C 
BRANCH  15  16
ATOM     16  N   UNL     1       4.550   5.267  18.383  0.00  0.00    +0.000 N 
ATOM     17  N   UNL     1       3.268   5.435  17.881  0.00  0.00    +0.000 NA
ATOM     18  C   UNL     1       2.647   4.361  18.263  0.00  0.00    +0.000 A 
ATOM     19  C   UNL     1       1.237   3.988  18.026  0.00  0.00    +0.000 A 
ATOM     20  C   UNL     1       0.799   2.826  18.543  0.00  0.00    +0.000 A 
ATOM     21  C   UNL     1       1.677   1.956  19.306  0.00  0.00    +0.000 A 
ATOM     22  C   UNL     1       2.958   2.302  19.494  0.00  0.00    +0.000 A 
ATOM     23  N   UNL     1       3.406   3.481  18.968  0.00  0.00    +0.000 N 
ATOM     24  C   UNL     1       4.654   4.036  19.047  0.00  0.00    +0.000 A 
ATOM     25  O   UNL     1       5.642   3.580  19.605  0.00  0.00    +0.000 OA
ENDBRANCH  15  16
ENDBRANCH  14  15
ENDBRANCH   3  14
TORSDOF 6
ENDMDL
MODEL 7
REMARK VINA RESULT:      -7.8      1.142      1.180
REMARK  Name = 
REMARK  7 active torsions:
REMARK  status: ('A' for Active; 'I' for Inactive)
REMARK    1  A    between atoms: C_1  and  C_2
REMARK    2  A    between atoms: C_2  and  C_3
REMARK    3  A    between atoms: C_3  and  C_4
REMARK    4  A    between atoms: C_6  and  C_7
REMARK    5  A    between atoms: N_9  and  C_10
REMARK    6  A    between atoms: C_10  and  C_11
REMARK    7  A    between atoms: C_11  and  N_12
REMARK                            x       y       z     vdW  Elec       q    Type
REMARK                         _______ _______ _______ _____ _____    ______ ____
ROOT
ATOM      1  C   UNL     1       7.046   5.021  15.669  0.00  0.00    +0.000 C 
ATOM      2  O   UNL     1       7.575   6.119  15.791  0.00  0.00    +0.000 OA
ATOM      3  N   UNL     1       6.737   4.222  16.739  0.00  0.00    +0.000 N 
ATOM      4  H   UNL     1       6.371   3.293  16.556  0.00  0.00    +0.000 HD
ENDROOT
BRANCH   1   7
ATOM      5  C   UNL     1       5.874   3.547  12.537  0.00  0.00    +0.000 A 
ATOM      6  C   UNL     1       5.640   3.723  13.920  0.00  0.00    +0.000 A 
ATOM      7  C   UNL     1       6.696   4.482  14.381  0.00  0.00    +0.000 A 
ATOM      8  N   UNL     1       7.481   4.697  13.281  0.00  0.00    +0.000 N 
ATOM      9  N   UNL     1       7.003   4.154  12.149  0.00  0.00    +0.000 NA
ATOM     10  H   UNL     1       8.349   5.221  13.248  0.00  0.00    +0.000 HD
BRANCH   5  11
ATOM     11  C   UNL     1       5.023   2.818  11.555  0.00  0.00    +0.000 C 
BRANCH  11  13
ATOM     12  C   UNL     1       2.928   2.919  10.161  0.00  0.00    +0.000 C 
ATOM     13  C   UNL     1       3.986   3.726  10.894  0.00  0.00    +0.000 C 
ENDBRANCH  11  13
ENDBRANCH   5  11
ENDBRANCH   1   7
BRANCH   3  14
ATOM     14  C   UNL     1       7.071   4.578  18.104  0.00  0.00    +0.000 C 
BRANCH  14  15
ATOM     15  C   UNL     1       6.027   5.470  18.788  0.00  0.00    +0.000 C 
BRANCH  15  16
ATOM     16  N   UNL     1       4.766   4.805  19.051  0.00  0.00    +0.000 N 
ATOM     17  N   UNL     1       4.354   4.456  20.327  0.00  0.00    +0.000 NA
ATOM     18  C   UNL     1       3.170   3.957  20.141  0.00  0.00    +0.000 A 
ATOM     19  C   UNL     1       2.243   3.404  21.151  0.00  0.00    +0.000 A 
ATOM     20  C   UNL     1       1.067   2.914  20.721  0.00  0.00    +0.000 A 
ATOM     21  C   UNL     1       0.707   2.929  19.314  0.00  0.00    +0.000 A 
ATOM     22  C   UNL     1       1.552   3.453  18.416  0.00  0.00    +0.000 A 
ATOM     23  N   UNL     1       2.747   3.953  18.850  0.00  0.00    +0.000 N 
ATOM     24  C   UNL     1       3.759   4.515  18.119  0.00  0.00    +0.000 A 
ATOM     25  O   UNL     1       3.797   4.694  16.910  0.00  0.00    +0.000 OA
ENDBRANCH  15  16
ENDBRANCH  14  15
ENDBRANCH   3  14
TORSDOF 6
ENDMDL
MODEL 8
REMARK VINA RESULT:      -7.7      1.285      1.722
REMARK  Name = 
REMARK  7 active torsions:
REMARK  status: ('A' for Active; 'I' for Inactive)
REMARK    1  A    between atoms: C_1  and  C_2
REMARK    2  A    between atoms: C_2  and  C_3
REMARK    3  A    between atoms: C_3  and  C_4
REMARK    4  A    between atoms: C_6  and  C_7
REMARK    5  A    between atoms: N_9  and  C_10
REMARK    6  A    between atoms: C_10  and  C_11
REMARK    7  A    between atoms: C_11  and  N_12
REMARK                            x       y       z     vdW  Elec       q    Type
REMARK                         _______ _______ _______ _____ _____    ______ ____
ROOT
ATOM      1  C   UNL     1       7.193   5.648  15.996  0.00  0.00    +0.000 C 
ATOM      2  O   UNL     1       7.743   6.738  16.087  0.00  0.00    +0.000 OA
ATOM      3  N   UNL     1       6.735   4.952  17.084  0.00  0.00    +0.000 N 
ATOM      4  H   UNL     1       6.359   4.021  16.938  0.00  0.00    +0.000 HD
ENDROOT
BRANCH   1   7
ATOM      5  C   UNL     1       6.369   3.881  12.905  0.00  0.00    +0.000 A 
ATOM      6  C   UNL     1       6.066   4.072  14.272  0.00  0.00    +0.000 A 
ATOM      7  C   UNL     1       6.974   5.008  14.725  0.00  0.00    +0.000 A 
ATOM      8  N   UNL     1       7.750   5.300  13.637  0.00  0.00    +0.000 N 
ATOM      9  N   UNL     1       7.400   4.642  12.519  0.00  0.00    +0.000 NA
ATOM     10  H   UNL     1       8.525   5.954  13.602  0.00  0.00    +0.000 HD
BRANCH   5  11
ATOM     11  C   UNL     1       5.675   2.986  11.935  0.00  0.00    +0.000 C 
BRANCH  11  13
ATOM     12  C   UNL     1       3.740   3.577  10.435  0.00  0.00    +0.000 C 
ATOM     13  C   UNL     1       4.174   3.263  11.857  0.00  0.00    +0.000 C 
ENDBRANCH  11  13
ENDBRANCH   5  11
ENDBRANCH   1   7
BRANCH   3  14
ATOM     14  C   UNL     1       6.923   5.417  18.445  0.00  0.00    +0.000 C 
BRANCH  14  15
ATOM     15  C   UNL     1       6.381   4.457  19.512  0.00  0.00    +0.000 C 
BRANCH  15  16
ATOM     16  N   UNL     1       5.002   4.064  19.303  0.00  0.00    +0.000 N 
ATOM     17  N   UNL     1       4.109   4.823  18.562  0.00  0.00    +0.000 NA
ATOM     18  C   UNL     1       3.027   4.106  18.558  0.00  0.00    +0.000 A 
ATOM     19  C   UNL     1       1.728   4.417  17.926  0.00  0.00    +0.000 A 
ATOM     20  C   UNL     1       0.729   3.529  18.075  0.00  0.00    +0.000 A 
ATOM     21  C   UNL     1       0.912   2.299  18.825  0.00  0.00    +0.000 A 
ATOM     22  C   UNL     1       2.103   2.025  19.374  0.00  0.00    +0.000 A 
ATOM     23  N   UNL     1       3.121   2.925  19.223  0.00  0.00    +0.000 N 
ATOM     24  C   UNL     1       4.400   2.862  19.704  0.00  0.00    +0.000 A 
ATOM     25  O   UNL     1       4.905   1.969  20.371  0.00  0.00    +0.000 OA
ENDBRANCH  15  16
ENDBRANCH  14  15
ENDBRANCH   3  14
TORSDOF 6
ENDMDL
MODEL 9
REMARK VINA RESULT:      -7.7      1.792      2.319
REMARK  Name = 
REMARK  7 active torsions:
REMARK  status: ('A' for Active; 'I' for Inactive)
REMARK    1  A    between atoms: C_1  and  C_2
REMARK    2  A    between atoms: C_2  and  C_3
REMARK    3  A    between atoms: C_3  and  C_4
REMARK    4  A    between atoms: C_6  and  C_7
REMARK    5  A    between atoms: N_9  and  C_10
REMARK    6  A    between atoms: C_10  and  C_11
REMARK    7  A    between atoms: C_11  and  N_12
REMARK                            x       y       z     vdW  Elec       q    Type
REMARK                         _______ _______ _______ _____ _____    ______ ____
ROOT
ATOM      1  C   UNL     1       6.643   4.731  14.277  0.00  0.00    +0.000 C 
ATOM      2  O   UNL     1       7.715   5.275  14.049  0.00  0.00    +0.000 OA
ATOM      3  N   UNL     1       6.052   4.738  15.515  0.00  0.00    +0.000 N 
ATOM      4  H   UNL     1       5.201   4.201  15.646  0.00  0.00    +0.000 HD
ENDROOT
BRANCH   1   7
ATOM      5  C   UNL     1       4.550   3.230  11.685  0.00  0.00    +0.000 A 
ATOM      6  C   UNL     1       4.695   4.273  12.628  0.00  0.00    +0.000 A 
ATOM      7  C   UNL     1       5.904   4.041  13.252  0.00  0.00    +0.000 A 
ATOM      8  N   UNL     1       6.388   2.901  12.670  0.00  0.00    +0.000 N 
ATOM      9  N   UNL     1       5.595   2.395  11.710  0.00  0.00    +0.000 NA
ATOM     10  H   UNL     1       7.263   2.434  12.884  0.00  0.00    +0.000 HD
BRANCH   5  11
ATOM     11  C   UNL     1       3.426   3.018  10.728  0.00  0.00    +0.000 C 
BRANCH  11  13
ATOM     12  C   UNL     1       2.253   4.764   9.343  0.00  0.00    +0.000 C 
ATOM     13  C   UNL     1       3.516   3.935   9.509  0.00  0.00    +0.000 C 
ENDBRANCH  11  13
ENDBRANCH   5  11
ENDBRANCH   1   7
BRANCH   3  14
ATOM     14  C   UNL     1       6.682   5.334  16.677  0.00  0.00    +0.000 C 
BRANCH  14  15
ATOM     15  C   UNL     1       6.592   4.472  17.944  0.00  0.00    +0.000 C 
BRANCH  15  16
ATOM     16  N   UNL     1       5.248   4.339  18.471  0.00  0.00    +0.000 N 
ATOM     17  N   UNL     1       4.744   5.170  19.459  0.00  0.00    +0.000 NA
ATOM     18  C   UNL     1       3.515   4.775  19.595  0.00  0.00    +0.000 A 
ATOM     19  C   UNL     1       2.486   5.292  20.521  0.00  0.00    +0.000 A 
ATOM     20  C   UNL     1       1.276   4.706  20.505  0.00  0.00    +0.000 A 
ATOM     21  C   UNL     1       0.978   3.604  19.606  0.00  0.00    +0.000 A 
ATOM     22  C   UNL     1       1.918   3.162  18.760  0.00  0.00    +0.000 A 
ATOM     23  N   UNL     1       3.148   3.757  18.773  0.00  0.00    +0.000 N 
ATOM     24  C   UNL     1       4.250   3.464  18.017  0.00  0.00    +0.000 A 
ATOM     25  O   UNL     1       4.360   2.602  17.156  0.00  0.00    +0.000 OA
ENDBRANCH  15  16
ENDBRANCH  14  15
ENDBRANCH   3  14
TORSDOF 6
ENDMDL
