MODEL 1
REMARK VINA RESULT:      -6.0      0.000      0.000
REMARK  Name = 
REMARK  1 active torsions:
REMARK  status: ('A' for Active; 'I' for Inactive)
REMARK    1  A    between atoms: C_4  and  C_5
REMARK                            x       y       z     vdW  Elec       q    Type
REMARK                         _______ _______ _______ _____ _____    ______ ____
ROOT
ATOM      1  C   UNL     1       0.726   3.280  20.280  0.00  0.00    +0.000 A 
ATOM      2  C   UNL     1       1.455   4.419  20.602  0.00  0.00    +0.000 A 
ATOM      3  C   UNL     1       2.399   4.926  19.704  0.00  0.00    +0.000 A 
ATOM      4  C   UNL     1       2.648   4.302  18.467  0.00  0.00    +0.000 A 
ATOM      5  C   UNL     1       1.893   3.152  18.166  0.00  0.00    +0.000 A 
ATOM      6  C   UNL     1       0.942   2.648  19.058  0.00  0.00    +0.000 A 
ENDROOT
BRANCH   4   7
ATOM      7  C   UNL     1       3.664   4.827  17.529  0.00  0.00    +0.000 A 
ATOM      8  C   UNL     1       4.337   4.001  16.615  0.00  0.00    +0.000 A 
ATOM      9  C   UNL     1       5.283   4.528  15.735  0.00  0.00    +0.000 A 
ATOM     10  C   UNL     1       5.536   5.886  15.778  0.00  0.00    +0.000 A 
ATOM     11  N   UNL     1       4.923   6.728  16.633  0.00  0.00    +0.000 NA
ATOM     12  C   UNL     1       4.015   6.180  17.481  0.00  0.00    +0.000 A 
ENDBRANCH   4   7
TORSDOF 1
ENDMDL
MODEL 2
REMARK VINA RESULT:      -6.0      1.461      1.542
REMARK  Name = 
REMARK  1 active torsions:
REMARK  status: ('A' for Active; 'I' for Inactive)
REMARK    1  A    between atoms: C_4  and  C_5
REMARK                            x       y       z     vdW  Elec       q    Type
REMARK                         _______ _______ _______ _____ _____    ______ ____
ROOT
ATOM      1  C   UNL     1       0.687   3.149  19.798  0.00  0.00    +0.000 A 
ATOM      2  C   UNL     1       1.487   4.170  20.299  0.00  0.00    +0.000 A 
ATOM      3  C   UNL     1       2.723   4.448  19.708  0.00  0.00    +0.000 A 
ATOM      4  C   UNL     1       3.199   3.706  18.610  0.00  0.00    +0.000 A 
ATOM      5  C   UNL     1       2.366   2.679  18.123  0.00  0.00    +0.000 A 
ATOM      6  C   UNL     1       1.125   2.406  18.706  0.00  0.00    +0.000 A 
ENDROOT
BRANCH   4   7
ATOM      7  C   UNL     1       4.517   3.986  18.002  0.00  0.00    +0.000 A 
ATOM      8  C   UNL     1       4.727   3.939  16.614  0.00  0.00    +0.000 A 
ATOM      9  C   UNL     1       5.981   4.219  16.070  0.00  0.00    +0.000 A 
ATOM     10  C   UNL     1       7.010   4.552  16.929  0.00  0.00    +0.000 A 
ATOM     11  N   UNL     1       6.871   4.611  18.268  0.00  0.00    +0.000 NA
ATOM     12  C   UNL     1       5.640   4.325  18.764  0.00  0.00    +0.000 A 
ENDBRANCH   4   7
TORSDOF 1
ENDMDL
MODEL 3
REMARK VINA RESULT:      -6.0      0.377      1.401
REMARK  Name = 
REMARK  1 active torsions:
REMARK  status: ('A' for Active; 'I' for Inactive)
REMARK    1  A    between atoms: C_4  and  C_5
REMARK                            x       y       z     vdW  Elec       q    Type
REMARK                         _______ _______ _______ _____ _____    ______ ____
ROOT
ATOM      1  C   UNL     1       1.053   3.416  20.653  0.00  0.00    +0.000 A 
ATOM      2  C   UNL     1       0.918   2.986  19.337  0.00  0.00    +0.000 A 
ATOM      3  C   UNL     1       1.805   3.440  18.356  0.00  0.00    +0.000 A 
ATOM      4  C   UNL     1       2.840   4.344  18.659  0.00  0.00    +0.000 A 
ATOM      5  C   UNL     1       2.954   4.761  20.000  0.00  0.00    +0.000 A 
ATOM      6  C   UNL     1       2.075   4.300  20.985  0.00  0.00    +0.000 A 
ENDROOT
BRANCH   4   7
ATOM      7  C   UNL     1       3.762   4.842  17.615  0.00  0.00    +0.000 A 
ATOM      8  C   UNL     1       4.412   3.980  16.717  0.00  0.00    +0.000 A 
ATOM      9  C   UNL     1       5.268   4.481  15.736  0.00  0.00    +0.000 A 
ATOM     10  C   UNL     1       5.453   5.848  15.662  0.00  0.00    +0.000 A 
ATOM     11  N   UNL     1       4.858   6.724  16.495  0.00  0.00    +0.000 NA
ATOM     12  C   UNL     1       4.039   6.202  17.443  0.00  0.00    +0.000 A 
ENDBRANCH   4   7
TORSDOF 1
ENDMDL
MODEL 4
REMARK VINA RESULT:      -6.0      1.731      4.969
REMARK  Name = 
REMARK  1 active torsions:
REMARK  status: ('A' for Active; 'I' for Inactive)
REMARK    1  A    between atoms: C_4  and  C_5
REMARK                            x       y       z     vdW  Elec       q    Type
REMARK                         _______ _______ _______ _____ _____    ______ ____
ROOT
ATOM      1  C   UNL     1       5.501   5.734  15.635  0.00  0.00    +0.000 A 
ATOM      2  C   UNL     1       5.198   4.382  15.752  0.00  0.00    +0.000 A 
ATOM      3  C   UNL     1       4.315   3.944  16.743  0.00  0.00    +0.000 A 
ATOM      4  C   UNL     1       3.724   4.841  17.652  0.00  0.00    +0.000 A 
ATOM      5  C   UNL     1       4.048   6.204  17.510  0.00  0.00    +0.000 A 
ATOM      6  C   UNL     1       4.923   6.646  16.513  0.00  0.00    +0.000 A 
ENDROOT
BRANCH   4   7
ATOM      7  C   UNL     1       2.809   4.372  18.716  0.00  0.00    +0.000 A 
ATOM      8  C   UNL     1       1.790   3.438  18.469  0.00  0.00    +0.000 A 
ATOM      9  C   UNL     1       0.950   3.007  19.496  0.00  0.00    +0.000 A 
ATOM     10  C   UNL     1       1.150   3.515  20.765  0.00  0.00    +0.000 A 
ATOM     11  N   UNL     1       2.109   4.413  21.063  0.00  0.00    +0.000 NA
ATOM     12  C   UNL     1       2.903   4.817  20.038  0.00  0.00    +0.000 A 
ENDBRANCH   4   7
TORSDOF 1
ENDMDL
MODEL 5
REMARK VINA RESULT:      -6.0      1.685      4.796
REMARK  Name = 
REMARK  1 active torsions:
REMARK  status: ('A' for Active; 'I' for Inactive)
REMARK    1  A    between atoms: C_4  and  C_5
REMARK                            x       y       z     vdW  Elec       q    Type
REMARK                         _______ _______ _______ _____ _____    ______ ____
ROOT
ATOM      1  C   UNL     1       5.571   5.616  15.459  0.00  0.00    +0.000 A 
ATOM      2  C   UNL     1       5.029   6.588  16.292  0.00  0.00    +0.000 A 
ATOM      3  C   UNL     1       4.172   6.222  17.333  0.00  0.00    +0.000 A 
ATOM      4  C   UNL     1       3.823   4.878  17.562  0.00  0.00    +0.000 A 
ATOM      5  C   UNL     1       4.388   3.915  16.704  0.00  0.00    +0.000 A 
ATOM      6  C   UNL     1       5.253   4.277  15.667  0.00  0.00    +0.000 A 
ENDROOT
BRANCH   4   7
ATOM      7  C   UNL     1       2.896   4.495  18.650  0.00  0.00    +0.000 A 
ATOM      8  C   UNL     1       1.805   3.638  18.438  0.00  0.00    +0.000 A 
ATOM      9  C   UNL     1       0.955   3.287  19.487  0.00  0.00    +0.000 A 
ATOM     10  C   UNL     1       1.219   3.797  20.744  0.00  0.00    +0.000 A 
ATOM     11  N   UNL     1       2.249   4.624  21.009  0.00  0.00    +0.000 NA
ATOM     12  C   UNL     1       3.050   4.951  19.963  0.00  0.00    +0.000 A 
ENDBRANCH   4   7
TORSDOF 1
ENDMDL
MODEL 6
REMARK VINA RESULT:      -6.0      0.825      1.383
REMARK  Name = 
REMARK  1 active torsions:
REMARK  status: ('A' for Active; 'I' for Inactive)
REMARK    1  A    between atoms: C_4  and  C_5
REMARK                            x       y       z     vdW  Elec       q    Type
REMARK                         _______ _______ _______ _____ _____    ______ ____
ROOT
ATOM      1  C   UNL     1       0.669   3.260  20.146  0.00  0.00    +0.000 A 
ATOM      2  C   UNL     1       1.367   4.417  20.472  0.00  0.00    +0.000 A 
ATOM      3  C   UNL     1       2.336   4.921  19.600  0.00  0.00    +0.000 A 
ATOM      4  C   UNL     1       2.643   4.276  18.387  0.00  0.00    +0.000 A 
ATOM      5  C   UNL     1       1.919   3.107  18.082  0.00  0.00    +0.000 A 
ATOM      6  C   UNL     1       0.942   2.606  18.948  0.00  0.00    +0.000 A 
ENDROOT
BRANCH   4   7
ATOM      7  C   UNL     1       3.686   4.798  17.478  0.00  0.00    +0.000 A 
ATOM      8  C   UNL     1       4.013   6.162  17.416  0.00  0.00    +0.000 A 
ATOM      9  C   UNL     1       5.009   6.622  16.555  0.00  0.00    +0.000 A 
ATOM     10  C   UNL     1       5.674   5.702  15.769  0.00  0.00    +0.000 A 
ATOM     11  N   UNL     1       5.405   4.381  15.783  0.00  0.00    +0.000 NA
ATOM     12  C   UNL     1       4.424   3.970  16.626  0.00  0.00    +0.000 A 
ENDBRANCH   4   7
TORSDOF 1
ENDMDL
MODEL 7
REMARK VINA RESULT:      -6.0      0.849      1.954
REMARK  Name = 
REMARK  1 active torsions:
REMARK  status: ('A' for Active; 'I' for Inactive)
REMARK    1  A    between atoms: C_4  and  C_5
REMARK                            x       y       z     vdW  Elec       q    Type
REMARK                         _______ _______ _______ _____ _____    ______ ____
ROOT
ATOM      1  C   UNL     1       0.912   3.292  20.469  0.00  0.00    +0.000 A 
ATOM      2  C   UNL     1       0.874   2.850  19.152  0.00  0.00    +0.000 A 
ATOM      3  C   UNL     1       1.800   3.333  18.222  0.00  0.00    +0.000 A 
ATOM      4  C   UNL     1       2.779   4.278  18.580  0.00  0.00    +0.000 A 
ATOM      5  C   UNL     1       2.795   4.706  19.922  0.00  0.00    +0.000 A 
ATOM      6  C   UNL     1       1.876   4.218  20.856  0.00  0.00    +0.000 A 
ENDROOT
BRANCH   4   7
ATOM      7  C   UNL     1       3.742   4.806  17.590  0.00  0.00    +0.000 A 
ATOM      8  C   UNL     1       4.042   6.174  17.490  0.00  0.00    +0.000 A 
ATOM      9  C   UNL     1       4.963   6.639  16.552  0.00  0.00    +0.000 A 
ATOM     10  C   UNL     1       5.582   5.719  15.727  0.00  0.00    +0.000 A 
ATOM     11  N   UNL     1       5.335   4.395  15.774  0.00  0.00    +0.000 NA
ATOM     12  C   UNL     1       4.427   3.978  16.693  0.00  0.00    +0.000 A 
ENDBRANCH   4   7
TORSDOF 1
ENDMDL
MODEL 8
REMARK VINA RESULT:      -5.9      1.897      5.132
REMARK  Name = 
REMARK  1 active torsions:
REMARK  status: ('A' for Active; 'I' for Inactive)
REMARK    1  A    between atoms: C_4  and  C_5
REMARK                            x       y       z     vdW  Elec       q    Type
REMARK                         _______ _______ _______ _____ _____    ______ ____
ROOT
ATOM      1  C   UNL     1       5.494   5.732  15.651  0.00  0.00    +0.000 A 
ATOM      2  C   UNL     1       5.236   4.368  15.723  0.00  0.00    +0.000 A 
ATOM      3  C   UNL     1       4.348   3.872  16.683  0.00  0.00    +0.000 A 
ATOM      4  C   UNL     1       3.706   4.722  17.603  0.00  0.00    +0.000 A 
ATOM      5  C   UNL     1       3.985   6.099  17.504  0.00  0.00    +0.000 A 
ATOM      6  C   UNL     1       4.864   6.599  16.539  0.00  0.00    +0.000 A 
ENDROOT
BRANCH   4   7
ATOM      7  C   UNL     1       2.786   4.191  18.632  0.00  0.00    +0.000 A 
ATOM      8  C   UNL     1       2.188   5.015  19.598  0.00  0.00    +0.000 A 
ATOM      9  C   UNL     1       1.316   4.486  20.550  0.00  0.00    +0.000 A 
ATOM     10  C   UNL     1       1.048   3.132  20.514  0.00  0.00    +0.000 A 
ATOM     11  N   UNL     1       1.592   2.290  19.613  0.00  0.00    +0.000 NA
ATOM     12  C   UNL     1       2.443   2.837  18.708  0.00  0.00    +0.000 A 
ENDBRANCH   4   7
TORSDOF 1
ENDMDL
MODEL 9
REMARK VINA RESULT:      -5.9      1.833      4.963
REMARK  Name = 
REMARK  1 active torsions:
REMARK  status: ('A' for Active; 'I' for Inactive)
REMARK    1  A    between atoms: C_4  and  C_5
REMARK                            x       y       z     vdW  Elec       q    Type
REMARK                         _______ _______ _______ _____ _____    ______ ____
ROOT
ATOM      1  C   UNL     1       5.642   5.710  15.640  0.00  0.00    +0.000 A 
ATOM      2  C   UNL     1       4.955   6.583  16.476  0.00  0.00    +0.000 A 
ATOM      3  C   UNL     1       4.005   6.091  17.377  0.00  0.00    +0.000 A 
ATOM      4  C   UNL     1       3.708   4.718  17.458  0.00  0.00    +0.000 A 
ATOM      5  C   UNL     1       4.421   3.857  16.601  0.00  0.00    +0.000 A 
ATOM      6  C   UNL     1       5.378   4.345  15.706  0.00  0.00    +0.000 A 
ENDROOT
BRANCH   4   7
ATOM      7  C   UNL     1       2.686   4.203  18.395  0.00  0.00    +0.000 A 
ATOM      8  C   UNL     1       2.327   4.891  19.565  0.00  0.00    +0.000 A 
ATOM      9  C   UNL     1       1.352   4.384  20.423  0.00  0.00    +0.000 A 
ATOM     10  C   UNL     1       0.739   3.191  20.090  0.00  0.00    +0.000 A 
ATOM     11  N   UNL     1       1.042   2.485  18.983  0.00  0.00    +0.000 NA
ATOM     12  C   UNL     1       2.001   3.003  18.175  0.00  0.00    +0.000 A 
ENDBRANCH   4   7
TORSDOF 1
ENDMDL
