MODEL 1
REMARK VINA RESULT:      -7.1      0.000      0.000
REMARK  Name = 
REMARK  5 active torsions:
REMARK  status: ('A' for Active; 'I' for Inactive)
REMARK    1  A    between atoms: C_1  and  C_2
REMARK    2  A    between atoms: C_2  and  N_3
REMARK    3  A    between atoms: C_7  and  C_9
REMARK    4  A    between atoms: C_12  and  C_13
REMARK    5  A    between atoms: N_14  and  C_15
REMARK                            x       y       z     vdW  Elec       q    Type
REMARK                         _______ _______ _______ _____ _____    ______ ____
ROOT
ATOM      1  N   UNL     1       7.439   6.563  18.246  0.00  0.00    +0.000 N 
ATOM      2  C   UNL     1       6.812   6.627  16.926  0.00  0.00    +0.000 C 
ATOM      3  C   UNL     1       6.460   5.241  16.390  0.00  0.00    +0.000 C 
ATOM      4  N   UNL     1       5.613   4.547  17.351  0.00  0.00    +0.000 N 
ATOM      5  C   UNL     1       4.397   4.005  16.940  0.00  0.00    +0.000 C 
ATOM      6  O   UNL     1       4.003   4.179  15.786  0.00  0.00    +0.000 OA
ATOM      7  C   UNL     1       6.168   4.465  18.705  0.00  0.00    +0.000 C 
ATOM      8  C   UNL     1       7.113   5.580  19.164  0.00  0.00    +0.000 C 
ATOM      9  O   UNL     1       7.585   5.551  20.303  0.00  0.00    +0.000 OA
ENDROOT
BRANCH   5  10
ATOM     10  C   UNL     1       3.568   3.283  17.901  0.00  0.00    +0.000 A 
ATOM     11  C   UNL     1       3.434   1.914  18.107  0.00  0.00    +0.000 A 
ATOM     12  C   UNL     1       2.585   1.695  19.208  0.00  0.00    +0.000 A 
ATOM     13  C   UNL     1       2.101   2.922  19.602  0.00  0.00    +0.000 A 
ATOM     14  C   UNL     1       1.127   3.236  20.682  0.00  0.00    +0.000 C 
ATOM     15  N   UNL     1       2.670   3.886  18.783  0.00  0.00    +0.000 N 
BRANCH  15  16
ATOM     16  C   UNL     1       2.374   5.315  18.884  0.00  0.00    +0.000 C 
ATOM     17  F   UNL     1       3.473   6.007  19.293  0.00  0.00    +0.000 F 
ATOM     18  F   UNL     1       2.032   5.822  17.666  0.00  0.00    +0.000 F 
ENDBRANCH  15  16
ENDBRANCH   5  10
BRANCH   1  20
ATOM     19  C   UNL     1       8.103   8.888  17.899  0.00  0.00    +0.000 C 
ATOM     20  C   UNL     1       8.413   7.581  18.611  0.00  0.00    +0.000 C 
ENDBRANCH   1  20
TORSDOF 3
ENDMDL
MODEL 2
REMARK VINA RESULT:      -6.7      2.001      5.660
REMARK  Name = 
REMARK  5 active torsions:
REMARK  status: ('A' for Active; 'I' for Inactive)
REMARK    1  A    between atoms: C_1  and  C_2
REMARK    2  A    between atoms: C_2  and  N_3
REMARK    3  A    between atoms: C_7  and  C_9
REMARK    4  A    between atoms: C_12  and  C_13
REMARK    5  A    between atoms: N_14  and  C_15
REMARK                            x       y       z     vdW  Elec       q    Type
REMARK                         _______ _______ _______ _____ _____    ______ ____
ROOT
ATOM      1  N   UNL     1       1.928   3.341  19.697  0.00  0.00    +0.000 N 
ATOM      2  C   UNL     1       2.430   2.483  18.625  0.00  0.00    +0.000 C 
ATOM      3  C   UNL     1       2.942   3.292  17.435  0.00  0.00    +0.000 C 
ATOM      4  N   UNL     1       3.959   4.232  17.886  0.00  0.00    +0.000 N 
ATOM      5  C   UNL     1       5.206   4.258  17.263  0.00  0.00    +0.000 C 
ATOM      6  O   UNL     1       5.475   3.435  16.387  0.00  0.00    +0.000 OA
ATOM      7  C   UNL     1       3.534   5.112  18.978  0.00  0.00    +0.000 C 
ATOM      8  C   UNL     1       2.473   4.589  19.951  0.00  0.00    +0.000 C 
ATOM      9  O   UNL     1       2.104   5.296  20.892  0.00  0.00    +0.000 OA
ENDROOT
BRANCH   5  10
ATOM     10  C   UNL     1       6.209   5.225  17.699  0.00  0.00    +0.000 A 
ATOM     11  C   UNL     1       7.221   5.092  18.644  0.00  0.00    +0.000 A 
ATOM     12  C   UNL     1       7.995   6.267  18.658  0.00  0.00    +0.000 A 
ATOM     13  C   UNL     1       7.388   7.167  17.813  0.00  0.00    +0.000 A 
ATOM     14  C   UNL     1       7.776   8.574  17.516  0.00  0.00    +0.000 C 
ATOM     15  N   UNL     1       6.279   6.547  17.258  0.00  0.00    +0.000 N 
BRANCH  15  16
ATOM     16  C   UNL     1       5.365   7.204  16.323  0.00  0.00    +0.000 C 
ATOM     17  F   UNL     1       5.196   6.448  15.203  0.00  0.00    +0.000 F 
ATOM     18  F   UNL     1       4.130   7.347  16.880  0.00  0.00    +0.000 F 
ENDBRANCH  15  16
ENDBRANCH   5  10
BRANCH   1  20
ATOM     19  C   UNL     1       1.387   2.384  21.878  0.00  0.00    +0.000 C 
ATOM     20  C   UNL     1       0.845   2.855  20.538  0.00  0.00    +0.000 C 
ENDBRANCH   1  20
TORSDOF 3
ENDMDL
MODEL 3
REMARK VINA RESULT:      -6.5      2.576      4.056
REMARK  Name = 
REMARK  5 active torsions:
REMARK  status: ('A' for Active; 'I' for Inactive)
REMARK    1  A    between atoms: C_1  and  C_2
REMARK    2  A    between atoms: C_2  and  N_3
REMARK    3  A    between atoms: C_7  and  C_9
REMARK    4  A    between atoms: C_12  and  C_13
REMARK    5  A    between atoms: N_14  and  C_15
REMARK                            x       y       z     vdW  Elec       q    Type
REMARK                         _______ _______ _______ _____ _____    ______ ____
ROOT
ATOM      1  N   UNL     1       6.219   4.996  15.647  0.00  0.00    +0.000 N 
ATOM      2  C   UNL     1       5.064   4.110  15.509  0.00  0.00    +0.000 C 
ATOM      3  C   UNL     1       4.378   3.850  16.849  0.00  0.00    +0.000 C 
ATOM      4  N   UNL     1       4.009   5.119  17.462  0.00  0.00    +0.000 N 
ATOM      5  C   UNL     1       2.695   5.334  17.877  0.00  0.00    +0.000 C 
ATOM      6  O   UNL     1       1.832   4.484  17.655  0.00  0.00    +0.000 OA
ATOM      7  C   UNL     1       5.115   6.069  17.611  0.00  0.00    +0.000 C 
ATOM      8  C   UNL     1       6.263   5.999  16.599  0.00  0.00    +0.000 C 
ATOM      9  O   UNL     1       7.202   6.794  16.685  0.00  0.00    +0.000 OA
ENDROOT
BRANCH   5  10
ATOM     10  C   UNL     1       2.340   6.595  18.520  0.00  0.00    +0.000 A 
ATOM     11  C   UNL     1       2.333   7.886  18.002  0.00  0.00    +0.000 A 
ATOM     12  C   UNL     1       1.831   8.770  18.975  0.00  0.00    +0.000 A 
ATOM     13  C   UNL     1       1.644   8.045  20.130  0.00  0.00    +0.000 A 
ATOM     14  C   UNL     1       1.183   8.518  21.463  0.00  0.00    +0.000 C 
ATOM     15  N   UNL     1       1.990   6.728  19.865  0.00  0.00    +0.000 N 
BRANCH  15  16
ATOM     16  C   UNL     1       1.945   5.661  20.863  0.00  0.00    +0.000 C 
ATOM     17  F   UNL     1       0.874   4.847  20.652  0.00  0.00    +0.000 F 
ATOM     18  F   UNL     1       3.051   4.870  20.771  0.00  0.00    +0.000 F 
ENDBRANCH  15  16
ENDBRANCH   5  10
BRANCH   1  20
ATOM     19  C   UNL     1       6.843   4.486  13.340  0.00  0.00    +0.000 C 
ATOM     20  C   UNL     1       7.341   4.833  14.734  0.00  0.00    +0.000 C 
ENDBRANCH   1  20
TORSDOF 3
ENDMDL
MODEL 4
REMARK VINA RESULT:      -6.5      1.642      1.764
REMARK  Name = 
REMARK  5 active torsions:
REMARK  status: ('A' for Active; 'I' for Inactive)
REMARK    1  A    between atoms: C_1  and  C_2
REMARK    2  A    between atoms: C_2  and  N_3
REMARK    3  A    between atoms: C_7  and  C_9
REMARK    4  A    between atoms: C_12  and  C_13
REMARK    5  A    between atoms: N_14  and  C_15
REMARK                            x       y       z     vdW  Elec       q    Type
REMARK                         _______ _______ _______ _____ _____    ______ ____
ROOT
ATOM      1  N   UNL     1       6.665   6.453  17.929  0.00  0.00    +0.000 N 
ATOM      2  C   UNL     1       5.523   7.278  17.536  0.00  0.00    +0.000 C 
ATOM      3  C   UNL     1       4.472   6.477  16.771  0.00  0.00    +0.000 C 
ATOM      4  N   UNL     1       4.054   5.333  17.570  0.00  0.00    +0.000 N 
ATOM      5  C   UNL     1       2.700   5.120  17.823  0.00  0.00    +0.000 C 
ATOM      6  O   UNL     1       1.865   5.940  17.438  0.00  0.00    +0.000 OA
ATOM      7  C   UNL     1       5.151   4.471  18.021  0.00  0.00    +0.000 C 
ATOM      8  C   UNL     1       6.525   5.111  18.239  0.00  0.00    +0.000 C 
ATOM      9  O   UNL     1       7.466   4.419  18.634  0.00  0.00    +0.000 OA
ENDROOT
BRANCH   5  10
ATOM     10  C   UNL     1       2.287   3.954  18.597  0.00  0.00    +0.000 A 
ATOM     11  C   UNL     1       1.963   2.671  18.169  0.00  0.00    +0.000 A 
ATOM     12  C   UNL     1       1.710   1.860  19.291  0.00  0.00    +0.000 A 
ATOM     13  C   UNL     1       1.759   2.671  20.401  0.00  0.00    +0.000 A 
ATOM     14  C   UNL     1       1.509   2.318  21.826  0.00  0.00    +0.000 C 
ATOM     15  N   UNL     1       2.072   3.954  19.977  0.00  0.00    +0.000 N 
BRANCH  15  16
ATOM     16  C   UNL     1       2.188   5.101  20.877  0.00  0.00    +0.000 C 
ATOM     17  F   UNL     1       3.289   5.843  20.573  0.00  0.00    +0.000 F 
ATOM     18  F   UNL     1       1.115   5.931  20.737  0.00  0.00    +0.000 F 
ENDBRANCH  15  16
ENDBRANCH   5  10
BRANCH   1  20
ATOM     19  C   UNL     1       7.890   8.554  17.700  0.00  0.00    +0.000 C 
ATOM     20  C   UNL     1       7.979   7.071  18.024  0.00  0.00    +0.000 C 
ENDBRANCH   1  20
TORSDOF 3
ENDMDL
MODEL 5
REMARK VINA RESULT:      -6.3      3.160      5.619
REMARK  Name = 
REMARK  5 active torsions:
REMARK  status: ('A' for Active; 'I' for Inactive)
REMARK    1  A    between atoms: C_1  and  C_2
REMARK    2  A    between atoms: C_2  and  N_3
REMARK    3  A    between atoms: C_7  and  C_9
REMARK    4  A    between atoms: C_12  and  C_13
REMARK    5  A    between atoms: N_14  and  C_15
REMARK                            x       y       z     vdW  Elec       q    Type
REMARK                         _______ _______ _______ _____ _____    ______ ____
ROOT
ATOM      1  N   UNL     1       1.466   8.820  19.588  0.00  0.00    +0.000 N 
ATOM      2  C   UNL     1       1.772   7.852  20.640  0.00  0.00    +0.000 C 
ATOM      3  C   UNL     1       1.943   6.438  20.087  0.00  0.00    +0.000 C 
ATOM      4  N   UNL     1       2.965   6.441  19.049  0.00  0.00    +0.000 N 
ATOM      5  C   UNL     1       4.034   5.549  19.125  0.00  0.00    +0.000 C 
ATOM      6  O   UNL     1       4.155   4.815  20.107  0.00  0.00    +0.000 OA
ATOM      7  C   UNL     1       2.736   7.406  17.971  0.00  0.00    +0.000 C 
ATOM      8  C   UNL     1       1.963   8.686  18.303  0.00  0.00    +0.000 C 
ATOM      9  O   UNL     1       1.767   9.528  17.423  0.00  0.00    +0.000 OA
ENDROOT
BRANCH   5  10
ATOM     10  C   UNL     1       5.037   5.535  18.065  0.00  0.00    +0.000 A 
ATOM     11  C   UNL     1       6.107   6.395  17.843  0.00  0.00    +0.000 A 
ATOM     12  C   UNL     1       6.852   5.929  16.743  0.00  0.00    +0.000 A 
ATOM     13  C   UNL     1       6.173   4.855  16.215  0.00  0.00    +0.000 A 
ATOM     14  C   UNL     1       6.508   4.040  15.015  0.00  0.00    +0.000 C 
ATOM     15  N   UNL     1       5.048   4.638  16.996  0.00  0.00    +0.000 N 
BRANCH  15  16
ATOM     16  C   UNL     1       4.064   3.590  16.728  0.00  0.00    +0.000 C 
ATOM     17  F   UNL     1       4.168   2.585  17.641  0.00  0.00    +0.000 F 
ATOM     18  F   UNL     1       2.797   4.081  16.840  0.00  0.00    +0.000 F 
ENDBRANCH  15  16
ENDBRANCH   5  10
BRANCH   1  20
ATOM     19  C   UNL     1      -0.153   9.713  21.185  0.00  0.00    +0.000 C 
ATOM     20  C   UNL     1       0.639   9.973  19.913  0.00  0.00    +0.000 C 
ENDBRANCH   1  20
TORSDOF 3
ENDMDL
MODEL 6
REMARK VINA RESULT:      -6.2      1.779      3.301
REMARK  Name = 
REMARK  5 active torsions:
REMARK  status: ('A' for Active; 'I' for Inactive)
REMARK    1  A    between atoms: C_1  and  C_2
REMARK    2  A    between atoms: C_2  and  N_3
REMARK    3  A    between atoms: C_7  and  C_9
REMARK    4  A    between atoms: C_12  and  C_13
REMARK    5  A    between atoms: N_14  and  C_15
REMARK                            x       y       z     vdW  Elec       q    Type
REMARK                         _______ _______ _______ _____ _____    ______ ____
ROOT
ATOM      1  N   UNL     1       6.789   4.585  14.361  0.00  0.00    +0.000 N 
ATOM      2  C   UNL     1       7.586   4.900  15.546  0.00  0.00    +0.000 C 
ATOM      3  C   UNL     1       6.753   5.574  16.635  0.00  0.00    +0.000 C 
ATOM      4  N   UNL     1       5.611   4.732  16.966  0.00  0.00    +0.000 N 
ATOM      5  C   UNL     1       5.375   4.375  18.293  0.00  0.00    +0.000 C 
ATOM      6  O   UNL     1       6.172   4.705  19.172  0.00  0.00    +0.000 OA
ATOM      7  C   UNL     1       4.778   4.355  15.821  0.00  0.00    +0.000 C 
ATOM      8  C   UNL     1       5.449   4.250  14.448  0.00  0.00    +0.000 C 
ATOM      9  O   UNL     1       4.781   3.919  13.466  0.00  0.00    +0.000 OA
ENDROOT
BRANCH   5  10
ATOM     10  C   UNL     1       4.210   3.558  18.622  0.00  0.00    +0.000 A 
ATOM     11  C   UNL     1       4.059   2.176  18.599  0.00  0.00    +0.000 A 
ATOM     12  C   UNL     1       2.780   1.844  19.085  0.00  0.00    +0.000 A 
ATOM     13  C   UNL     1       2.102   3.023  19.292  0.00  0.00    +0.000 A 
ATOM     14  C   UNL     1       0.700   3.224  19.747  0.00  0.00    +0.000 C 
ATOM     15  N   UNL     1       2.959   4.067  18.974  0.00  0.00    +0.000 N 
BRANCH  15  16
ATOM     16  C   UNL     1       2.581   5.478  19.047  0.00  0.00    +0.000 C 
ATOM     17  F   UNL     1       3.449   6.170  19.836  0.00  0.00    +0.000 F 
ATOM     18  F   UNL     1       2.640   6.055  17.814  0.00  0.00    +0.000 F 
ENDBRANCH  15  16
ENDBRANCH   5  10
BRANCH   1  20
ATOM     19  C   UNL     1       8.344   5.808  12.929  0.00  0.00    +0.000 C 
ATOM     20  C   UNL     1       7.435   4.596  13.057  0.00  0.00    +0.000 C 
ENDBRANCH   1  20
TORSDOF 3
ENDMDL
MODEL 7
REMARK VINA RESULT:      -6.1      2.620      5.593
REMARK  Name = 
REMARK  5 active torsions:
REMARK  status: ('A' for Active; 'I' for Inactive)
REMARK    1  A    between atoms: C_1  and  C_2
REMARK    2  A    between atoms: C_2  and  N_3
REMARK    3  A    between atoms: C_7  and  C_9
REMARK    4  A    between atoms: C_12  and  C_13
REMARK    5  A    between atoms: N_14  and  C_15
REMARK                            x       y       z     vdW  Elec       q    Type
REMARK                         _______ _______ _______ _____ _____    ______ ____
ROOT
ATOM      1  N   UNL     1       3.248   3.334  20.556  0.00  0.00    +0.000 N 
ATOM      2  C   UNL     1       2.612   4.617  20.258  0.00  0.00    +0.000 C 
ATOM      3  C   UNL     1       3.615   5.650  19.750  0.00  0.00    +0.000 C 
ATOM      4  N   UNL     1       4.316   5.119  18.588  0.00  0.00    +0.000 N 
ATOM      5  C   UNL     1       4.353   5.855  17.405  0.00  0.00    +0.000 C 
ATOM      6  O   UNL     1       3.731   6.914  17.317  0.00  0.00    +0.000 OA
ATOM      7  C   UNL     1       4.959   3.822  18.806  0.00  0.00    +0.000 C 
ATOM      8  C   UNL     1       4.340   2.875  19.839  0.00  0.00    +0.000 C 
ATOM      9  O   UNL     1       4.847   1.768  20.035  0.00  0.00    +0.000 OA
ENDROOT
BRANCH   5  10
ATOM     10  C   UNL     1       5.085   5.332  16.255  0.00  0.00    +0.000 A 
ATOM     11  C   UNL     1       4.682   4.421  15.284  0.00  0.00    +0.000 A 
ATOM     12  C   UNL     1       5.701   4.291  14.322  0.00  0.00    +0.000 A 
ATOM     13  C   UNL     1       6.777   5.027  14.764  0.00  0.00    +0.000 A 
ATOM     14  C   UNL     1       8.121   5.177  14.143  0.00  0.00    +0.000 C 
ATOM     15  N   UNL     1       6.416   5.630  15.960  0.00  0.00    +0.000 N 
BRANCH  15  16
ATOM     16  C   UNL     1       7.315   6.476  16.745  0.00  0.00    +0.000 C 
ATOM     17  F   UNL     1       6.715   7.659  17.055  0.00  0.00    +0.000 F 
ATOM     18  F   UNL     1       7.621   5.879  17.931  0.00  0.00    +0.000 F 
ENDBRANCH  15  16
ENDBRANCH   5  10
BRANCH   1  20
ATOM     19  C   UNL     1       1.187   2.670  21.686  0.00  0.00    +0.000 C 
ATOM     20  C   UNL     1       2.697   2.506  21.617  0.00  0.00    +0.000 C 
ENDBRANCH   1  20
TORSDOF 3
ENDMDL
MODEL 8
REMARK VINA RESULT:      -6.1      1.769      3.361
REMARK  Name = 
REMARK  5 active torsions:
REMARK  status: ('A' for Active; 'I' for Inactive)
REMARK    1  A    between atoms: C_1  and  C_2
REMARK    2  A    between atoms: C_2  and  N_3
REMARK    3  A    between atoms: C_7  and  C_9
REMARK    4  A    between atoms: C_12  and  C_13
REMARK    5  A    between atoms: N_14  and  C_15
REMARK                            x       y       z     vdW  Elec       q    Type
REMARK                         _______ _______ _______ _____ _____    ______ ____
ROOT
ATOM      1  N   UNL     1       6.765   4.654  14.667  0.00  0.00    +0.000 N 
ATOM      2  C   UNL     1       7.681   5.004  15.750  0.00  0.00    +0.000 C 
ATOM      3  C   UNL     1       6.989   5.805  16.851  0.00  0.00    +0.000 C 
ATOM      4  N   UNL     1       5.838   5.060  17.345  0.00  0.00    +0.000 N 
ATOM      5  C   UNL     1       5.704   4.816  18.711  0.00  0.00    +0.000 C 
ATOM      6  O   UNL     1       6.594   5.159  19.489  0.00  0.00    +0.000 OA
ATOM      7  C   UNL     1       4.885   4.653  16.309  0.00  0.00    +0.000 C 
ATOM      8  C   UNL     1       5.422   4.408  14.895  0.00  0.00    +0.000 C 
ATOM      9  O   UNL     1       4.650   4.048  14.002  0.00  0.00    +0.000 OA
ENDROOT
BRANCH   5  10
ATOM     10  C   UNL     1       4.532   4.097  19.201  0.00  0.00    +0.000 A 
ATOM     11  C   UNL     1       4.374   2.746  19.492  0.00  0.00    +0.000 A 
ATOM     12  C   UNL     1       3.088   2.536  20.023  0.00  0.00    +0.000 A 
ATOM     13  C   UNL     1       2.413   3.732  19.946  0.00  0.00    +0.000 A 
ATOM     14  C   UNL     1       1.005   4.034  20.325  0.00  0.00    +0.000 C 
ATOM     15  N   UNL     1       3.278   4.675  19.411  0.00  0.00    +0.000 N 
BRANCH  15  16
ATOM     16  C   UNL     1       2.905   6.065  19.155  0.00  0.00    +0.000 C 
ATOM     17  F   UNL     1       2.050   6.149  18.098  0.00  0.00    +0.000 F 
ATOM     18  F   UNL     1       2.244   6.590  20.226  0.00  0.00    +0.000 F 
ENDBRANCH  15  16
ENDBRANCH   5  10
BRANCH   1  20
ATOM     19  C   UNL     1       8.255   5.667  13.018  0.00  0.00    +0.000 C 
ATOM     20  C   UNL     1       7.289   4.531  13.315  0.00  0.00    +0.000 C 
ENDBRANCH   1  20
TORSDOF 3
ENDMDL
MODEL 9
REMARK VINA RESULT:      -6.0      2.206      3.844
REMARK  Name = 
REMARK  5 active torsions:
REMARK  status: ('A' for Active; 'I' for Inactive)
REMARK    1  A    between atoms: C_1  and  C_2
REMARK    2  A    between atoms: C_2  and  N_3
REMARK    3  A    between atoms: C_7  and  C_9
REMARK    4  A    between atoms: C_12  and  C_13
REMARK    5  A    between atoms: N_14  and  C_15
REMARK                            x       y       z     vdW  Elec       q    Type
REMARK                         _______ _______ _______ _____ _____    ______ ____
ROOT
ATOM      1  N   UNL     1       6.680   4.527  15.080  0.00  0.00    +0.000 N 
ATOM      2  C   UNL     1       7.609   4.626  16.204  0.00  0.00    +0.000 C 
ATOM      3  C   UNL     1       7.164   5.671  17.226  0.00  0.00    +0.000 C 
ATOM      4  N   UNL     1       5.812   5.367  17.676  0.00  0.00    +0.000 N 
ATOM      5  C   UNL     1       5.542   5.259  19.039  0.00  0.00    +0.000 C 
ATOM      6  O   UNL     1       6.458   5.342  19.858  0.00  0.00    +0.000 OA
ATOM      7  C   UNL     1       4.828   5.230  16.599  0.00  0.00    +0.000 C 
ATOM      8  C   UNL     1       5.321   4.741  15.233  0.00  0.00    +0.000 C 
ATOM      9  O   UNL     1       4.517   4.598  14.308  0.00  0.00    +0.000 OA
ENDROOT
BRANCH   5  10
ATOM     10  C   UNL     1       4.178   4.987  19.483  0.00  0.00    +0.000 A 
ATOM     11  C   UNL     1       3.137   5.870  19.750  0.00  0.00    +0.000 A 
ATOM     12  C   UNL     1       1.979   5.135  20.066  0.00  0.00    +0.000 A 
ATOM     13  C   UNL     1       2.337   3.807  20.113  0.00  0.00    +0.000 A 
ATOM     14  C   UNL     1       1.497   2.627  20.456  0.00  0.00    +0.000 C 
ATOM     15  N   UNL     1       3.685   3.719  19.796  0.00  0.00    +0.000 N 
BRANCH  15  16
ATOM     16  C   UNL     1       4.431   2.462  19.767  0.00  0.00    +0.000 C 
ATOM     17  F   UNL     1       4.501   1.915  21.012  0.00  0.00    +0.000 F 
ATOM     18  F   UNL     1       3.798   1.546  18.981  0.00  0.00    +0.000 F 
ENDBRANCH  15  16
ENDBRANCH   5  10
BRANCH   1  20
ATOM     19  C   UNL     1       7.941   5.336  13.151  0.00  0.00    +0.000 C 
ATOM     20  C   UNL     1       7.198   4.163  13.770  0.00  0.00    +0.000 C 
ENDBRANCH   1  20
TORSDOF 3
ENDMDL
