MODEL 1
REMARK VINA RESULT:      -8.6      0.000      0.000
REMARK  Name = 
REMARK  3 active torsions:
REMARK  status: ('A' for Active; 'I' for Inactive)
REMARK    1  A    between atoms: C_2  and  O_3
REMARK    2  A    between atoms: C_2  and  C_4
REMARK    3  A    between atoms: C_13  and  N_14
REMARK                            x       y       z     vdW  Elec       q    Type
REMARK                         _______ _______ _______ _____ _____    ______ ____
ROOT
ATOM      1  C   UNL     1       2.223   5.636  19.745  0.00  0.00    +0.000 A 
ATOM      2  C   UNL     1       1.373   5.018  20.692  0.00  0.00    +0.000 A 
ATOM      3  C   UNL     1       1.259   3.619  20.780  0.00  0.00    +0.000 A 
ATOM      4  C   UNL     1       1.961   2.806  19.900  0.00  0.00    +0.000 A 
ATOM      5  C   UNL     1       2.779   3.431  18.976  0.00  0.00    +0.000 A 
ATOM      6  C   UNL     1       2.960   4.828  18.878  0.00  0.00    +0.000 A 
ATOM      7  C   UNL     1       3.933   5.081  17.815  0.00  0.00    +0.000 A 
ATOM      8  C   UNL     1       4.544   6.236  17.354  0.00  0.00    +0.000 A 
ATOM      9  C   UNL     1       5.467   6.150  16.295  0.00  0.00    +0.000 A 
ATOM     10  C   UNL     1       5.784   4.903  15.709  0.00  0.00    +0.000 A 
ATOM     11  C   UNL     1       5.198   3.725  16.175  0.00  0.00    +0.000 A 
ATOM     12  C   UNL     1       4.298   3.857  17.220  0.00  0.00    +0.000 A 
ATOM     13  C   UNL     1       3.591   2.780  17.931  0.00  0.00    +0.000 C 
ATOM     14  O   UNL     1       3.669   1.590  17.710  0.00  0.00    +0.000 OA
ENDROOT
BRANCH  10  15
ATOM     15  N   UNL     1       6.752   4.844  14.605  0.00  0.00    +0.000 N 
ATOM     16  O   UNL     1       7.770   5.548  14.695  0.00  0.00    +0.000 OA
ATOM     17  O   UNL     1       6.500   4.087  13.659  0.00  0.00    +0.000 OA
ENDBRANCH  10  15
BRANCH   1  19
ATOM     18  O   UNL     1       2.158   7.706  18.575  0.00  0.00    +0.000 OA
ATOM     19  C   UNL     1       2.202   7.114  19.638  0.00  0.00    +0.000 C 
BRANCH  19  20
ATOM     20  O   UNL     1       2.213   7.749  20.829  0.00  0.00    +0.000 OA
ATOM     21  H   UNL     1       1.806   7.276  21.577  0.00  0.00    +0.000 HD
ENDBRANCH  19  20
ENDBRANCH   1  19
TORSDOF 3
ENDMDL
MODEL 2
REMARK VINA RESULT:      -8.2      1.292      3.285
REMARK  Name = 
REMARK  3 active torsions:
REMARK  status: ('A' for Active; 'I' for Inactive)
REMARK    1  A    between atoms: C_2  and  O_3
REMARK    2  A    between atoms: C_2  and  C_4
REMARK    3  A    between atoms: C_13  and  N_14
REMARK                            x       y       z     vdW  Elec       q    Type
REMARK                         _______ _______ _______ _____ _____    ______ ____
ROOT
ATOM      1  C   UNL     1       2.743   4.008  19.646  0.00  0.00    +0.000 A 
ATOM      2  C   UNL     1       1.879   4.607  20.593  0.00  0.00    +0.000 A 
ATOM      3  C   UNL     1       1.602   5.985  20.572  0.00  0.00    +0.000 A 
ATOM      4  C   UNL     1       2.211   6.804  19.630  0.00  0.00    +0.000 A 
ATOM      5  C   UNL     1       3.060   6.200  18.720  0.00  0.00    +0.000 A 
ATOM      6  C   UNL     1       3.334   4.815  18.674  0.00  0.00    +0.000 A 
ATOM      7  C   UNL     1       4.235   4.574  17.545  0.00  0.00    +0.000 A 
ATOM      8  C   UNL     1       4.750   3.417  16.984  0.00  0.00    +0.000 A 
ATOM      9  C   UNL     1       5.604   3.515  15.870  0.00  0.00    +0.000 A 
ATOM     10  C   UNL     1       5.929   4.773  15.314  0.00  0.00    +0.000 A 
ATOM     11  C   UNL     1       5.401   5.950  15.850  0.00  0.00    +0.000 A 
ATOM     12  C   UNL     1       4.563   5.805  16.944  0.00  0.00    +0.000 A 
ATOM     13  C   UNL     1       3.834   6.866  17.656  0.00  0.00    +0.000 C 
ATOM     14  O   UNL     1       3.856   8.054  17.411  0.00  0.00    +0.000 OA
ENDROOT
BRANCH  10  15
ATOM     15  N   UNL     1       6.823   4.845  14.150  0.00  0.00    +0.000 N 
ATOM     16  O   UNL     1       7.804   5.599  14.224  0.00  0.00    +0.000 OA
ATOM     17  O   UNL     1       6.550   4.137  13.170  0.00  0.00    +0.000 OA
ENDBRANCH  10  15
BRANCH   1  19
ATOM     18  O   UNL     1       3.972   2.168  20.520  0.00  0.00    +0.000 OA
ATOM     19  C   UNL     1       3.074   2.572  19.804  0.00  0.00    +0.000 C 
BRANCH  19  20
ATOM     20  O   UNL     1       2.275   1.746  19.096  0.00  0.00    +0.000 OA
ATOM     21  H   UNL     1       2.406   0.791  19.235  0.00  0.00    +0.000 HD
ENDBRANCH  19  20
ENDBRANCH   1  19
TORSDOF 3
ENDMDL
MODEL 3
REMARK VINA RESULT:      -8.1      1.295      3.299
REMARK  Name = 
REMARK  3 active torsions:
REMARK  status: ('A' for Active; 'I' for Inactive)
REMARK    1  A    between atoms: C_2  and  O_3
REMARK    2  A    between atoms: C_2  and  C_4
REMARK    3  A    between atoms: C_13  and  N_14
REMARK                            x       y       z     vdW  Elec       q    Type
REMARK                         _______ _______ _______ _____ _____    ______ ____
ROOT
ATOM      1  C   UNL     1       2.611   4.121  19.657  0.00  0.00    +0.000 A 
ATOM      2  C   UNL     1       1.770   4.752  20.603  0.00  0.00    +0.000 A 
ATOM      3  C   UNL     1       1.561   6.142  20.594  0.00  0.00    +0.000 A 
ATOM      4  C   UNL     1       2.216   6.939  19.665  0.00  0.00    +0.000 A 
ATOM      5  C   UNL     1       3.041   6.304  18.755  0.00  0.00    +0.000 A 
ATOM      6  C   UNL     1       3.248   4.908  18.697  0.00  0.00    +0.000 A 
ATOM      7  C   UNL     1       4.145   4.634  17.573  0.00  0.00    +0.000 A 
ATOM      8  C   UNL     1       4.607   3.459  17.003  0.00  0.00    +0.000 A 
ATOM      9  C   UNL     1       5.473   3.526  15.896  0.00  0.00    +0.000 A 
ATOM     10  C   UNL     1       5.864   4.772  15.356  0.00  0.00    +0.000 A 
ATOM     11  C   UNL     1       5.390   5.968  15.900  0.00  0.00    +0.000 A 
ATOM     12  C   UNL     1       4.538   5.854  16.986  0.00  0.00    +0.000 A 
ATOM     13  C   UNL     1       3.856   6.941  17.704  0.00  0.00    +0.000 C 
ATOM     14  O   UNL     1       3.937   8.129  17.470  0.00  0.00    +0.000 OA
ENDROOT
BRANCH  10  15
ATOM     15  N   UNL     1       6.769   4.811  14.199  0.00  0.00    +0.000 N 
ATOM     16  O   UNL     1       6.495   4.086  13.230  0.00  0.00    +0.000 OA
ATOM     17  O   UNL     1       7.743   5.574  14.255  0.00  0.00    +0.000 OA
ENDBRANCH  10  15
BRANCH   1  19
ATOM     18  O   UNL     1       2.142   1.810  19.340  0.00  0.00    +0.000 OA
ATOM     19  C   UNL     1       2.871   2.669  19.802  0.00  0.00    +0.000 C 
BRANCH  19  20
ATOM     20  O   UNL     1       4.005   2.382  20.475  0.00  0.00    +0.000 OA
ATOM     21  H   UNL     1       3.973   1.612  21.071  0.00  0.00    +0.000 HD
ENDBRANCH  19  20
ENDBRANCH   1  19
TORSDOF 3
ENDMDL
MODEL 4
REMARK VINA RESULT:      -7.6      2.701      4.917
REMARK  Name = 
REMARK  3 active torsions:
REMARK  status: ('A' for Active; 'I' for Inactive)
REMARK    1  A    between atoms: C_2  and  O_3
REMARK    2  A    between atoms: C_2  and  C_4
REMARK    3  A    between atoms: C_13  and  N_14
REMARK                            x       y       z     vdW  Elec       q    Type
REMARK                         _______ _______ _______ _____ _____    ______ ____
ROOT
ATOM      1  C   UNL     1       1.121   8.754  20.174  0.00  0.00    +0.000 A 
ATOM      2  C   UNL     1       0.935  10.035  19.603  0.00  0.00    +0.000 A 
ATOM      3  C   UNL     1       1.508  10.382  18.366  0.00  0.00    +0.000 A 
ATOM      4  C   UNL     1       2.311   9.472  17.690  0.00  0.00    +0.000 A 
ATOM      5  C   UNL     1       2.488   8.229  18.271  0.00  0.00    +0.000 A 
ATOM      6  C   UNL     1       1.898   7.820  19.488  0.00  0.00    +0.000 A 
ATOM      7  C   UNL     1       2.289   6.431  19.731  0.00  0.00    +0.000 A 
ATOM      8  C   UNL     1       1.938   5.511  20.706  0.00  0.00    +0.000 A 
ATOM      9  C   UNL     1       2.491   4.218  20.662  0.00  0.00    +0.000 A 
ATOM     10  C   UNL     1       3.386   3.847  19.633  0.00  0.00    +0.000 A 
ATOM     11  C   UNL     1       3.734   4.751  18.627  0.00  0.00    +0.000 A 
ATOM     12  C   UNL     1       3.164   6.011  18.709  0.00  0.00    +0.000 A 
ATOM     13  C   UNL     1       3.314   7.122  17.757  0.00  0.00    +0.000 C 
ATOM     14  O   UNL     1       3.977   7.124  16.741  0.00  0.00    +0.000 OA
ENDROOT
BRANCH  10  15
ATOM     15  N   UNL     1       3.947   2.489  19.613  0.00  0.00    +0.000 N 
ATOM     16  O   UNL     1       4.980   2.284  20.267  0.00  0.00    +0.000 OA
ATOM     17  O   UNL     1       3.347   1.628  18.955  0.00  0.00    +0.000 OA
ENDBRANCH  10  15
BRANCH   1  19
ATOM     18  O   UNL     1      -0.554   8.113  21.738  0.00  0.00    +0.000 OA
ATOM     19  C   UNL     1       0.581   8.503  21.532  0.00  0.00    +0.000 C 
BRANCH  19  20
ATOM     20  O   UNL     1       1.470   8.724  22.522  0.00  0.00    +0.000 OA
ATOM     21  H   UNL     1       1.272   9.460  23.129  0.00  0.00    +0.000 HD
ENDBRANCH  19  20
ENDBRANCH   1  19
TORSDOF 3
ENDMDL
MODEL 5
REMARK VINA RESULT:      -7.5      2.047      3.916
REMARK  Name = 
REMARK  3 active torsions:
REMARK  status: ('A' for Active; 'I' for Inactive)
REMARK    1  A    between atoms: C_2  and  O_3
REMARK    2  A    between atoms: C_2  and  C_4
REMARK    3  A    between atoms: C_13  and  N_14
REMARK                            x       y       z     vdW  Elec       q    Type
REMARK                         _______ _______ _______ _____ _____    ______ ____
ROOT
ATOM      1  C   UNL     1       3.436   2.660  20.243  0.00  0.00    +0.000 A 
ATOM      2  C   UNL     1       2.175   2.363  20.812  0.00  0.00    +0.000 A 
ATOM      3  C   UNL     1       1.118   3.291  20.789  0.00  0.00    +0.000 A 
ATOM      4  C   UNL     1       1.307   4.548  20.231  0.00  0.00    +0.000 A 
ATOM      5  C   UNL     1       2.550   4.821  19.689  0.00  0.00    +0.000 A 
ATOM      6  C   UNL     1       3.627   3.908  19.650  0.00  0.00    +0.000 A 
ATOM      7  C   UNL     1       4.740   4.558  18.956  0.00  0.00    +0.000 A 
ATOM      8  C   UNL     1       5.990   4.112  18.559  0.00  0.00    +0.000 A 
ATOM      9  C   UNL     1       6.853   4.995  17.886  0.00  0.00    +0.000 A 
ATOM     10  C   UNL     1       6.457   6.322  17.603  0.00  0.00    +0.000 A 
ATOM     11  C   UNL     1       5.192   6.785  17.973  0.00  0.00    +0.000 A 
ATOM     12  C   UNL     1       4.375   5.880  18.631  0.00  0.00    +0.000 A 
ATOM     13  C   UNL     1       2.988   6.088  19.074  0.00  0.00    +0.000 C 
ATOM     14  O   UNL     1       2.329   7.099  18.949  0.00  0.00    +0.000 OA
ENDROOT
BRANCH  10  15
ATOM     15  N   UNL     1       7.380   7.222  16.898  0.00  0.00    +0.000 N 
ATOM     16  O   UNL     1       7.992   6.767  15.920  0.00  0.00    +0.000 OA
ATOM     17  O   UNL     1       7.482   8.384  17.315  0.00  0.00    +0.000 OA
ENDBRANCH  10  15
BRANCH   1  19
ATOM     18  O   UNL     1       5.192   1.577  21.427  0.00  0.00    +0.000 OA
ATOM     19  C   UNL     1       4.533   1.677  20.408  0.00  0.00    +0.000 C 
BRANCH  19  20
ATOM     20  O   UNL     1       4.722   0.883  19.333  0.00  0.00    +0.000 OA
ATOM     21  H   UNL     1       4.377  -0.026  19.397  0.00  0.00    +0.000 HD
ENDBRANCH  19  20
ENDBRANCH   1  19
TORSDOF 3
ENDMDL
MODEL 6
REMARK VINA RESULT:      -7.5      1.506      3.600
REMARK  Name = 
REMARK  3 active torsions:
REMARK  status: ('A' for Active; 'I' for Inactive)
REMARK    1  A    between atoms: C_2  and  O_3
REMARK    2  A    between atoms: C_2  and  C_4
REMARK    3  A    between atoms: C_13  and  N_14
REMARK                            x       y       z     vdW  Elec       q    Type
REMARK                         _______ _______ _______ _____ _____    ______ ____
ROOT
ATOM      1  C   UNL     1       2.881   3.597  18.519  0.00  0.00    +0.000 A 
ATOM      2  C   UNL     1       2.056   4.085  19.559  0.00  0.00    +0.000 A 
ATOM      3  C   UNL     1       2.002   5.453  19.879  0.00  0.00    +0.000 A 
ATOM      4  C   UNL     1       2.799   6.361  19.194  0.00  0.00    +0.000 A 
ATOM      5  C   UNL     1       3.606   5.862  18.187  0.00  0.00    +0.000 A 
ATOM      6  C   UNL     1       3.661   4.504  17.801  0.00  0.00    +0.000 A 
ATOM      7  C   UNL     1       4.592   4.396  16.676  0.00  0.00    +0.000 A 
ATOM      8  C   UNL     1       4.957   3.341  15.856  0.00  0.00    +0.000 A 
ATOM      9  C   UNL     1       5.894   3.561  14.830  0.00  0.00    +0.000 A 
ATOM     10  C   UNL     1       6.453   4.842  14.621  0.00  0.00    +0.000 A 
ATOM     11  C   UNL     1       6.080   5.924  15.421  0.00  0.00    +0.000 A 
ATOM     12  C   UNL     1       5.153   5.662  16.416  0.00  0.00    +0.000 A 
ATOM     13  C   UNL     1       4.551   6.625  17.351  0.00  0.00    +0.000 C 
ATOM     14  O   UNL     1       4.777   7.815  17.415  0.00  0.00    +0.000 OA
ENDROOT
BRANCH  10  15
ATOM     15  N   UNL     1       7.429   5.041  13.540  0.00  0.00    +0.000 N 
ATOM     16  O   UNL     1       7.216   4.471  12.460  0.00  0.00    +0.000 OA
ATOM     17  O   UNL     1       8.399   5.778  13.769  0.00  0.00    +0.000 OA
ENDBRANCH  10  15
BRANCH   1  19
ATOM     18  O   UNL     1       3.814   1.434  18.849  0.00  0.00    +0.000 OA
ATOM     19  C   UNL     1       2.969   2.131  18.318  0.00  0.00    +0.000 C 
BRANCH  19  20
ATOM     20  O   UNL     1       2.013   1.632  17.508  0.00  0.00    +0.000 OA
ATOM     21  H   UNL     1       1.502   2.279  16.988  0.00  0.00    +0.000 HD
ENDBRANCH  19  20
ENDBRANCH   1  19
TORSDOF 3
ENDMDL
MODEL 7
REMARK VINA RESULT:      -7.5      3.249      5.905
REMARK  Name = 
REMARK  3 active torsions:
REMARK  status: ('A' for Active; 'I' for Inactive)
REMARK    1  A    between atoms: C_2  and  O_3
REMARK    2  A    between atoms: C_2  and  C_4
REMARK    3  A    between atoms: C_13  and  N_14
REMARK                            x       y       z     vdW  Elec       q    Type
REMARK                         _______ _______ _______ _____ _____    ______ ____
ROOT
ATOM      1  C   UNL     1       2.612   3.621  19.803  0.00  0.00    +0.000 A 
ATOM      2  C   UNL     1       3.322   2.628  19.088  0.00  0.00    +0.000 A 
ATOM      3  C   UNL     1       4.086   2.942  17.951  0.00  0.00    +0.000 A 
ATOM      4  C   UNL     1       4.129   4.247  17.478  0.00  0.00    +0.000 A 
ATOM      5  C   UNL     1       3.421   5.201  18.186  0.00  0.00    +0.000 A 
ATOM      6  C   UNL     1       2.675   4.942  19.358  0.00  0.00    +0.000 A 
ATOM      7  C   UNL     1       2.119   6.213  19.825  0.00  0.00    +0.000 A 
ATOM      8  C   UNL     1       1.396   6.565  20.953  0.00  0.00    +0.000 A 
ATOM      9  C   UNL     1       1.005   7.905  21.127  0.00  0.00    +0.000 A 
ATOM     10  C   UNL     1       1.350   8.891  20.176  0.00  0.00    +0.000 A 
ATOM     11  C   UNL     1       2.098   8.562  19.044  0.00  0.00    +0.000 A 
ATOM     12  C   UNL     1       2.465   7.232  18.915  0.00  0.00    +0.000 A 
ATOM     13  C   UNL     1       3.296   6.633  17.859  0.00  0.00    +0.000 C 
ATOM     14  O   UNL     1       3.792   7.207  16.912  0.00  0.00    +0.000 OA
ENDROOT
BRANCH  10  15
ATOM     15  N   UNL     1       0.927  10.283  20.385  0.00  0.00    +0.000 N 
ATOM     16  O   UNL     1       0.999  10.739  21.537  0.00  0.00    +0.000 OA
ATOM     17  O   UNL     1       0.537  10.921  19.398  0.00  0.00    +0.000 OA
ENDBRANCH  10  15
BRANCH   1  19
ATOM     18  O   UNL     1       2.156   2.936  22.035  0.00  0.00    +0.000 OA
ATOM     19  C   UNL     1       1.738   3.195  20.922  0.00  0.00    +0.000 C 
BRANCH  19  20
ATOM     20  O   UNL     1       0.428   3.143  20.602  0.00  0.00    +0.000 OA
ATOM     21  H   UNL     1       0.086   3.868  20.049  0.00  0.00    +0.000 HD
ENDBRANCH  19  20
ENDBRANCH   1  19
TORSDOF 3
ENDMDL
MODEL 8
REMARK VINA RESULT:      -7.5      2.460      4.176
REMARK  Name = 
REMARK  3 active torsions:
REMARK  status: ('A' for Active; 'I' for Inactive)
REMARK    1  A    between atoms: C_2  and  O_3
REMARK    2  A    between atoms: C_2  and  C_4
REMARK    3  A    between atoms: C_13  and  N_14
REMARK                            x       y       z     vdW  Elec       q    Type
REMARK                         _______ _______ _______ _____ _____    ______ ____
ROOT
ATOM      1  C   UNL     1       3.354   2.446  18.949  0.00  0.00    +0.000 A 
ATOM      2  C   UNL     1       2.007   2.012  18.935  0.00  0.00    +0.000 A 
ATOM      3  C   UNL     1       0.958   2.873  18.571  0.00  0.00    +0.000 A 
ATOM      4  C   UNL     1       1.223   4.198  18.249  0.00  0.00    +0.000 A 
ATOM      5  C   UNL     1       2.544   4.605  18.279  0.00  0.00    +0.000 A 
ATOM      6  C   UNL     1       3.636   3.766  18.595  0.00  0.00    +0.000 A 
ATOM      7  C   UNL     1       4.861   4.557  18.468  0.00  0.00    +0.000 A 
ATOM      8  C   UNL     1       6.204   4.234  18.569  0.00  0.00    +0.000 A 
ATOM      9  C   UNL     1       7.169   5.241  18.380  0.00  0.00    +0.000 A 
ATOM     10  C   UNL     1       6.784   6.567  18.080  0.00  0.00    +0.000 A 
ATOM     11  C   UNL     1       5.437   6.909  17.951  0.00  0.00    +0.000 A 
ATOM     12  C   UNL     1       4.522   5.886  18.142  0.00  0.00    +0.000 A 
ATOM     13  C   UNL     1       3.059   5.960  18.007  0.00  0.00    +0.000 C 
ATOM     14  O   UNL     1       2.405   6.939  17.717  0.00  0.00    +0.000 OA
ENDROOT
BRANCH  10  15
ATOM     15  N   UNL     1       7.815   7.597  17.888  0.00  0.00    +0.000 N 
ATOM     16  O   UNL     1       7.833   8.198  16.803  0.00  0.00    +0.000 OA
ATOM     17  O   UNL     1       8.596   7.812  18.826  0.00  0.00    +0.000 OA
ENDBRANCH  10  15
BRANCH   1  19
ATOM     18  O   UNL     1       5.046   1.725  20.458  0.00  0.00    +0.000 OA
ATOM     19  C   UNL     1       4.390   1.514  19.454  0.00  0.00    +0.000 C 
BRANCH  19  20
ATOM     20  O   UNL     1       4.527   0.396  18.712  0.00  0.00    +0.000 OA
ATOM     21  H   UNL     1       3.930  -0.344  18.926  0.00  0.00    +0.000 HD
ENDBRANCH  19  20
ENDBRANCH   1  19
TORSDOF 3
ENDMDL
MODEL 9
REMARK VINA RESULT:      -7.3      2.955      5.253
REMARK  Name = 
REMARK  3 active torsions:
REMARK  status: ('A' for Active; 'I' for Inactive)
REMARK    1  A    between atoms: C_2  and  O_3
REMARK    2  A    between atoms: C_2  and  C_4
REMARK    3  A    between atoms: C_13  and  N_14
REMARK                            x       y       z     vdW  Elec       q    Type
REMARK                         _______ _______ _______ _____ _____    ______ ____
ROOT
ATOM      1  C   UNL     1       0.876   9.217  20.455  0.00  0.00    +0.000 A 
ATOM      2  C   UNL     1       0.633  10.506  19.927  0.00  0.00    +0.000 A 
ATOM      3  C   UNL     1       1.119  10.890  18.665  0.00  0.00    +0.000 A 
ATOM      4  C   UNL     1       1.890  10.010  17.917  0.00  0.00    +0.000 A 
ATOM      5  C   UNL     1       2.124   8.758  18.456  0.00  0.00    +0.000 A 
ATOM      6  C   UNL     1       1.621   8.312  19.698  0.00  0.00    +0.000 A 
ATOM      7  C   UNL     1       2.050   6.924  19.883  0.00  0.00    +0.000 A 
ATOM      8  C   UNL     1       1.778   5.977  20.857  0.00  0.00    +0.000 A 
ATOM      9  C   UNL     1       2.347   4.695  20.747  0.00  0.00    +0.000 A 
ATOM     10  C   UNL     1       3.179   4.362  19.654  0.00  0.00    +0.000 A 
ATOM     11  C   UNL     1       3.446   5.294  18.649  0.00  0.00    +0.000 A 
ATOM     12  C   UNL     1       2.863   6.542  18.797  0.00  0.00    +0.000 A 
ATOM     13  C   UNL     1       2.933   7.677  17.863  0.00  0.00    +0.000 C 
ATOM     14  O   UNL     1       3.528   7.713  16.807  0.00  0.00    +0.000 OA
ENDROOT
BRANCH  10  15
ATOM     15  N   UNL     1       3.758   3.015  19.565  0.00  0.00    +0.000 N 
ATOM     16  O   UNL     1       2.991   2.075  19.308  0.00  0.00    +0.000 OA
ATOM     17  O   UNL     1       4.979   2.901  19.740  0.00  0.00    +0.000 OA
ENDBRANCH  10  15
BRANCH   1  19
ATOM     18  O   UNL     1       1.018   9.324  22.828  0.00  0.00    +0.000 OA
ATOM     19  C   UNL     1       0.430   8.926  21.838  0.00  0.00    +0.000 C 
BRANCH  19  20
ATOM     20  O   UNL     1      -0.703   8.196  21.905  0.00  0.00    +0.000 OA
ATOM     21  H   UNL     1      -1.296   8.381  22.655  0.00  0.00    +0.000 HD
ENDBRANCH  19  20
ENDBRANCH   1  19
TORSDOF 3
ENDMDL
