MODEL 1
REMARK VINA RESULT:      -5.3      0.000      0.000
REMARK  Name = 
REMARK  13 active torsions:
REMARK  status: ('A' for Active; 'I' for Inactive)
REMARK    1  A    between atoms: C_1  and  C_2
REMARK    2  A    between atoms: C_2  and  O_3
REMARK    3  A    between atoms: O_3  and  C_4
REMARK    4  A    between atoms: C_4  and  C_6
REMARK    5  A    between atoms: C_7  and  C_8
REMARK    6  A    between atoms: C_8  and  C_9
REMARK    7  A    between atoms: C_10  and  C_11
REMARK    8  A    between atoms: C_11  and  O_13
REMARK    9  A    between atoms: O_13  and  C_14
REMARK   10  A    between atoms: C_14  and  C_15
REMARK   11  A    between atoms: C_16  and  C_17
REMARK   12  A    between atoms: N_23  and  C_24
REMARK   13  A    between atoms: C_25  and  C_26
REMARK                            x       y       z     vdW  Elec       q    Type
REMARK                         _______ _______ _______ _____ _____    ______ ____
ROOT
ATOM      1  C   UNL     1      -3.694  11.490  18.675  0.00  0.00    +0.000 A 
ATOM      2  C   UNL     1      -4.925  11.739  19.316  0.00  0.00    +0.000 A 
ATOM      3  C   UNL     1      -4.900  12.612  20.435  0.00  0.00    +0.000 A 
ATOM      4  C   UNL     1      -3.665  13.079  20.999  0.00  0.00    +0.000 A 
ATOM      5  N   UNL     1      -2.480  12.674  20.405  0.00  0.00    +0.000 N 
ATOM      6  C   UNL     1      -1.152  12.882  21.065  0.00  0.00    +0.000 C 
ATOM      7  C   UNL     1      -2.478  11.991  19.206  0.00  0.00    +0.000 A 
ATOM      8  C   UNL     1      -1.164  11.739  18.484  0.00  0.00    +0.000 C 
ENDROOT
BRANCH   4   9
ATOM      9  C   UNL     1      -3.567  13.927  22.232  0.00  0.00    +0.000 A 
ATOM     10  C   UNL     1      -3.506  13.346  23.516  0.00  0.00    +0.000 A 
ATOM     11  C   UNL     1      -3.483  14.124  24.681  0.00  0.00    +0.000 A 
ATOM     12  C   UNL     1      -3.420  15.509  24.595  0.00  0.00    +0.000 A 
ATOM     13  C   UNL     1      -3.420  16.116  23.348  0.00  0.00    +0.000 A 
ATOM     14  C   UNL     1      -3.545  15.340  22.186  0.00  0.00    +0.000 A 
ENDBRANCH   4   9
BRANCH   1  15
ATOM     15  C   UNL     1      -3.583  10.593  17.483  0.00  0.00    +0.000 C 
ATOM     16  O   UNL     1      -3.343   9.406  17.588  0.00  0.00    +0.000 OA
BRANCH  15  17
ATOM     17  O   UNL     1      -3.722  11.286  16.340  0.00  0.00    +0.000 OA
BRANCH  17  19
ATOM     18  C   UNL     1      -3.659  10.071  14.187  0.00  0.00    +0.000 C 
ATOM     19  C   UNL     1      -2.899  10.873  15.241  0.00  0.00    +0.000 C 
ENDBRANCH  17  19
ENDBRANCH  15  17
ENDBRANCH   1  15
BRANCH   2  20
ATOM     20  C   UNL     1      -6.199  11.044  18.855  0.00  0.00    +0.000 C 
ATOM     21  C   UNL     1      -7.060  11.847  17.892  0.00  0.00    +0.000 C 
ENDBRANCH   2  20
BRANCH   3  22
ATOM     22  C   UNL     1      -6.176  13.099  21.038  0.00  0.00    +0.000 C 
ATOM     23  O   UNL     1      -6.703  14.148  20.724  0.00  0.00    +0.000 OA
BRANCH  22  24
ATOM     24  O   UNL     1      -6.538  12.271  22.046  0.00  0.00    +0.000 OA
BRANCH  24  25
ATOM     25  C   UNL     1      -7.641  12.649  22.896  0.00  0.00    +0.000 C 
ATOM     26  C   UNL     1      -7.232  13.317  24.195  0.00  0.00    +0.000 C 
ENDBRANCH  24  25
ENDBRANCH  22  24
ENDBRANCH   3  22
TORSDOF 8
ENDMDL
MODEL 2
REMARK VINA RESULT:      -5.3      1.978      7.166
REMARK  Name = 
REMARK  13 active torsions:
REMARK  status: ('A' for Active; 'I' for Inactive)
REMARK    1  A    between atoms: C_1  and  C_2
REMARK    2  A    between atoms: C_2  and  O_3
REMARK    3  A    between atoms: O_3  and  C_4
REMARK    4  A    between atoms: C_4  and  C_6
REMARK    5  A    between atoms: C_7  and  C_8
REMARK    6  A    between atoms: C_8  and  C_9
REMARK    7  A    between atoms: C_10  and  C_11
REMARK    8  A    between atoms: C_11  and  O_13
REMARK    9  A    between atoms: O_13  and  C_14
REMARK   10  A    between atoms: C_14  and  C_15
REMARK   11  A    between atoms: C_16  and  C_17
REMARK   12  A    between atoms: N_23  and  C_24
REMARK   13  A    between atoms: C_25  and  C_26
REMARK                            x       y       z     vdW  Elec       q    Type
REMARK                         _______ _______ _______ _____ _____    ______ ____
ROOT
ATOM      1  C   UNL     1      -4.536  12.975  21.110  0.00  0.00    +0.000 A 
ATOM      2  C   UNL     1      -3.156  12.788  20.885  0.00  0.00    +0.000 A 
ATOM      3  C   UNL     1      -2.781  12.221  19.639  0.00  0.00    +0.000 A 
ATOM      4  C   UNL     1      -3.757  11.699  18.724  0.00  0.00    +0.000 A 
ATOM      5  N   UNL     1      -5.095  11.783  19.076  0.00  0.00    +0.000 N 
ATOM      6  C   UNL     1      -6.158  11.041  18.329  0.00  0.00    +0.000 C 
ATOM      7  C   UNL     1      -5.499  12.502  20.183  0.00  0.00    +0.000 A 
ATOM      8  C   UNL     1      -6.980  12.741  20.426  0.00  0.00    +0.000 C 
ENDROOT
BRANCH   4   9
ATOM      9  C   UNL     1      -3.422  11.007  17.436  0.00  0.00    +0.000 A 
ATOM     10  C   UNL     1      -3.696  11.609  16.190  0.00  0.00    +0.000 A 
ATOM     11  C   UNL     1      -3.452  10.948  14.979  0.00  0.00    +0.000 A 
ATOM     12  C   UNL     1      -2.833   9.705  14.973  0.00  0.00    +0.000 A 
ATOM     13  C   UNL     1      -2.495   9.106  16.178  0.00  0.00    +0.000 A 
ATOM     14  C   UNL     1      -2.832   9.723  17.391  0.00  0.00    +0.000 A 
ENDBRANCH   4   9
BRANCH   1  15
ATOM     15  C   UNL     1      -5.064  13.566  22.377  0.00  0.00    +0.000 C 
ATOM     16  O   UNL     1      -5.175  14.767  22.533  0.00  0.00    +0.000 OA
BRANCH  15  17
ATOM     17  O   UNL     1      -5.323  12.612  23.288  0.00  0.00    +0.000 OA
BRANCH  17  19
ATOM     18  C   UNL     1      -7.719  12.112  23.642  0.00  0.00    +0.000 C 
ATOM     19  C   UNL     1      -6.462  12.828  24.132  0.00  0.00    +0.000 C 
ENDBRANCH  17  19
ENDBRANCH  15  17
ENDBRANCH   1  15
BRANCH   2  20
ATOM     20  C   UNL     1      -2.138  13.122  21.966  0.00  0.00    +0.000 C 
ATOM     21  C   UNL     1      -1.814  11.983  22.921  0.00  0.00    +0.000 C 
ENDBRANCH   2  20
BRANCH   3  22
ATOM     22  C   UNL     1      -1.345  12.185  19.231  0.00  0.00    +0.000 C 
ATOM     23  O   UNL     1      -0.846  12.999  18.479  0.00  0.00    +0.000 OA
BRANCH  22  24
ATOM     24  O   UNL     1      -0.773  11.055  19.710  0.00  0.00    +0.000 OA
BRANCH  24  25
ATOM     25  C   UNL     1       0.595  10.762  19.355  0.00  0.00    +0.000 C 
ATOM     26  C   UNL     1       0.749   9.807  18.187  0.00  0.00    +0.000 C 
ENDBRANCH  24  25
ENDBRANCH  22  24
ENDBRANCH   3  22
TORSDOF 8
ENDMDL
MODEL 3
REMARK VINA RESULT:      -5.3      1.887      7.146
REMARK  Name = 
REMARK  13 active torsions:
REMARK  status: ('A' for Active; 'I' for Inactive)
REMARK    1  A    between atoms: C_1  and  C_2
REMARK    2  A    between atoms: C_2  and  O_3
REMARK    3  A    between atoms: O_3  and  C_4
REMARK    4  A    between atoms: C_4  and  C_6
REMARK    5  A    between atoms: C_7  and  C_8
REMARK    6  A    between atoms: C_8  and  C_9
REMARK    7  A    between atoms: C_10  and  C_11
REMARK    8  A    between atoms: C_11  and  O_13
REMARK    9  A    between atoms: O_13  and  C_14
REMARK   10  A    between atoms: C_14  and  C_15
REMARK   11  A    between atoms: C_16  and  C_17
REMARK   12  A    between atoms: N_23  and  C_24
REMARK   13  A    between atoms: C_25  and  C_26
REMARK                            x       y       z     vdW  Elec       q    Type
REMARK                         _______ _______ _______ _____ _____    ______ ____
ROOT
ATOM      1  C   UNL     1      -4.650  12.805  21.386  0.00  0.00    +0.000 A 
ATOM      2  C   UNL     1      -3.276  12.726  21.081  0.00  0.00    +0.000 A 
ATOM      3  C   UNL     1      -2.932  12.224  19.798  0.00  0.00    +0.000 A 
ATOM      4  C   UNL     1      -3.919  11.659  18.921  0.00  0.00    +0.000 A 
ATOM      5  N   UNL     1      -5.237  11.635  19.348  0.00  0.00    +0.000 N 
ATOM      6  C   UNL     1      -6.285  10.839  18.635  0.00  0.00    +0.000 C 
ATOM      7  C   UNL     1      -5.628  12.290  20.498  0.00  0.00    +0.000 A 
ATOM      8  C   UNL     1      -7.106  12.414  20.829  0.00  0.00    +0.000 C 
ENDROOT
BRANCH   4   9
ATOM      9  C   UNL     1      -3.608  11.032  17.595  0.00  0.00    +0.000 A 
ATOM     10  C   UNL     1      -2.935   9.795  17.511  0.00  0.00    +0.000 A 
ATOM     11  C   UNL     1      -2.577   9.228  16.280  0.00  0.00    +0.000 A 
ATOM     12  C   UNL     1      -2.970   9.831  15.092  0.00  0.00    +0.000 A 
ATOM     13  C   UNL     1      -3.684  11.020  15.134  0.00  0.00    +0.000 A 
ATOM     14  C   UNL     1      -3.953  11.638  16.365  0.00  0.00    +0.000 A 
ENDBRANCH   4   9
BRANCH   1  15
ATOM     15  C   UNL     1      -5.146  13.319  22.700  0.00  0.00    +0.000 C 
ATOM     16  O   UNL     1      -5.389  12.579  23.634  0.00  0.00    +0.000 OA
BRANCH  15  17
ATOM     17  O   UNL     1      -5.329  14.650  22.663  0.00  0.00    +0.000 OA
BRANCH  17  19
ATOM     18  C   UNL     1      -5.560  16.465  24.327  0.00  0.00    +0.000 C 
ATOM     19  C   UNL     1      -4.663  15.414  23.677  0.00  0.00    +0.000 C 
ENDBRANCH  17  19
ENDBRANCH  15  17
ENDBRANCH   1  15
BRANCH   2  20
ATOM     20  C   UNL     1      -2.224  13.102  22.116  0.00  0.00    +0.000 C 
ATOM     21  C   UNL     1      -1.729  11.952  22.980  0.00  0.00    +0.000 C 
ENDBRANCH   2  20
BRANCH   3  22
ATOM     22  C   UNL     1      -1.523  12.305  19.312  0.00  0.00    +0.000 C 
ATOM     23  O   UNL     1      -1.108  13.215  18.621  0.00  0.00    +0.000 OA
BRANCH  22  24
ATOM     24  O   UNL     1      -0.870  11.166  19.643  0.00  0.00    +0.000 OA
BRANCH  24  25
ATOM     25  C   UNL     1       0.493  10.990  19.202  0.00  0.00    +0.000 C 
ATOM     26  C   UNL     1       0.712   9.787  18.305  0.00  0.00    +0.000 C 
ENDBRANCH  24  25
ENDBRANCH  22  24
ENDBRANCH   3  22
TORSDOF 8
ENDMDL
MODEL 4
REMARK VINA RESULT:      -5.3      2.453      4.687
REMARK  Name = 
REMARK  13 active torsions:
REMARK  status: ('A' for Active; 'I' for Inactive)
REMARK    1  A    between atoms: C_1  and  C_2
REMARK    2  A    between atoms: C_2  and  O_3
REMARK    3  A    between atoms: O_3  and  C_4
REMARK    4  A    between atoms: C_4  and  C_6
REMARK    5  A    between atoms: C_7  and  C_8
REMARK    6  A    between atoms: C_8  and  C_9
REMARK    7  A    between atoms: C_10  and  C_11
REMARK    8  A    between atoms: C_11  and  O_13
REMARK    9  A    between atoms: O_13  and  C_14
REMARK   10  A    between atoms: C_14  and  C_15
REMARK   11  A    between atoms: C_16  and  C_17
REMARK   12  A    between atoms: N_23  and  C_24
REMARK   13  A    between atoms: C_25  and  C_26
REMARK                            x       y       z     vdW  Elec       q    Type
REMARK                         _______ _______ _______ _____ _____    ______ ____
ROOT
ATOM      1  C   UNL     1      -1.245  11.430  19.683  0.00  0.00    +0.000 A 
ATOM      2  C   UNL     1      -1.480  12.146  20.874  0.00  0.00    +0.000 A 
ATOM      3  C   UNL     1      -2.817  12.553  21.124  0.00  0.00    +0.000 A 
ATOM      4  C   UNL     1      -3.848  12.401  20.136  0.00  0.00    +0.000 A 
ATOM      5  N   UNL     1      -3.512  11.819  18.923  0.00  0.00    +0.000 N 
ATOM      6  C   UNL     1      -4.434  11.858  17.745  0.00  0.00    +0.000 C 
ATOM      7  C   UNL     1      -2.275  11.239  18.728  0.00  0.00    +0.000 A 
ATOM      8  C   UNL     1      -2.011  10.437  17.464  0.00  0.00    +0.000 C 
ENDROOT
BRANCH   4   9
ATOM      9  C   UNL     1      -5.255  12.891  20.302  0.00  0.00    +0.000 A 
ATOM     10  C   UNL     1      -5.585  14.248  20.108  0.00  0.00    +0.000 A 
ATOM     11  C   UNL     1      -6.881  14.735  20.325  0.00  0.00    +0.000 A 
ATOM     12  C   UNL     1      -7.911  13.861  20.648  0.00  0.00    +0.000 A 
ATOM     13  C   UNL     1      -7.637  12.509  20.793  0.00  0.00    +0.000 A 
ATOM     14  C   UNL     1      -6.321  12.039  20.674  0.00  0.00    +0.000 A 
ENDBRANCH   4   9
BRANCH   1  15
ATOM     15  C   UNL     1       0.116  10.941  19.303  0.00  0.00    +0.000 C 
ATOM     16  O   UNL     1       0.961  11.680  18.835  0.00  0.00    +0.000 OA
BRANCH  15  17
ATOM     17  O   UNL     1       0.227   9.615  19.494  0.00  0.00    +0.000 OA
BRANCH  17  19
ATOM     18  C   UNL     1      -0.088   8.576  21.716  0.00  0.00    +0.000 C 
ATOM     19  C   UNL     1       0.873   9.197  20.704  0.00  0.00    +0.000 C 
ENDBRANCH  17  19
ENDBRANCH  15  17
ENDBRANCH   1  15
BRANCH   2  20
ATOM     20  C   UNL     1      -0.331  12.514  21.803  0.00  0.00    +0.000 C 
ATOM     21  C   UNL     1       0.317  13.862  21.523  0.00  0.00    +0.000 C 
ENDBRANCH   2  20
BRANCH   3  22
ATOM     22  C   UNL     1      -3.195  13.123  22.451  0.00  0.00    +0.000 C 
ATOM     23  O   UNL     1      -2.977  14.276  22.767  0.00  0.00    +0.000 OA
BRANCH  22  24
ATOM     24  O   UNL     1      -3.665  12.132  23.246  0.00  0.00    +0.000 OA
BRANCH  24  25
ATOM     25  C   UNL     1      -4.358  12.484  24.462  0.00  0.00    +0.000 C 
ATOM     26  C   UNL     1      -5.857  12.649  24.304  0.00  0.00    +0.000 C 
ENDBRANCH  24  25
ENDBRANCH  22  24
ENDBRANCH   3  22
TORSDOF 8
ENDMDL
MODEL 5
REMARK VINA RESULT:      -5.2      1.953      7.071
REMARK  Name = 
REMARK  13 active torsions:
REMARK  status: ('A' for Active; 'I' for Inactive)
REMARK    1  A    between atoms: C_1  and  C_2
REMARK    2  A    between atoms: C_2  and  O_3
REMARK    3  A    between atoms: O_3  and  C_4
REMARK    4  A    between atoms: C_4  and  C_6
REMARK    5  A    between atoms: C_7  and  C_8
REMARK    6  A    between atoms: C_8  and  C_9
REMARK    7  A    between atoms: C_10  and  C_11
REMARK    8  A    between atoms: C_11  and  O_13
REMARK    9  A    between atoms: O_13  and  C_14
REMARK   10  A    between atoms: C_14  and  C_15
REMARK   11  A    between atoms: C_16  and  C_17
REMARK   12  A    between atoms: N_23  and  C_24
REMARK   13  A    between atoms: C_25  and  C_26
REMARK                            x       y       z     vdW  Elec       q    Type
REMARK                         _______ _______ _______ _____ _____    ______ ____
ROOT
ATOM      1  C   UNL     1      -5.044  13.045  21.172  0.00  0.00    +0.000 A 
ATOM      2  C   UNL     1      -3.651  12.893  21.013  0.00  0.00    +0.000 A 
ATOM      3  C   UNL     1      -3.203  12.322  19.793  0.00  0.00    +0.000 A 
ATOM      4  C   UNL     1      -4.122  11.763  18.841  0.00  0.00    +0.000 A 
ATOM      5  N   UNL     1      -5.476  11.815  19.131  0.00  0.00    +0.000 N 
ATOM      6  C   UNL     1      -6.484  11.035  18.345  0.00  0.00    +0.000 C 
ATOM      7  C   UNL     1      -5.950  12.535  20.208  0.00  0.00    +0.000 A 
ATOM      8  C   UNL     1      -7.447  12.737  20.380  0.00  0.00    +0.000 C 
ENDROOT
BRANCH   4   9
ATOM      9  C   UNL     1      -3.709  11.066  17.579  0.00  0.00    +0.000 A 
ATOM     10  C   UNL     1      -3.085   9.802  17.613  0.00  0.00    +0.000 A 
ATOM     11  C   UNL     1      -2.632   9.167  16.448  0.00  0.00    +0.000 A 
ATOM     12  C   UNL     1      -2.879   9.732  15.204  0.00  0.00    +0.000 A 
ATOM     13  C   UNL     1      -3.541  10.949  15.126  0.00  0.00    +0.000 A 
ATOM     14  C   UNL     1      -3.904  11.630  16.297  0.00  0.00    +0.000 A 
ENDBRANCH   4   9
BRANCH   1  15
ATOM     15  C   UNL     1      -5.645  13.636  22.407  0.00  0.00    +0.000 C 
ATOM     16  O   UNL     1      -5.850  14.830  22.518  0.00  0.00    +0.000 OA
BRANCH  15  17
ATOM     17  O   UNL     1      -5.854  12.696  23.344  0.00  0.00    +0.000 OA
BRANCH  17  19
ATOM     18  C   UNL     1      -7.808  13.723  24.459  0.00  0.00    +0.000 C 
ATOM     19  C   UNL     1      -7.213  12.502  23.761  0.00  0.00    +0.000 C 
ENDBRANCH  17  19
ENDBRANCH  15  17
ENDBRANCH   1  15
BRANCH   2  20
ATOM     20  C   UNL     1      -2.692  13.268  22.136  0.00  0.00    +0.000 C 
ATOM     21  C   UNL     1      -2.348  12.137  23.093  0.00  0.00    +0.000 C 
ENDBRANCH   2  20
BRANCH   3  22
ATOM     22  C   UNL     1      -1.750  12.321  19.452  0.00  0.00    +0.000 C 
ATOM     23  O   UNL     1      -1.226  13.176  18.766  0.00  0.00    +0.000 OA
BRANCH  22  24
ATOM     24  O   UNL     1      -1.187  11.173  19.901  0.00  0.00    +0.000 OA
BRANCH  24  25
ATOM     25  C   UNL     1       0.232  10.977  19.722  0.00  0.00    +0.000 C 
ATOM     26  C   UNL     1       0.595   9.943  18.674  0.00  0.00    +0.000 C 
ENDBRANCH  24  25
ENDBRANCH  22  24
ENDBRANCH   3  22
TORSDOF 8
ENDMDL
MODEL 6
REMARK VINA RESULT:      -5.2      8.402     12.137
REMARK  Name = 
REMARK  13 active torsions:
REMARK  status: ('A' for Active; 'I' for Inactive)
REMARK    1  A    between atoms: C_1  and  C_2
REMARK    2  A    between atoms: C_2  and  O_3
REMARK    3  A    between atoms: O_3  and  C_4
REMARK    4  A    between atoms: C_4  and  C_6
REMARK    5  A    between atoms: C_7  and  C_8
REMARK    6  A    between atoms: C_8  and  C_9
REMARK    7  A    between atoms: C_10  and  C_11
REMARK    8  A    between atoms: C_11  and  O_13
REMARK    9  A    between atoms: O_13  and  C_14
REMARK   10  A    between atoms: C_14  and  C_15
REMARK   11  A    between atoms: C_16  and  C_17
REMARK   12  A    between atoms: N_23  and  C_24
REMARK   13  A    between atoms: C_25  and  C_26
REMARK                            x       y       z     vdW  Elec       q    Type
REMARK                         _______ _______ _______ _____ _____    ______ ____
ROOT
ATOM      1  C   UNL     1       2.207   6.745  20.012  0.00  0.00    +0.000 A 
ATOM      2  C   UNL     1       2.759   5.462  20.205  0.00  0.00    +0.000 A 
ATOM      3  C   UNL     1       3.764   5.051  19.290  0.00  0.00    +0.000 A 
ATOM      4  C   UNL     1       4.080   5.825  18.122  0.00  0.00    +0.000 A 
ATOM      5  N   UNL     1       3.392   7.010  17.915  0.00  0.00    +0.000 N 
ATOM      6  C   UNL     1       3.454   7.745  16.613  0.00  0.00    +0.000 C 
ATOM      7  C   UNL     1       2.556   7.529  18.883  0.00  0.00    +0.000 A 
ATOM      8  C   UNL     1       1.976   8.924  18.709  0.00  0.00    +0.000 C 
ENDROOT
BRANCH   4   9
ATOM      9  C   UNL     1       5.064   5.403  17.072  0.00  0.00    +0.000 A 
ATOM     10  C   UNL     1       6.386   5.895  17.068  0.00  0.00    +0.000 A 
ATOM     11  C   UNL     1       7.297   5.564  16.056  0.00  0.00    +0.000 A 
ATOM     12  C   UNL     1       6.945   4.652  15.070  0.00  0.00    +0.000 A 
ATOM     13  C   UNL     1       5.672   4.102  15.073  0.00  0.00    +0.000 A 
ATOM     14  C   UNL     1       4.729   4.511  16.027  0.00  0.00    +0.000 A 
ENDBRANCH   4   9
BRANCH   1  15
ATOM     15  C   UNL     1       1.146   7.299  20.907  0.00  0.00    +0.000 C 
ATOM     16  O   UNL     1      -0.028   7.012  20.772  0.00  0.00    +0.000 OA
BRANCH  15  17
ATOM     17  O   UNL     1       1.663   8.165  21.796  0.00  0.00    +0.000 OA
BRANCH  17  19
ATOM     18  C   UNL     1       0.123   9.433  23.259  0.00  0.00    +0.000 C 
ATOM     19  C   UNL     1       0.950   9.396  21.976  0.00  0.00    +0.000 C 
ENDBRANCH  17  19
ENDBRANCH  15  17
ENDBRANCH   1  15
BRANCH   2  20
ATOM     20  C   UNL     1       2.241   4.548  21.308  0.00  0.00    +0.000 C 
ATOM     21  C   UNL     1       1.095   3.634  20.901  0.00  0.00    +0.000 C 
ENDBRANCH   2  20
BRANCH   3  22
ATOM     22  C   UNL     1       4.549   3.807  19.543  0.00  0.00    +0.000 C 
ATOM     23  O   UNL     1       5.760   3.791  19.637  0.00  0.00    +0.000 OA
BRANCH  22  24
ATOM     24  O   UNL     1       3.717   2.739  19.503  0.00  0.00    +0.000 OA
BRANCH  24  25
ATOM     25  C   UNL     1       3.546   2.036  18.254  0.00  0.00    +0.000 C 
ATOM     26  C   UNL     1       2.219   2.294  17.567  0.00  0.00    +0.000 C 
ENDBRANCH  24  25
ENDBRANCH  22  24
ENDBRANCH   3  22
TORSDOF 8
ENDMDL
MODEL 7
REMARK VINA RESULT:      -5.2      8.678     11.310
REMARK  Name = 
REMARK  13 active torsions:
REMARK  status: ('A' for Active; 'I' for Inactive)
REMARK    1  A    between atoms: C_1  and  C_2
REMARK    2  A    between atoms: C_2  and  O_3
REMARK    3  A    between atoms: O_3  and  C_4
REMARK    4  A    between atoms: C_4  and  C_6
REMARK    5  A    between atoms: C_7  and  C_8
REMARK    6  A    between atoms: C_8  and  C_9
REMARK    7  A    between atoms: C_10  and  C_11
REMARK    8  A    between atoms: C_11  and  O_13
REMARK    9  A    between atoms: O_13  and  C_14
REMARK   10  A    between atoms: C_14  and  C_15
REMARK   11  A    between atoms: C_16  and  C_17
REMARK   12  A    between atoms: N_23  and  C_24
REMARK   13  A    between atoms: C_25  and  C_26
REMARK                            x       y       z     vdW  Elec       q    Type
REMARK                         _______ _______ _______ _____ _____    ______ ____
ROOT
ATOM      1  C   UNL     1       5.400   4.844  16.741  0.00  0.00    +0.000 A 
ATOM      2  C   UNL     1       4.219   4.271  17.253  0.00  0.00    +0.000 A 
ATOM      3  C   UNL     1       3.225   5.166  17.729  0.00  0.00    +0.000 A 
ATOM      4  C   UNL     1       3.477   6.575  17.850  0.00  0.00    +0.000 A 
ATOM      5  N   UNL     1       4.719   7.054  17.464  0.00  0.00    +0.000 N 
ATOM      6  C   UNL     1       5.169   8.442  17.794  0.00  0.00    +0.000 C 
ATOM      7  C   UNL     1       5.628   6.242  16.817  0.00  0.00    +0.000 A 
ATOM      8  C   UNL     1       6.893   6.846  16.230  0.00  0.00    +0.000 C 
ENDROOT
BRANCH   4   9
ATOM      9  C   UNL     1       2.504   7.559  18.429  0.00  0.00    +0.000 A 
ATOM     10  C   UNL     1       1.836   8.494  17.611  0.00  0.00    +0.000 A 
ATOM     11  C   UNL     1       0.977   9.465  18.145  0.00  0.00    +0.000 A 
ATOM     12  C   UNL     1       0.681   9.466  19.501  0.00  0.00    +0.000 A 
ATOM     13  C   UNL     1       1.275   8.525  20.330  0.00  0.00    +0.000 A 
ATOM     14  C   UNL     1       2.212   7.620  19.811  0.00  0.00    +0.000 A 
ENDBRANCH   4   9
BRANCH   1  15
ATOM     15  C   UNL     1       6.522   4.014  16.204  0.00  0.00    +0.000 C 
ATOM     16  O   UNL     1       7.612   3.976  16.741  0.00  0.00    +0.000 OA
BRANCH  15  17
ATOM     17  O   UNL     1       6.168   3.399  15.063  0.00  0.00    +0.000 OA
BRANCH  17  19
ATOM     18  C   UNL     1       5.784   3.465  12.620  0.00  0.00    +0.000 C 
ATOM     19  C   UNL     1       6.414   4.119  13.848  0.00  0.00    +0.000 C 
ENDBRANCH  17  19
ENDBRANCH  15  17
ENDBRANCH   1  15
BRANCH   2  20
ATOM     20  C   UNL     1       4.062   2.759  17.345  0.00  0.00    +0.000 C 
ATOM     21  C   UNL     1       4.217   2.178  18.742  0.00  0.00    +0.000 C 
ENDBRANCH   2  20
BRANCH   3  22
ATOM     22  C   UNL     1       1.866   4.662  18.087  0.00  0.00    +0.000 C 
ATOM     23  O   UNL     1       0.970   4.530  17.278  0.00  0.00    +0.000 OA
BRANCH  22  24
ATOM     24  O   UNL     1       1.781   4.526  19.432  0.00  0.00    +0.000 OA
BRANCH  24  25
ATOM     25  C   UNL     1       0.934   3.491  19.975  0.00  0.00    +0.000 C 
ATOM     26  C   UNL     1       1.448   2.870  21.260  0.00  0.00    +0.000 C 
ENDBRANCH  24  25
ENDBRANCH  22  24
ENDBRANCH   3  22
TORSDOF 8
ENDMDL
MODEL 8
REMARK VINA RESULT:      -5.2      2.323      4.073
REMARK  Name = 
REMARK  13 active torsions:
REMARK  status: ('A' for Active; 'I' for Inactive)
REMARK    1  A    between atoms: C_1  and  C_2
REMARK    2  A    between atoms: C_2  and  O_3
REMARK    3  A    between atoms: O_3  and  C_4
REMARK    4  A    between atoms: C_4  and  C_6
REMARK    5  A    between atoms: C_7  and  C_8
REMARK    6  A    between atoms: C_8  and  C_9
REMARK    7  A    between atoms: C_10  and  C_11
REMARK    8  A    between atoms: C_11  and  O_13
REMARK    9  A    between atoms: O_13  and  C_14
REMARK   10  A    between atoms: C_14  and  C_15
REMARK   11  A    between atoms: C_16  and  C_17
REMARK   12  A    between atoms: N_23  and  C_24
REMARK   13  A    between atoms: C_25  and  C_26
REMARK                            x       y       z     vdW  Elec       q    Type
REMARK                         _______ _______ _______ _____ _____    ______ ____
ROOT
ATOM      1  C   UNL     1      -2.776  11.274  18.990  0.00  0.00    +0.000 A 
ATOM      2  C   UNL     1      -1.592  11.266  19.754  0.00  0.00    +0.000 A 
ATOM      3  C   UNL     1      -1.590  12.042  20.943  0.00  0.00    +0.000 A 
ATOM      4  C   UNL     1      -2.671  12.931  21.263  0.00  0.00    +0.000 A 
ATOM      5  N   UNL     1      -3.744  13.000  20.388  0.00  0.00    +0.000 N 
ATOM      6  C   UNL     1      -4.781  14.074  20.490  0.00  0.00    +0.000 C 
ATOM      7  C   UNL     1      -3.863  12.118  19.334  0.00  0.00    +0.000 A 
ATOM      8  C   UNL     1      -5.145  12.089  18.517  0.00  0.00    +0.000 C 
ENDROOT
BRANCH   4   9
ATOM      9  C   UNL     1      -2.689  13.843  22.454  0.00  0.00    +0.000 A 
ATOM     10  C   UNL     1      -3.300  13.454  23.664  0.00  0.00    +0.000 A 
ATOM     11  C   UNL     1      -3.385  14.320  24.763  0.00  0.00    +0.000 A 
ATOM     12  C   UNL     1      -2.774  15.566  24.720  0.00  0.00    +0.000 A 
ATOM     13  C   UNL     1      -2.113  15.962  23.567  0.00  0.00    +0.000 A 
ATOM     14  C   UNL     1      -2.116  15.136  22.433  0.00  0.00    +0.000 A 
ENDBRANCH   4   9
BRANCH   1  15
ATOM     15  C   UNL     1      -2.911  10.497  17.720  0.00  0.00    +0.000 C 
ATOM     16  O   UNL     1      -3.298   9.344  17.706  0.00  0.00    +0.000 OA
BRANCH  15  17
ATOM     17  O   UNL     1      -2.500  11.218  16.663  0.00  0.00    +0.000 OA
BRANCH  17  19
ATOM     18  C   UNL     1      -2.920  10.077  14.509  0.00  0.00    +0.000 C 
ATOM     19  C   UNL     1      -3.331  11.167  15.495  0.00  0.00    +0.000 C 
ENDBRANCH  17  19
ENDBRANCH  15  17
ENDBRANCH   1  15
BRANCH   2  20
ATOM     20  C   UNL     1      -0.360  10.509  19.276  0.00  0.00    +0.000 C 
ATOM     21  C   UNL     1       0.678  11.356  18.556  0.00  0.00    +0.000 C 
ENDBRANCH   2  20
BRANCH   3  22
ATOM     22  C   UNL     1      -0.465  11.924  21.917  0.00  0.00    +0.000 C 
ATOM     23  O   UNL     1       0.579  12.535  21.806  0.00  0.00    +0.000 OA
BRANCH  22  24
ATOM     24  O   UNL     1      -0.753  10.953  22.816  0.00  0.00    +0.000 OA
BRANCH  24  25
ATOM     25  C   UNL     1       0.105   9.794  22.888  0.00  0.00    +0.000 C 
ATOM     26  C   UNL     1      -0.447   8.561  22.197  0.00  0.00    +0.000 C 
ENDBRANCH  24  25
ENDBRANCH  22  24
ENDBRANCH   3  22
TORSDOF 8
ENDMDL
MODEL 9
REMARK VINA RESULT:      -5.1      2.019      3.632
REMARK  Name = 
REMARK  13 active torsions:
REMARK  status: ('A' for Active; 'I' for Inactive)
REMARK    1  A    between atoms: C_1  and  C_2
REMARK    2  A    between atoms: C_2  and  O_3
REMARK    3  A    between atoms: O_3  and  C_4
REMARK    4  A    between atoms: C_4  and  C_6
REMARK    5  A    between atoms: C_7  and  C_8
REMARK    6  A    between atoms: C_8  and  C_9
REMARK    7  A    between atoms: C_10  and  C_11
REMARK    8  A    between atoms: C_11  and  O_13
REMARK    9  A    between atoms: O_13  and  C_14
REMARK   10  A    between atoms: C_14  and  C_15
REMARK   11  A    between atoms: C_16  and  C_17
REMARK   12  A    between atoms: N_23  and  C_24
REMARK   13  A    between atoms: C_25  and  C_26
REMARK                            x       y       z     vdW  Elec       q    Type
REMARK                         _______ _______ _______ _____ _____    ______ ____
ROOT
ATOM      1  C   UNL     1      -4.055  11.567  18.676  0.00  0.00    +0.000 A 
ATOM      2  C   UNL     1      -3.022  12.127  19.456  0.00  0.00    +0.000 A 
ATOM      3  C   UNL     1      -3.411  13.006  20.500  0.00  0.00    +0.000 A 
ATOM      4  C   UNL     1      -4.770  13.447  20.646  0.00  0.00    +0.000 A 
ATOM      5  N   UNL     1      -5.713  12.970  19.750  0.00  0.00    +0.000 N 
ATOM      6  C   UNL     1      -7.083  13.565  19.651  0.00  0.00    +0.000 C 
ATOM      7  C   UNL     1      -5.404  11.967  18.853  0.00  0.00    +0.000 A 
ATOM      8  C   UNL     1      -6.508  11.330  18.026  0.00  0.00    +0.000 C 
ENDROOT
BRANCH   4   9
ATOM      9  C   UNL     1      -5.228  14.443  21.669  0.00  0.00    +0.000 A 
ATOM     10  C   UNL     1      -5.806  14.028  22.887  0.00  0.00    +0.000 A 
ATOM     11  C   UNL     1      -6.302  14.946  23.823  0.00  0.00    +0.000 A 
ATOM     12  C   UNL     1      -6.144  16.310  23.615  0.00  0.00    +0.000 A 
ATOM     13  C   UNL     1      -5.528  16.757  22.455  0.00  0.00    +0.000 A 
ATOM     14  C   UNL     1      -5.125  15.840  21.473  0.00  0.00    +0.000 A 
ENDBRANCH   4   9
BRANCH   1  15
ATOM     15  C   UNL     1      -3.781  10.623  17.550  0.00  0.00    +0.000 C 
ATOM     16  O   UNL     1      -3.589   9.436  17.734  0.00  0.00    +0.000 OA
BRANCH  15  17
ATOM     17  O   UNL     1      -3.724  11.272  16.374  0.00  0.00    +0.000 OA
BRANCH  17  19
ATOM     18  C   UNL     1      -3.422  10.079  14.229  0.00  0.00    +0.000 C 
ATOM     19  C   UNL     1      -2.773  10.780  15.420  0.00  0.00    +0.000 C 
ENDBRANCH  17  19
ENDBRANCH  15  17
ENDBRANCH   1  15
BRANCH   2  20
ATOM     20  C   UNL     1      -1.561  11.841  19.135  0.00  0.00    +0.000 C 
ATOM     21  C   UNL     1      -0.889  12.859  18.227  0.00  0.00    +0.000 C 
ENDBRANCH   2  20
BRANCH   3  22
ATOM     22  C   UNL     1      -2.409  13.473  21.504  0.00  0.00    +0.000 C 
ATOM     23  O   UNL     1      -1.736  14.474  21.358  0.00  0.00    +0.000 OA
BRANCH  22  24
ATOM     24  O   UNL     1      -2.292  12.544  22.482  0.00  0.00    +0.000 OA
BRANCH  24  25
ATOM     25  C   UNL     1      -0.990  11.986  22.760  0.00  0.00    +0.000 C 
ATOM     26  C   UNL     1      -1.003  10.510  23.109  0.00  0.00    +0.000 C 
ENDBRANCH  24  25
ENDBRANCH  22  24
ENDBRANCH   3  22
TORSDOF 8
ENDMDL
