MODEL 1
REMARK VINA RESULT:      -7.0      0.000      0.000
REMARK  Name = 
REMARK  12 active torsions:
REMARK  status: ('A' for Active; 'I' for Inactive)
REMARK    1  A    between atoms: C_1  and  C_2
REMARK    2  A    between atoms: C_2  and  N_3
REMARK    3  A    between atoms: N_3  and  C_4
REMARK    4  A    between atoms: N_3  and  C_6
REMARK    5  A    between atoms: C_4  and  C_5
REMARK    6  A    between atoms: C_6  and  C_7
REMARK    7  A    between atoms: C_7  and  C_8
REMARK    8  A    between atoms: C_8  and  N_9
REMARK    9  A    between atoms: C_10  and  C_12
REMARK   10  A    between atoms: C_12  and  C_13
REMARK   11  A    between atoms: C_15  and  O_16
REMARK   12  A    between atoms: C_19  and  O_20
REMARK                            x       y       z     vdW  Elec       q    Type
REMARK                         _______ _______ _______ _____ _____    ______ ____
ROOT
ATOM      1  C   UNL     1       1.579   8.488  19.720  0.00  0.00    +0.000 A 
ATOM      2  C   UNL     1       1.022   8.981  18.539  0.00  0.00    +0.000 A 
ATOM      3  C   UNL     1       0.029   9.956  18.561  0.00  0.00    +0.000 A 
ATOM      4  C   UNL     1      -0.435  10.471  19.793  0.00  0.00    +0.000 A 
ATOM      5  C   UNL     1       0.113   9.989  21.016  0.00  0.00    +0.000 A 
ATOM      6  C   UNL     1       1.134   8.979  20.965  0.00  0.00    +0.000 A 
ATOM      7  C   UNL     1      -0.412  10.567  22.304  0.00  0.00    +0.000 C 
ATOM      8  O   UNL     1       0.012  10.193  23.382  0.00  0.00    +0.000 OA
ATOM      9  C   UNL     1      -1.462  11.616  22.301  0.00  0.00    +0.000 A 
ATOM     10  C   UNL     1      -1.944  12.150  23.514  0.00  0.00    +0.000 A 
ATOM     11  C   UNL     1      -2.932  13.135  23.515  0.00  0.00    +0.000 A 
ATOM     12  C   UNL     1      -3.450  13.605  22.308  0.00  0.00    +0.000 A 
ATOM     13  C   UNL     1      -2.982  13.087  21.100  0.00  0.00    +0.000 A 
ATOM     14  C   UNL     1      -1.987  12.089  21.086  0.00  0.00    +0.000 A 
ATOM     15  C   UNL     1      -1.493  11.532  19.809  0.00  0.00    +0.000 C 
ATOM     16  O   UNL     1      -1.959  11.958  18.761  0.00  0.00    +0.000 OA
ENDROOT
BRANCH   3  17
ATOM     17  O   UNL     1      -0.477  10.398  17.390  0.00  0.00    +0.000 OA
ATOM     18  H   UNL     1      -0.397  11.318  17.100  0.00  0.00    +0.000 HD
ENDBRANCH   3  17
BRANCH   6  19
ATOM     19  O   UNL     1       1.724   8.454  22.066  0.00  0.00    +0.000 OA
ATOM     20  H   UNL     1       1.304   8.083  22.845  0.00  0.00    +0.000 HD
ENDBRANCH   6  19
BRANCH   1  21
ATOM     21  C   UNL     1       2.675   7.445  19.617  0.00  0.00    +0.000 C 
BRANCH  21  23
ATOM     22  N   UNL     1       2.134   5.507  18.161  0.00  0.00    +0.000 N 
ATOM     23  C   UNL     1       2.100   6.069  19.399  0.00  0.00    +0.000 C 
ATOM     24  O   UNL     1       1.603   5.476  20.344  0.00  0.00    +0.000 OA
ATOM     25  H   UNL     1       2.540   6.042  17.377  0.00  0.00    +0.000 HD
BRANCH  22  26
ATOM     26  C   UNL     1       1.628   4.177  17.880  0.00  0.00    +0.000 C 
BRANCH  26  27
ATOM     27  C   UNL     1       2.777   3.168  17.908  0.00  0.00    +0.000 C 
BRANCH  27  28
ATOM     28  C   UNL     1       3.864   3.455  16.850  0.00  0.00    +0.000 C 
BRANCH  28  29
ATOM     29  N   UNL     1       4.897   4.436  17.277  0.00  0.00    +0.000 NA
BRANCH  29  31
ATOM     30  C   UNL     1       6.119   5.351  19.301  0.00  0.00    +0.000 C 
ATOM     31  C   UNL     1       5.348   4.187  18.672  0.00  0.00    +0.000 C 
ENDBRANCH  29  31
BRANCH  29  32
ATOM     32  C   UNL     1       6.002   4.496  16.280  0.00  0.00    +0.000 C 
ATOM     33  C   UNL     1       5.552   4.319  14.819  0.00  0.00    +0.000 C 
ENDBRANCH  29  32
ENDBRANCH  28  29
ENDBRANCH  27  28
ENDBRANCH  26  27
ENDBRANCH  22  26
ENDBRANCH  21  23
ENDBRANCH   1  21
TORSDOF 10
ENDMDL
MODEL 2
REMARK VINA RESULT:      -7.0      1.198      3.043
REMARK  Name = 
REMARK  12 active torsions:
REMARK  status: ('A' for Active; 'I' for Inactive)
REMARK    1  A    between atoms: C_1  and  C_2
REMARK    2  A    between atoms: C_2  and  N_3
REMARK    3  A    between atoms: N_3  and  C_4
REMARK    4  A    between atoms: N_3  and  C_6
REMARK    5  A    between atoms: C_4  and  C_5
REMARK    6  A    between atoms: C_6  and  C_7
REMARK    7  A    between atoms: C_7  and  C_8
REMARK    8  A    between atoms: C_8  and  N_9
REMARK    9  A    between atoms: C_10  and  C_12
REMARK   10  A    between atoms: C_12  and  C_13
REMARK   11  A    between atoms: C_15  and  O_16
REMARK   12  A    between atoms: C_19  and  O_20
REMARK                            x       y       z     vdW  Elec       q    Type
REMARK                         _______ _______ _______ _____ _____    ______ ____
ROOT
ATOM      1  C   UNL     1       1.626   8.688  19.068  0.00  0.00    +0.000 A 
ATOM      2  C   UNL     1       1.893   8.365  20.399  0.00  0.00    +0.000 A 
ATOM      3  C   UNL     1       1.232   9.004  21.443  0.00  0.00    +0.000 A 
ATOM      4  C   UNL     1       0.266  10.001  21.170  0.00  0.00    +0.000 A 
ATOM      5  C   UNL     1      -0.030  10.353  19.823  0.00  0.00    +0.000 A 
ATOM      6  C   UNL     1       0.670   9.680  18.763  0.00  0.00    +0.000 A 
ATOM      7  C   UNL     1      -1.066  11.418  19.581  0.00  0.00    +0.000 C 
ATOM      8  O   UNL     1      -1.359  11.767  18.452  0.00  0.00    +0.000 OA
ATOM      9  C   UNL     1      -1.767  12.076  20.711  0.00  0.00    +0.000 A 
ATOM     10  C   UNL     1      -2.737  13.072  20.469  0.00  0.00    +0.000 A 
ATOM     11  C   UNL     1      -3.397  13.694  21.530  0.00  0.00    +0.000 A 
ATOM     12  C   UNL     1      -3.104  13.329  22.844  0.00  0.00    +0.000 A 
ATOM     13  C   UNL     1      -2.148  12.344  23.098  0.00  0.00    +0.000 A 
ATOM     14  C   UNL     1      -1.472  11.712  22.036  0.00  0.00    +0.000 A 
ATOM     15  C   UNL     1      -0.454  10.673  22.300  0.00  0.00    +0.000 C 
ATOM     16  O   UNL     1      -0.212  10.367  23.459  0.00  0.00    +0.000 OA
ENDROOT
BRANCH   3  17
ATOM     17  O   UNL     1       1.528   8.656  22.714  0.00  0.00    +0.000 OA
ATOM     18  H   UNL     1       1.926   7.804  22.942  0.00  0.00    +0.000 HD
ENDBRANCH   3  17
BRANCH   6  19
ATOM     19  O   UNL     1       0.464   9.936  17.449  0.00  0.00    +0.000 OA
ATOM     20  H   UNL     1      -0.341   9.821  16.940  0.00  0.00    +0.000 HD
ENDBRANCH   6  19
BRANCH   1  21
ATOM     21  C   UNL     1       2.366   7.931  17.982  0.00  0.00    +0.000 C 
BRANCH  21  23
ATOM     22  N   UNL     1       3.624   6.089  19.074  0.00  0.00    +0.000 N 
ATOM     23  C   UNL     1       2.541   6.481  18.350  0.00  0.00    +0.000 C 
ATOM     24  O   UNL     1       1.702   5.670  17.987  0.00  0.00    +0.000 OA
ATOM     25  H   UNL     1       4.327   6.793  19.347  0.00  0.00    +0.000 HD
BRANCH  22  26
ATOM     26  C   UNL     1       3.844   4.717  19.491  0.00  0.00    +0.000 C 
BRANCH  26  27
ATOM     27  C   UNL     1       5.234   4.257  19.049  0.00  0.00    +0.000 C 
BRANCH  27  28
ATOM     28  C   UNL     1       5.451   4.357  17.524  0.00  0.00    +0.000 C 
BRANCH  28  29
ATOM     29  N   UNL     1       6.865   4.574  17.116  0.00  0.00    +0.000 NA
BRANCH  29  31
ATOM     30  C   UNL     1       5.662   4.724  14.890  0.00  0.00    +0.000 C 
ATOM     31  C   UNL     1       6.980   4.845  15.659  0.00  0.00    +0.000 C 
ENDBRANCH  29  31
BRANCH  29  32
ATOM     32  C   UNL     1       7.504   5.606  17.980  0.00  0.00    +0.000 C 
ATOM     33  C   UNL     1       7.374   7.047  17.455  0.00  0.00    +0.000 C 
ENDBRANCH  29  32
ENDBRANCH  28  29
ENDBRANCH  27  28
ENDBRANCH  26  27
ENDBRANCH  22  26
ENDBRANCH  21  23
ENDBRANCH   1  21
TORSDOF 10
ENDMDL
MODEL 3
REMARK VINA RESULT:      -7.0      0.464      1.334
REMARK  Name = 
REMARK  12 active torsions:
REMARK  status: ('A' for Active; 'I' for Inactive)
REMARK    1  A    between atoms: C_1  and  C_2
REMARK    2  A    between atoms: C_2  and  N_3
REMARK    3  A    between atoms: N_3  and  C_4
REMARK    4  A    between atoms: N_3  and  C_6
REMARK    5  A    between atoms: C_4  and  C_5
REMARK    6  A    between atoms: C_6  and  C_7
REMARK    7  A    between atoms: C_7  and  C_8
REMARK    8  A    between atoms: C_8  and  N_9
REMARK    9  A    between atoms: C_10  and  C_12
REMARK   10  A    between atoms: C_12  and  C_13
REMARK   11  A    between atoms: C_15  and  O_16
REMARK   12  A    between atoms: C_19  and  O_20
REMARK                            x       y       z     vdW  Elec       q    Type
REMARK                         _______ _______ _______ _____ _____    ______ ____
ROOT
ATOM      1  C   UNL     1       1.507   8.516  19.630  0.00  0.00    +0.000 A 
ATOM      2  C   UNL     1       0.921   9.001  18.461  0.00  0.00    +0.000 A 
ATOM      3  C   UNL     1      -0.066   9.981  18.502  0.00  0.00    +0.000 A 
ATOM      4  C   UNL     1      -0.494  10.509  19.742  0.00  0.00    +0.000 A 
ATOM      5  C   UNL     1       0.085  10.035  20.953  0.00  0.00    +0.000 A 
ATOM      6  C   UNL     1       1.100   9.020  20.883  0.00  0.00    +0.000 A 
ATOM      7  C   UNL     1      -0.401  10.627  22.250  0.00  0.00    +0.000 C 
ATOM      8  O   UNL     1       0.051  10.260  23.319  0.00  0.00    +0.000 OA
ATOM      9  C   UNL     1      -1.446  11.681  22.267  0.00  0.00    +0.000 A 
ATOM     10  C   UNL     1      -1.891  12.227  23.489  0.00  0.00    +0.000 A 
ATOM     11  C   UNL     1      -2.874  13.217  23.508  0.00  0.00    +0.000 A 
ATOM     12  C   UNL     1      -3.423  13.679  22.313  0.00  0.00    +0.000 A 
ATOM     13  C   UNL     1      -2.991  13.149  21.096  0.00  0.00    +0.000 A 
ATOM     14  C   UNL     1      -2.002  12.146  21.064  0.00  0.00    +0.000 A 
ATOM     15  C   UNL     1      -1.546  11.576  19.778  0.00  0.00    +0.000 C 
ATOM     16  O   UNL     1      -2.039  11.995  18.739  0.00  0.00    +0.000 OA
ENDROOT
BRANCH   3  17
ATOM     17  O   UNL     1      -0.603  10.416  17.341  0.00  0.00    +0.000 OA
ATOM     18  H   UNL     1      -1.380  10.002  16.938  0.00  0.00    +0.000 HD
ENDBRANCH   3  17
BRANCH   6  19
ATOM     19  O   UNL     1       1.717   8.501  21.972  0.00  0.00    +0.000 OA
ATOM     20  H   UNL     1       2.168   7.658  22.054  0.00  0.00    +0.000 HD
ENDBRANCH   6  19
BRANCH   1  21
ATOM     21  C   UNL     1       2.595   7.466  19.506  0.00  0.00    +0.000 C 
BRANCH  21  23
ATOM     22  N   UNL     1       1.939   5.235  18.634  0.00  0.00    +0.000 N 
ATOM     23  C   UNL     1       2.039   6.079  19.696  0.00  0.00    +0.000 C 
ATOM     24  O   UNL     1       1.679   5.730  20.810  0.00  0.00    +0.000 OA
ATOM     25  H   UNL     1       2.231   5.566  17.701  0.00  0.00    +0.000 HD
BRANCH  22  26
ATOM     26  C   UNL     1       1.443   3.877  18.744  0.00  0.00    +0.000 C 
BRANCH  26  27
ATOM     27  C   UNL     1       2.609   2.891  18.680  0.00  0.00    +0.000 C 
BRANCH  27  28
ATOM     28  C   UNL     1       3.414   2.985  17.366  0.00  0.00    +0.000 C 
BRANCH  28  29
ATOM     29  N   UNL     1       4.711   3.702  17.487  0.00  0.00    +0.000 NA
BRANCH  29  31
ATOM     30  C   UNL     1       5.519   4.768  15.334  0.00  0.00    +0.000 C 
ATOM     31  C   UNL     1       4.743   4.926  16.644  0.00  0.00    +0.000 C 
ENDBRANCH  29  31
BRANCH  29  32
ATOM     32  C   UNL     1       5.043   3.939  18.920  0.00  0.00    +0.000 C 
ATOM     33  C   UNL     1       5.870   5.211  19.180  0.00  0.00    +0.000 C 
ENDBRANCH  29  32
ENDBRANCH  28  29
ENDBRANCH  27  28
ENDBRANCH  26  27
ENDBRANCH  22  26
ENDBRANCH  21  23
ENDBRANCH   1  21
TORSDOF 10
ENDMDL
MODEL 4
REMARK VINA RESULT:      -6.9      1.122      2.752
REMARK  Name = 
REMARK  12 active torsions:
REMARK  status: ('A' for Active; 'I' for Inactive)
REMARK    1  A    between atoms: C_1  and  C_2
REMARK    2  A    between atoms: C_2  and  N_3
REMARK    3  A    between atoms: N_3  and  C_4
REMARK    4  A    between atoms: N_3  and  C_6
REMARK    5  A    between atoms: C_4  and  C_5
REMARK    6  A    between atoms: C_6  and  C_7
REMARK    7  A    between atoms: C_7  and  C_8
REMARK    8  A    between atoms: C_8  and  N_9
REMARK    9  A    between atoms: C_10  and  C_12
REMARK   10  A    between atoms: C_12  and  C_13
REMARK   11  A    between atoms: C_15  and  O_16
REMARK   12  A    between atoms: C_19  and  O_20
REMARK                            x       y       z     vdW  Elec       q    Type
REMARK                         _______ _______ _______ _____ _____    ______ ____
ROOT
ATOM      1  C   UNL     1       1.203   9.102  18.831  0.00  0.00    +0.000 A 
ATOM      2  C   UNL     1       1.668   8.698  20.083  0.00  0.00    +0.000 A 
ATOM      3  C   UNL     1       1.117   9.204  21.256  0.00  0.00    +0.000 A 
ATOM      4  C   UNL     1       0.061  10.144  21.199  0.00  0.00    +0.000 A 
ATOM      5  C   UNL     1      -0.437  10.575  19.937  0.00  0.00    +0.000 A 
ATOM      6  C   UNL     1       0.153  10.041  18.741  0.00  0.00    +0.000 A 
ATOM      7  C   UNL     1      -1.562  11.577  19.925  0.00  0.00    +0.000 C 
ATOM      8  O   UNL     1      -2.028  11.989  18.879  0.00  0.00    +0.000 OA
ATOM      9  C   UNL     1      -2.144  12.091  21.191  0.00  0.00    +0.000 A 
ATOM     10  C   UNL     1      -3.198  13.027  21.164  0.00  0.00    +0.000 A 
ATOM     11  C   UNL     1      -3.746  13.514  22.352  0.00  0.00    +0.000 A 
ATOM     12  C   UNL     1      -3.255  13.072  23.580  0.00  0.00    +0.000 A 
ATOM     13  C   UNL     1      -2.212  12.144  23.621  0.00  0.00    +0.000 A 
ATOM     14  C   UNL     1      -1.648  11.648  22.428  0.00  0.00    +0.000 A 
ATOM     15  C   UNL     1      -0.539  10.671  22.466  0.00  0.00    +0.000 C 
ATOM     16  O   UNL     1      -0.123  10.295  23.553  0.00  0.00    +0.000 OA
ENDROOT
BRANCH   3  17
ATOM     17  O   UNL     1       1.605   8.781  22.442  0.00  0.00    +0.000 OA
ATOM     18  H   UNL     1       1.229   9.059  23.290  0.00  0.00    +0.000 HD
ENDBRANCH   3  17
BRANCH   6  19
ATOM     19  O   UNL     1      -0.245  10.381  17.492  0.00  0.00    +0.000 OA
ATOM     20  H   UNL     1      -1.016  10.890  17.232  0.00  0.00    +0.000 HD
ENDBRANCH   6  19
BRANCH   1  21
ATOM     21  C   UNL     1       1.835   8.489  17.597  0.00  0.00    +0.000 C 
BRANCH  21  23
ATOM     22  N   UNL     1       2.392   6.173  18.301  0.00  0.00    +0.000 N 
ATOM     23  C   UNL     1       2.828   7.418  17.967  0.00  0.00    +0.000 C 
ATOM     24  O   UNL     1       4.019   7.687  17.967  0.00  0.00    +0.000 OA
ATOM     25  H   UNL     1       1.378   5.984  18.314  0.00  0.00    +0.000 HD
BRANCH  22  26
ATOM     26  C   UNL     1       3.289   5.085  18.640  0.00  0.00    +0.000 C 
BRANCH  26  27
ATOM     27  C   UNL     1       3.309   4.058  17.508  0.00  0.00    +0.000 C 
BRANCH  27  28
ATOM     28  C   UNL     1       4.733   3.731  17.008  0.00  0.00    +0.000 C 
BRANCH  28  29
ATOM     29  N   UNL     1       5.609   4.918  16.823  0.00  0.00    +0.000 NA
BRANCH  29  31
ATOM     30  C   UNL     1       7.451   5.544  18.448  0.00  0.00    +0.000 C 
ATOM     31  C   UNL     1       6.997   4.655  17.287  0.00  0.00    +0.000 C 
ENDBRANCH  29  31
BRANCH  29  32
ATOM     32  C   UNL     1       5.520   5.418  15.422  0.00  0.00    +0.000 C 
ATOM     33  C   UNL     1       6.385   4.643  14.413  0.00  0.00    +0.000 C 
ENDBRANCH  29  32
ENDBRANCH  28  29
ENDBRANCH  27  28
ENDBRANCH  26  27
ENDBRANCH  22  26
ENDBRANCH  21  23
ENDBRANCH   1  21
TORSDOF 10
ENDMDL
MODEL 5
REMARK VINA RESULT:      -6.8      1.277      1.916
REMARK  Name = 
REMARK  12 active torsions:
REMARK  status: ('A' for Active; 'I' for Inactive)
REMARK    1  A    between atoms: C_1  and  C_2
REMARK    2  A    between atoms: C_2  and  N_3
REMARK    3  A    between atoms: N_3  and  C_4
REMARK    4  A    between atoms: N_3  and  C_6
REMARK    5  A    between atoms: C_4  and  C_5
REMARK    6  A    between atoms: C_6  and  C_7
REMARK    7  A    between atoms: C_7  and  C_8
REMARK    8  A    between atoms: C_8  and  N_9
REMARK    9  A    between atoms: C_10  and  C_12
REMARK   10  A    between atoms: C_12  and  C_13
REMARK   11  A    between atoms: C_15  and  O_16
REMARK   12  A    between atoms: C_19  and  O_20
REMARK                            x       y       z     vdW  Elec       q    Type
REMARK                         _______ _______ _______ _____ _____    ______ ____
ROOT
ATOM      1  C   UNL     1       1.384   8.925  19.077  0.00  0.00    +0.000 A 
ATOM      2  C   UNL     1       0.636   9.384  17.992  0.00  0.00    +0.000 A 
ATOM      3  C   UNL     1      -0.429  10.262  18.169  0.00  0.00    +0.000 A 
ATOM      4  C   UNL     1      -0.773  10.712  19.465  0.00  0.00    +0.000 A 
ATOM      5  C   UNL     1      -0.028  10.263  20.593  0.00  0.00    +0.000 A 
ATOM      6  C   UNL     1       1.064   9.353  20.382  0.00  0.00    +0.000 A 
ATOM      7  C   UNL     1      -0.430  10.769  21.953  0.00  0.00    +0.000 C 
ATOM      8  O   UNL     1       0.164  10.419  22.957  0.00  0.00    +0.000 OA
ATOM      9  C   UNL     1      -1.561  11.717  22.115  0.00  0.00    +0.000 A 
ATOM     10  C   UNL     1      -1.925  12.184  23.395  0.00  0.00    +0.000 A 
ATOM     11  C   UNL     1      -2.988  13.074  23.551  0.00  0.00    +0.000 A 
ATOM     12  C   UNL     1      -3.700  13.513  22.435  0.00  0.00    +0.000 A 
ATOM     13  C   UNL     1      -3.350  13.060  21.162  0.00  0.00    +0.000 A 
ATOM     14  C   UNL     1      -2.280  12.159  20.992  0.00  0.00    +0.000 A 
ATOM     15  C   UNL     1      -1.910  11.671  19.647  0.00  0.00    +0.000 C 
ATOM     16  O   UNL     1      -2.545  12.069  18.680  0.00  0.00    +0.000 OA
ENDROOT
BRANCH   3  17
ATOM     17  O   UNL     1      -1.122  10.675  17.086  0.00  0.00    +0.000 OA
ATOM     18  H   UNL     1      -0.856  10.456  16.181  0.00  0.00    +0.000 HD
ENDBRANCH   3  17
BRANCH   6  19
ATOM     19  O   UNL     1       1.837   8.866  21.383  0.00  0.00    +0.000 OA
ATOM     20  H   UNL     1       2.064   7.953  21.568  0.00  0.00    +0.000 HD
ENDBRANCH   6  19
BRANCH   1  21
ATOM     21  C   UNL     1       2.546   7.989  18.804  0.00  0.00    +0.000 C 
BRANCH  21  23
ATOM     22  N   UNL     1       1.989   6.078  20.290  0.00  0.00    +0.000 N 
ATOM     23  C   UNL     1       2.152   6.552  19.025  0.00  0.00    +0.000 C 
ATOM     24  O   UNL     1       1.987   5.826  18.057  0.00  0.00    +0.000 OA
ATOM     25  H   UNL     1       2.157   6.710  21.088  0.00  0.00    +0.000 HD
BRANCH  22  26
ATOM     26  C   UNL     1       1.583   4.716  20.579  0.00  0.00    +0.000 C 
BRANCH  26  27
ATOM     27  C   UNL     1       2.785   3.909  21.070  0.00  0.00    +0.000 C 
BRANCH  27  28
ATOM     28  C   UNL     1       3.095   2.682  20.186  0.00  0.00    +0.000 C 
BRANCH  28  29
ATOM     29  N   UNL     1       4.216   2.880  19.228  0.00  0.00    +0.000 NA
BRANCH  29  31
ATOM     30  C   UNL     1       2.308   2.291  17.666  0.00  0.00    +0.000 C 
ATOM     31  C   UNL     1       3.766   2.733  17.819  0.00  0.00    +0.000 C 
ENDBRANCH  29  31
BRANCH  29  32
ATOM     32  C   UNL     1       4.924   4.159  19.512  0.00  0.00    +0.000 C 
ATOM     33  C   UNL     1       5.628   4.782  18.293  0.00  0.00    +0.000 C 
ENDBRANCH  29  32
ENDBRANCH  28  29
ENDBRANCH  27  28
ENDBRANCH  26  27
ENDBRANCH  22  26
ENDBRANCH  21  23
ENDBRANCH   1  21
TORSDOF 10
ENDMDL
MODEL 6
REMARK VINA RESULT:      -6.8      1.159      2.889
REMARK  Name = 
REMARK  12 active torsions:
REMARK  status: ('A' for Active; 'I' for Inactive)
REMARK    1  A    between atoms: C_1  and  C_2
REMARK    2  A    between atoms: C_2  and  N_3
REMARK    3  A    between atoms: N_3  and  C_4
REMARK    4  A    between atoms: N_3  and  C_6
REMARK    5  A    between atoms: C_4  and  C_5
REMARK    6  A    between atoms: C_6  and  C_7
REMARK    7  A    between atoms: C_7  and  C_8
REMARK    8  A    between atoms: C_8  and  N_9
REMARK    9  A    between atoms: C_10  and  C_12
REMARK   10  A    between atoms: C_12  and  C_13
REMARK   11  A    between atoms: C_15  and  O_16
REMARK   12  A    between atoms: C_19  and  O_20
REMARK                            x       y       z     vdW  Elec       q    Type
REMARK                         _______ _______ _______ _____ _____    ______ ____
ROOT
ATOM      1  C   UNL     1       1.536   8.787  19.004  0.00  0.00    +0.000 A 
ATOM      2  C   UNL     1       1.849   8.430  20.316  0.00  0.00    +0.000 A 
ATOM      3  C   UNL     1       1.215   9.032  21.398  0.00  0.00    +0.000 A 
ATOM      4  C   UNL     1       0.230  10.024  21.184  0.00  0.00    +0.000 A 
ATOM      5  C   UNL     1      -0.113  10.410  19.857  0.00  0.00    +0.000 A 
ATOM      6  C   UNL     1       0.561   9.775  18.757  0.00  0.00    +0.000 A 
ATOM      7  C   UNL     1      -1.168  11.469  19.677  0.00  0.00    +0.000 C 
ATOM      8  O   UNL     1      -1.501  11.846  18.568  0.00  0.00    +0.000 OA
ATOM      9  C   UNL     1      -1.840  12.087  20.847  0.00  0.00    +0.000 A 
ATOM     10  C   UNL     1      -2.828  13.078  20.664  0.00  0.00    +0.000 A 
ATOM     11  C   UNL     1      -3.461  13.661  21.762  0.00  0.00    +0.000 A 
ATOM     12  C   UNL     1      -3.122  13.264  23.055  0.00  0.00    +0.000 A 
ATOM     13  C   UNL     1      -2.148  12.284  23.252  0.00  0.00    +0.000 A 
ATOM     14  C   UNL     1      -1.499  11.690  22.151  0.00  0.00    +0.000 A 
ATOM     15  C   UNL     1      -0.461  10.656  22.354  0.00  0.00    +0.000 C 
ATOM     16  O   UNL     1      -0.179  10.321  23.496  0.00  0.00    +0.000 OA
ENDROOT
BRANCH   3  17
ATOM     17  O   UNL     1       1.555   8.652  22.649  0.00  0.00    +0.000 OA
ATOM     18  H   UNL     1       0.920   8.631  23.379  0.00  0.00    +0.000 HD
ENDBRANCH   3  17
BRANCH   6  19
ATOM     19  O   UNL     1       0.310  10.065  17.457  0.00  0.00    +0.000 OA
ATOM     20  H   UNL     1      -0.448   9.810  16.927  0.00  0.00    +0.000 HD
ENDBRANCH   6  19
BRANCH   1  21
ATOM     21  C   UNL     1       2.251   8.069  17.874  0.00  0.00    +0.000 C 
BRANCH  21  23
ATOM     22  N   UNL     1       3.755   6.308  18.771  0.00  0.00    +0.000 N 
ATOM     23  C   UNL     1       2.547   6.638  18.239  0.00  0.00    +0.000 C 
ATOM     24  O   UNL     1       1.694   5.786  18.045  0.00  0.00    +0.000 OA
ATOM     25  H   UNL     1       4.464   7.047  18.902  0.00  0.00    +0.000 HD
BRANCH  22  26
ATOM     26  C   UNL     1       4.102   4.959  19.174  0.00  0.00    +0.000 C 
BRANCH  26  27
ATOM     27  C   UNL     1       5.607   4.862  19.422  0.00  0.00    +0.000 C 
BRANCH  27  28
ATOM     28  C   UNL     1       6.422   4.621  18.133  0.00  0.00    +0.000 C 
BRANCH  28  29
ATOM     29  N   UNL     1       5.751   5.074  16.885  0.00  0.00    +0.000 NA
BRANCH  29  31
ATOM     30  C   UNL     1       7.395   6.959  17.301  0.00  0.00    +0.000 C 
ATOM     31  C   UNL     1       6.293   6.376  16.412  0.00  0.00    +0.000 C 
ENDBRANCH  29  31
BRANCH  29  32
ATOM     32  C   UNL     1       5.775   3.995  15.859  0.00  0.00    +0.000 C 
ATOM     33  C   UNL     1       6.586   4.334  14.596  0.00  0.00    +0.000 C 
ENDBRANCH  29  32
ENDBRANCH  28  29
ENDBRANCH  27  28
ENDBRANCH  26  27
ENDBRANCH  22  26
ENDBRANCH  21  23
ENDBRANCH   1  21
TORSDOF 10
ENDMDL
MODEL 7
REMARK VINA RESULT:      -6.8      0.921      1.400
REMARK  Name = 
REMARK  12 active torsions:
REMARK  status: ('A' for Active; 'I' for Inactive)
REMARK    1  A    between atoms: C_1  and  C_2
REMARK    2  A    between atoms: C_2  and  N_3
REMARK    3  A    between atoms: N_3  and  C_4
REMARK    4  A    between atoms: N_3  and  C_6
REMARK    5  A    between atoms: C_4  and  C_5
REMARK    6  A    between atoms: C_6  and  C_7
REMARK    7  A    between atoms: C_7  and  C_8
REMARK    8  A    between atoms: C_8  and  N_9
REMARK    9  A    between atoms: C_10  and  C_12
REMARK   10  A    between atoms: C_12  and  C_13
REMARK   11  A    between atoms: C_15  and  O_16
REMARK   12  A    between atoms: C_19  and  O_20
REMARK                            x       y       z     vdW  Elec       q    Type
REMARK                         _______ _______ _______ _____ _____    ______ ____
ROOT
ATOM      1  C   UNL     1       1.493   8.638  19.102  0.00  0.00    +0.000 A 
ATOM      2  C   UNL     1       0.761   9.112  18.013  0.00  0.00    +0.000 A 
ATOM      3  C   UNL     1      -0.267  10.035  18.181  0.00  0.00    +0.000 A 
ATOM      4  C   UNL     1      -0.588  10.515  19.472  0.00  0.00    +0.000 A 
ATOM      5  C   UNL     1       0.141  10.051  20.604  0.00  0.00    +0.000 A 
ATOM      6  C   UNL     1       1.195   9.095  20.403  0.00  0.00    +0.000 A 
ATOM      7  C   UNL     1      -0.236  10.591  21.959  0.00  0.00    +0.000 C 
ATOM      8  O   UNL     1       0.346  10.230  22.965  0.00  0.00    +0.000 OA
ATOM      9  C   UNL     1      -1.328  11.585  22.111  0.00  0.00    +0.000 A 
ATOM     10  C   UNL     1      -1.669  12.083  23.386  0.00  0.00    +0.000 A 
ATOM     11  C   UNL     1      -2.696  13.017  23.532  0.00  0.00    +0.000 A 
ATOM     12  C   UNL     1      -3.392  13.470  22.412  0.00  0.00    +0.000 A 
ATOM     13  C   UNL     1      -3.064  12.987  21.144  0.00  0.00    +0.000 A 
ATOM     14  C   UNL     1      -2.032  12.041  20.984  0.00  0.00    +0.000 A 
ATOM     15  C   UNL     1      -1.685  11.521  19.644  0.00  0.00    +0.000 C 
ATOM     16  O   UNL     1      -2.307  11.932  18.674  0.00  0.00    +0.000 OA
ENDROOT
BRANCH   3  17
ATOM     17  O   UNL     1      -0.946  10.461  17.095  0.00  0.00    +0.000 OA
ATOM     18  H   UNL     1      -1.876  10.241  16.941  0.00  0.00    +0.000 HD
ENDBRANCH   3  17
BRANCH   6  19
ATOM     19  O   UNL     1       1.951   8.591  21.408  0.00  0.00    +0.000 OA
ATOM     20  H   UNL     1       2.198   7.677  21.565  0.00  0.00    +0.000 HD
ENDBRANCH   6  19
BRANCH   1  21
ATOM     21  C   UNL     1       2.616   7.653  18.839  0.00  0.00    +0.000 C 
BRANCH  21  23
ATOM     22  N   UNL     1       1.966   5.382  18.070  0.00  0.00    +0.000 N 
ATOM     23  C   UNL     1       2.174   6.238  19.108  0.00  0.00    +0.000 C 
ATOM     24  O   UNL     1       2.002   5.877  20.262  0.00  0.00    +0.000 OA
ATOM     25  H   UNL     1       2.098   5.723  17.105  0.00  0.00    +0.000 HD
BRANCH  22  26
ATOM     26  C   UNL     1       1.570   3.999  18.251  0.00  0.00    +0.000 C 
BRANCH  26  27
ATOM     27  C   UNL     1       2.248   3.122  17.198  0.00  0.00    +0.000 C 
BRANCH  27  28
ATOM     28  C   UNL     1       3.783   3.064  17.352  0.00  0.00    +0.000 C 
BRANCH  28  29
ATOM     29  N   UNL     1       4.290   3.546  18.665  0.00  0.00    +0.000 NA
BRANCH  29  31
ATOM     30  C   UNL     1       3.378   2.654  20.855  0.00  0.00    +0.000 C 
ATOM     31  C   UNL     1       4.331   2.454  19.673  0.00  0.00    +0.000 C 
ENDBRANCH  29  31
BRANCH  29  32
ATOM     32  C   UNL     1       5.584   4.264  18.491  0.00  0.00    +0.000 C 
ATOM     33  C   UNL     1       5.763   5.485  19.410  0.00  0.00    +0.000 C 
ENDBRANCH  29  32
ENDBRANCH  28  29
ENDBRANCH  27  28
ENDBRANCH  26  27
ENDBRANCH  22  26
ENDBRANCH  21  23
ENDBRANCH   1  21
TORSDOF 10
ENDMDL
MODEL 8
REMARK VINA RESULT:      -6.7      1.451      3.056
REMARK  Name = 
REMARK  12 active torsions:
REMARK  status: ('A' for Active; 'I' for Inactive)
REMARK    1  A    between atoms: C_1  and  C_2
REMARK    2  A    between atoms: C_2  and  N_3
REMARK    3  A    between atoms: N_3  and  C_4
REMARK    4  A    between atoms: N_3  and  C_6
REMARK    5  A    between atoms: C_4  and  C_5
REMARK    6  A    between atoms: C_6  and  C_7
REMARK    7  A    between atoms: C_7  and  C_8
REMARK    8  A    between atoms: C_8  and  N_9
REMARK    9  A    between atoms: C_10  and  C_12
REMARK   10  A    between atoms: C_12  and  C_13
REMARK   11  A    between atoms: C_15  and  O_16
REMARK   12  A    between atoms: C_19  and  O_20
REMARK                            x       y       z     vdW  Elec       q    Type
REMARK                         _______ _______ _______ _____ _____    ______ ____
ROOT
ATOM      1  C   UNL     1       1.429   8.822  19.592  0.00  0.00    +0.000 A 
ATOM      2  C   UNL     1       1.637   8.738  20.969  0.00  0.00    +0.000 A 
ATOM      3  C   UNL     1       0.891   9.504  21.860  0.00  0.00    +0.000 A 
ATOM      4  C   UNL     1      -0.103  10.387  21.379  0.00  0.00    +0.000 A 
ATOM      5  C   UNL     1      -0.341  10.495  19.980  0.00  0.00    +0.000 A 
ATOM      6  C   UNL     1       0.447   9.697  19.081  0.00  0.00    +0.000 A 
ATOM      7  C   UNL     1      -1.410  11.448  19.514  0.00  0.00    +0.000 C 
ATOM      8  O   UNL     1      -1.657  11.589  18.331  0.00  0.00    +0.000 OA
ATOM      9  C   UNL     1      -2.203  12.244  20.485  0.00  0.00    +0.000 A 
ATOM     10  C   UNL     1      -3.202  13.132  20.035  0.00  0.00    +0.000 A 
ATOM     11  C   UNL     1      -3.948  13.882  20.945  0.00  0.00    +0.000 A 
ATOM     12  C   UNL     1      -3.711  13.756  22.314  0.00  0.00    +0.000 A 
ATOM     13  C   UNL     1      -2.726  12.881  22.773  0.00  0.00    +0.000 A 
ATOM     14  C   UNL     1      -1.964  12.120  21.864  0.00  0.00    +0.000 A 
ATOM     15  C   UNL     1      -0.914  11.196  22.345  0.00  0.00    +0.000 C 
ATOM     16  O   UNL     1      -0.722  11.099  23.550  0.00  0.00    +0.000 OA
ENDROOT
BRANCH   3  17
ATOM     17  O   UNL     1       1.133   9.387  23.183  0.00  0.00    +0.000 OA
ATOM     18  H   UNL     1       1.713   9.995  23.664  0.00  0.00    +0.000 HD
ENDBRANCH   3  17
BRANCH   6  19
ATOM     19  O   UNL     1       0.302   9.720  17.734  0.00  0.00    +0.000 OA
ATOM     20  H   UNL     1      -0.207  10.336  17.202  0.00  0.00    +0.000 HD
ENDBRANCH   6  19
BRANCH   1  21
ATOM     21  C   UNL     1       2.263   7.939  18.684  0.00  0.00    +0.000 C 
BRANCH  21  23
ATOM     22  N   UNL     1       1.680   5.993  20.113  0.00  0.00    +0.000 N 
ATOM     23  C   UNL     1       2.611   6.637  19.358  0.00  0.00    +0.000 C 
ATOM     24  O   UNL     1       3.734   6.178  19.221  0.00  0.00    +0.000 OA
ATOM     25  H   UNL     1       0.746   6.417  20.228  0.00  0.00    +0.000 HD
BRANCH  22  26
ATOM     26  C   UNL     1       1.932   4.723  20.767  0.00  0.00    +0.000 C 
BRANCH  26  27
ATOM     27  C   UNL     1       0.891   3.695  20.323  0.00  0.00    +0.000 C 
BRANCH  27  28
ATOM     28  C   UNL     1       1.272   2.971  19.014  0.00  0.00    +0.000 C 
BRANCH  28  29
ATOM     29  N   UNL     1       2.700   3.110  18.625  0.00  0.00    +0.000 NA
BRANCH  29  31
ATOM     30  C   UNL     1       4.479   2.130  20.142  0.00  0.00    +0.000 C 
ATOM     31  C   UNL     1       3.490   1.906  18.994  0.00  0.00    +0.000 C 
ENDBRANCH  29  31
BRANCH  29  32
ATOM     32  C   UNL     1       2.814   3.497  17.190  0.00  0.00    +0.000 C 
ATOM     33  C   UNL     1       4.220   3.953  16.763  0.00  0.00    +0.000 C 
ENDBRANCH  29  32
ENDBRANCH  28  29
ENDBRANCH  27  28
ENDBRANCH  26  27
ENDBRANCH  22  26
ENDBRANCH  21  23
ENDBRANCH   1  21
TORSDOF 10
ENDMDL
MODEL 9
REMARK VINA RESULT:      -6.7      1.442      3.371
REMARK  Name = 
REMARK  12 active torsions:
REMARK  status: ('A' for Active; 'I' for Inactive)
REMARK    1  A    between atoms: C_1  and  C_2
REMARK    2  A    between atoms: C_2  and  N_3
REMARK    3  A    between atoms: N_3  and  C_4
REMARK    4  A    between atoms: N_3  and  C_6
REMARK    5  A    between atoms: C_4  and  C_5
REMARK    6  A    between atoms: C_6  and  C_7
REMARK    7  A    between atoms: C_7  and  C_8
REMARK    8  A    between atoms: C_8  and  N_9
REMARK    9  A    between atoms: C_10  and  C_12
REMARK   10  A    between atoms: C_12  and  C_13
REMARK   11  A    between atoms: C_15  and  O_16
REMARK   12  A    between atoms: C_19  and  O_20
REMARK                            x       y       z     vdW  Elec       q    Type
REMARK                         _______ _______ _______ _____ _____    ______ ____
ROOT
ATOM      1  C   UNL     1       1.453   8.940  18.776  0.00  0.00    +0.000 A 
ATOM      2  C   UNL     1       1.880   8.490  20.026  0.00  0.00    +0.000 A 
ATOM      3  C   UNL     1       1.306   8.968  21.200  0.00  0.00    +0.000 A 
ATOM      4  C   UNL     1       0.267   9.926  21.145  0.00  0.00    +0.000 A 
ATOM      5  C   UNL     1      -0.192  10.405  19.885  0.00  0.00    +0.000 A 
ATOM      6  C   UNL     1       0.421   9.898  18.689  0.00  0.00    +0.000 A 
ATOM      7  C   UNL     1      -1.301  11.424  19.876  0.00  0.00    +0.000 C 
ATOM      8  O   UNL     1      -1.733  11.876  18.832  0.00  0.00    +0.000 OA
ATOM      9  C   UNL     1      -1.907  11.909  21.142  0.00  0.00    +0.000 A 
ATOM     10  C   UNL     1      -2.945  12.862  21.118  0.00  0.00    +0.000 A 
ATOM     11  C   UNL     1      -3.516  13.321  22.306  0.00  0.00    +0.000 A 
ATOM     12  C   UNL     1      -3.064  12.833  23.532  0.00  0.00    +0.000 A 
ATOM     13  C   UNL     1      -2.037  11.888  23.570  0.00  0.00    +0.000 A 
ATOM     14  C   UNL     1      -1.450  11.420  22.377  0.00  0.00    +0.000 A 
ATOM     15  C   UNL     1      -0.358  10.424  22.413  0.00  0.00    +0.000 C 
ATOM     16  O   UNL     1       0.025  10.008  23.498  0.00  0.00    +0.000 OA
ENDROOT
BRANCH   3  17
ATOM     17  O   UNL     1       1.757   8.502  22.384  0.00  0.00    +0.000 OA
ATOM     18  H   UNL     1       2.507   8.899  22.851  0.00  0.00    +0.000 HD
ENDBRANCH   3  17
BRANCH   6  19
ATOM     19  O   UNL     1       0.060  10.283  17.441  0.00  0.00    +0.000 OA
ATOM     20  H   UNL     1      -0.824  10.386  17.083  0.00  0.00    +0.000 HD
ENDBRANCH   6  19
BRANCH   1  21
ATOM     21  C   UNL     1       2.108   8.355  17.539  0.00  0.00    +0.000 C 
BRANCH  21  23
ATOM     22  N   UNL     1       4.129   6.958  17.897  0.00  0.00    +0.000 N 
ATOM     23  C   UNL     1       2.772   7.038  17.845  0.00  0.00    +0.000 C 
ATOM     24  O   UNL     1       2.078   6.053  18.040  0.00  0.00    +0.000 OA
ATOM     25  H   UNL     1       4.690   7.802  17.705  0.00  0.00    +0.000 HD
BRANCH  22  26
ATOM     26  C   UNL     1       4.839   5.733  18.214  0.00  0.00    +0.000 C 
BRANCH  26  27
ATOM     27  C   UNL     1       4.302   5.145  19.519  0.00  0.00    +0.000 C 
BRANCH  27  28
ATOM     28  C   UNL     1       4.306   3.602  19.539  0.00  0.00    +0.000 C 
BRANCH  28  29
ATOM     29  N   UNL     1       3.141   2.990  20.232  0.00  0.00    +0.000 NA
BRANCH  29  31
ATOM     30  C   UNL     1       0.862   4.074  20.475  0.00  0.00    +0.000 C 
ATOM     31  C   UNL     1       2.322   4.012  20.935  0.00  0.00    +0.000 C 
ENDBRANCH  29  31
BRANCH  29  32
ATOM     32  C   UNL     1       2.368   2.130  19.292  0.00  0.00    +0.000 C 
ATOM     33  C   UNL     1       2.821   2.224  17.824  0.00  0.00    +0.000 C 
ENDBRANCH  29  32
ENDBRANCH  28  29
ENDBRANCH  27  28
ENDBRANCH  26  27
ENDBRANCH  22  26
ENDBRANCH  21  23
ENDBRANCH   1  21
TORSDOF 10
ENDMDL
