MODEL 1
REMARK VINA RESULT:      -7.6      0.000      0.000
REMARK  Name = 
REMARK  3 active torsions:
REMARK  status: ('A' for Active; 'I' for Inactive)
REMARK    1  A    between atoms: C_1  and  C_2
REMARK    2  A    between atoms: C_7  and  C_8
REMARK    3  A    between atoms: C_8  and  C_9
REMARK                            x       y       z     vdW  Elec       q    Type
REMARK                         _______ _______ _______ _____ _____    ______ ____
ROOT
ATOM      1  C   UNL     1       5.690   5.486  16.395  0.00  0.00    +0.000 C 
ATOM      2  C   UNL     1       5.509   5.789  14.865  0.00  0.00    +0.000 C 
ATOM      3  C   UNL     1       5.452   4.271  14.616  0.00  0.00    +0.000 C 
ATOM      4  C   UNL     1       6.212   4.079  15.933  0.00  0.00    +0.000 C 
ENDROOT
BRANCH   1   5
ATOM      5  C   UNL     1       4.397   5.433  17.256  0.00  0.00    +0.000 A 
ATOM      6  N   UNL     1       3.752   6.533  17.575  0.00  0.00    +0.000 NA
ATOM      7  N   UNL     1       2.516   6.190  18.038  0.00  0.00    +0.000 NA
ATOM      8  C   UNL     1       2.403   4.878  18.019  0.00  0.00    +0.000 A 
ATOM      9  N   UNL     1       3.623   4.354  17.632  0.00  0.00    +0.000 N 
ATOM     10  C   UNL     1       4.047   2.985  17.783  0.00  0.00    +0.000 C 
ATOM     11  C   UNL     1       4.359   2.638  19.241  0.00  0.00    +0.000 C 
ATOM     12  C   UNL     1       3.244   2.906  20.258  0.00  0.00    +0.000 C 
ATOM     13  C   UNL     1       1.904   2.238  19.962  0.00  0.00    +0.000 C 
ATOM     14  C   UNL     1       1.143   2.681  18.708  0.00  0.00    +0.000 C 
ATOM     15  C   UNL     1       1.135   4.172  18.391  0.00  0.00    +0.000 C 
ENDBRANCH   1   5
BRANCH   1  22
ATOM     16  C   UNL     1       7.384   4.560  18.895  0.00  0.00    +0.000 C 
ATOM     17  C   UNL     1       7.490   5.972  18.373  0.00  0.00    +0.000 A 
ATOM     18  C   UNL     1       8.344   6.846  19.077  0.00  0.00    +0.000 A 
ATOM     19  C   UNL     1       8.487   8.171  18.694  0.00  0.00    +0.000 A 
ATOM     20  C   UNL     1       7.794   8.638  17.589  0.00  0.00    +0.000 A 
ATOM     21  C   UNL     1       6.956   7.775  16.870  0.00  0.00    +0.000 A 
ATOM     22  C   UNL     1       6.764   6.418  17.229  0.00  0.00    +0.000 A 
ENDBRANCH   1  22
TORSDOF 2
ENDMDL
MODEL 2
REMARK VINA RESULT:      -6.7      1.085      3.454
REMARK  Name = 
REMARK  3 active torsions:
REMARK  status: ('A' for Active; 'I' for Inactive)
REMARK    1  A    between atoms: C_1  and  C_2
REMARK    2  A    between atoms: C_7  and  C_8
REMARK    3  A    between atoms: C_8  and  C_9
REMARK                            x       y       z     vdW  Elec       q    Type
REMARK                         _______ _______ _______ _____ _____    ______ ____
ROOT
ATOM      1  C   UNL     1       6.374   5.411  17.769  0.00  0.00    +0.000 C 
ATOM      2  C   UNL     1       7.518   4.642  18.519  0.00  0.00    +0.000 C 
ATOM      3  C   UNL     1       7.909   5.969  19.194  0.00  0.00    +0.000 C 
ATOM      4  C   UNL     1       7.233   6.700  18.028  0.00  0.00    +0.000 C 
ENDROOT
BRANCH   1   5
ATOM      5  C   UNL     1       4.978   5.430  18.452  0.00  0.00    +0.000 A 
ATOM      6  N   UNL     1       4.450   6.555  18.878  0.00  0.00    +0.000 NA
ATOM      7  N   UNL     1       3.126   6.344  19.128  0.00  0.00    +0.000 NA
ATOM      8  C   UNL     1       2.840   5.084  18.872  0.00  0.00    +0.000 A 
ATOM      9  N   UNL     1       4.020   4.441  18.546  0.00  0.00    +0.000 N 
ATOM     10  C   UNL     1       4.229   3.016  18.508  0.00  0.00    +0.000 C 
ATOM     11  C   UNL     1       4.284   2.406  19.911  0.00  0.00    +0.000 C 
ATOM     12  C   UNL     1       3.084   2.688  20.823  0.00  0.00    +0.000 C 
ATOM     13  C   UNL     1       1.721   2.290  20.263  0.00  0.00    +0.000 C 
ATOM     14  C   UNL     1       1.210   3.033  19.024  0.00  0.00    +0.000 C 
ATOM     15  C   UNL     1       1.448   4.537  18.968  0.00  0.00    +0.000 C 
ENDBRANCH   1   5
BRANCH   1  22
ATOM     16  C   UNL     1       4.763   7.154  15.684  0.00  0.00    +0.000 C 
ATOM     17  C   UNL     1       5.352   5.823  15.284  0.00  0.00    +0.000 A 
ATOM     18  C   UNL     1       5.113   5.396  13.961  0.00  0.00    +0.000 A 
ATOM     19  C   UNL     1       5.588   4.175  13.505  0.00  0.00    +0.000 A 
ATOM     20  C   UNL     1       6.326   3.371  14.359  0.00  0.00    +0.000 A 
ATOM     21  C   UNL     1       6.586   3.792  15.671  0.00  0.00    +0.000 A 
ATOM     22  C   UNL     1       6.111   5.023  16.189  0.00  0.00    +0.000 A 
ENDBRANCH   1  22
TORSDOF 2
ENDMDL
MODEL 3
REMARK VINA RESULT:      -6.6      1.041      1.068
REMARK  Name = 
REMARK  3 active torsions:
REMARK  status: ('A' for Active; 'I' for Inactive)
REMARK    1  A    between atoms: C_1  and  C_2
REMARK    2  A    between atoms: C_7  and  C_8
REMARK    3  A    between atoms: C_8  and  C_9
REMARK                            x       y       z     vdW  Elec       q    Type
REMARK                         _______ _______ _______ _____ _____    ______ ____
ROOT
ATOM      1  C   UNL     1       5.919   5.545  16.894  0.00  0.00    +0.000 C 
ATOM      2  C   UNL     1       5.381   5.743  15.433  0.00  0.00    +0.000 C 
ATOM      3  C   UNL     1       5.594   4.237  15.197  0.00  0.00    +0.000 C 
ATOM      4  C   UNL     1       6.623   4.258  16.333  0.00  0.00    +0.000 C 
ENDROOT
BRANCH   1   5
ATOM      5  C   UNL     1       4.862   5.261  17.998  0.00  0.00    +0.000 A 
ATOM      6  N   UNL     1       4.878   5.920  19.135  0.00  0.00    +0.000 NA
ATOM      7  N   UNL     1       3.688   5.719  19.769  0.00  0.00    +0.000 NA
ATOM      8  C   UNL     1       2.943   4.922  19.030  0.00  0.00    +0.000 A 
ATOM      9  N   UNL     1       3.700   4.518  17.947  0.00  0.00    +0.000 N 
ATOM     10  C   UNL     1       3.408   3.413  17.070  0.00  0.00    +0.000 C 
ATOM     11  C   UNL     1       3.654   2.062  17.746  0.00  0.00    +0.000 C 
ATOM     12  C   UNL     1       2.925   1.823  19.074  0.00  0.00    +0.000 C 
ATOM     13  C   UNL     1       1.408   1.983  19.033  0.00  0.00    +0.000 C 
ATOM     14  C   UNL     1       0.841   3.376  18.741  0.00  0.00    +0.000 C 
ATOM     15  C   UNL     1       1.536   4.561  19.401  0.00  0.00    +0.000 C 
ENDBRANCH   1   5
BRANCH   1  22
ATOM     16  C   UNL     1       8.074   5.133  19.167  0.00  0.00    +0.000 C 
ATOM     17  C   UNL     1       7.859   6.491  18.547  0.00  0.00    +0.000 A 
ATOM     18  C   UNL     1       8.635   7.552  19.058  0.00  0.00    +0.000 A 
ATOM     19  C   UNL     1       8.491   8.844  18.574  0.00  0.00    +0.000 A 
ATOM     20  C   UNL     1       7.583   9.091  17.557  0.00  0.00    +0.000 A 
ATOM     21  C   UNL     1       6.818   8.043  17.028  0.00  0.00    +0.000 A 
ATOM     22  C   UNL     1       6.917   6.709  17.498  0.00  0.00    +0.000 A 
ENDBRANCH   1  22
TORSDOF 2
ENDMDL
MODEL 4
REMARK VINA RESULT:      -6.5      2.556      4.145
REMARK  Name = 
REMARK  3 active torsions:
REMARK  status: ('A' for Active; 'I' for Inactive)
REMARK    1  A    between atoms: C_1  and  C_2
REMARK    2  A    between atoms: C_7  and  C_8
REMARK    3  A    between atoms: C_8  and  C_9
REMARK                            x       y       z     vdW  Elec       q    Type
REMARK                         _______ _______ _______ _____ _____    ______ ____
ROOT
ATOM      1  C   UNL     1       3.921   4.327  18.202  0.00  0.00    +0.000 C 
ATOM      2  C   UNL     1       3.487   3.776  16.798  0.00  0.00    +0.000 C 
ATOM      3  C   UNL     1       3.073   2.464  17.488  0.00  0.00    +0.000 C 
ATOM      4  C   UNL     1       4.039   2.819  18.624  0.00  0.00    +0.000 C 
ENDROOT
BRANCH   1   5
ATOM      5  C   UNL     1       2.854   5.128  19.000  0.00  0.00    +0.000 A 
ATOM      6  N   UNL     1       1.999   4.515  19.787  0.00  0.00    +0.000 NA
ATOM      7  N   UNL     1       1.410   5.445  20.594  0.00  0.00    +0.000 NA
ATOM      8  C   UNL     1       1.891   6.634  20.292  0.00  0.00    +0.000 A 
ATOM      9  N   UNL     1       2.731   6.487  19.204  0.00  0.00    +0.000 N 
ATOM     10  C   UNL     1       3.212   7.545  18.353  0.00  0.00    +0.000 C 
ATOM     11  C   UNL     1       2.115   8.086  17.433  0.00  0.00    +0.000 C 
ATOM     12  C   UNL     1       0.832   8.572  18.117  0.00  0.00    +0.000 C 
ATOM     13  C   UNL     1       1.019   9.638  19.193  0.00  0.00    +0.000 C 
ATOM     14  C   UNL     1       1.788   9.252  20.460  0.00  0.00    +0.000 C 
ATOM     15  C   UNL     1       1.511   7.872  21.047  0.00  0.00    +0.000 C 
ENDBRANCH   1   5
BRANCH   1  22
ATOM     16  C   UNL     1       5.088   6.124  15.881  0.00  0.00    +0.000 C 
ATOM     17  C   UNL     1       5.822   5.987  17.193  0.00  0.00    +0.000 A 
ATOM     18  C   UNL     1       7.054   6.664  17.304  0.00  0.00    +0.000 A 
ATOM     19  C   UNL     1       7.818   6.577  18.458  0.00  0.00    +0.000 A 
ATOM     20  C   UNL     1       7.353   5.827  19.526  0.00  0.00    +0.000 A 
ATOM     21  C   UNL     1       6.122   5.163  19.435  0.00  0.00    +0.000 A 
ATOM     22  C   UNL     1       5.311   5.209  18.274  0.00  0.00    +0.000 A 
ENDBRANCH   1  22
TORSDOF 2
ENDMDL
MODEL 5
REMARK VINA RESULT:      -6.5      9.227     11.146
REMARK  Name = 
REMARK  3 active torsions:
REMARK  status: ('A' for Active; 'I' for Inactive)
REMARK    1  A    between atoms: C_1  and  C_2
REMARK    2  A    between atoms: C_7  and  C_8
REMARK    3  A    between atoms: C_8  and  C_9
REMARK                            x       y       z     vdW  Elec       q    Type
REMARK                         _______ _______ _______ _____ _____    ______ ____
ROOT
ATOM      1  C   UNL     1      -1.187  12.593  19.839  0.00  0.00    +0.000 C 
ATOM      2  C   UNL     1      -1.103  14.049  20.419  0.00  0.00    +0.000 C 
ATOM      3  C   UNL     1      -0.363  14.471  19.137  0.00  0.00    +0.000 C 
ATOM      4  C   UNL     1       0.041  13.005  18.950  0.00  0.00    +0.000 C 
ENDROOT
BRANCH   1   5
ATOM      5  C   UNL     1      -2.465  12.234  19.029  0.00  0.00    +0.000 A 
ATOM      6  N   UNL     1      -2.382  11.815  17.787  0.00  0.00    +0.000 NA
ATOM      7  N   UNL     1      -3.582  11.274  17.432  0.00  0.00    +0.000 NA
ATOM      8  C   UNL     1      -4.412  11.375  18.450  0.00  0.00    +0.000 A 
ATOM      9  N   UNL     1      -3.770  12.083  19.450  0.00  0.00    +0.000 N 
ATOM     10  C   UNL     1      -4.397  12.697  20.593  0.00  0.00    +0.000 C 
ATOM     11  C   UNL     1      -5.187  13.951  20.211  0.00  0.00    +0.000 C 
ATOM     12  C   UNL     1      -6.251  13.778  19.120  0.00  0.00    +0.000 C 
ATOM     13  C   UNL     1      -7.302  12.704  19.386  0.00  0.00    +0.000 C 
ATOM     14  C   UNL     1      -6.838  11.245  19.445  0.00  0.00    +0.000 C 
ATOM     15  C   UNL     1      -5.798  10.805  18.421  0.00  0.00    +0.000 C 
ENDBRANCH   1   5
BRANCH   1  22
ATOM     16  C   UNL     1      -1.670  12.674  22.959  0.00  0.00    +0.000 C 
ATOM     17  C   UNL     1      -1.138  11.428  22.294  0.00  0.00    +0.000 A 
ATOM     18  C   UNL     1      -0.839  10.337  23.137  0.00  0.00    +0.000 A 
ATOM     19  C   UNL     1      -0.319   9.158  22.626  0.00  0.00    +0.000 A 
ATOM     20  C   UNL     1      -0.107   9.044  21.261  0.00  0.00    +0.000 A 
ATOM     21  C   UNL     1      -0.416  10.114  20.410  0.00  0.00    +0.000 A 
ATOM     22  C   UNL     1      -0.936  11.344  20.885  0.00  0.00    +0.000 A 
ENDBRANCH   1  22
TORSDOF 2
ENDMDL
MODEL 6
REMARK VINA RESULT:      -6.5      1.641      4.008
REMARK  Name = 
REMARK  3 active torsions:
REMARK  status: ('A' for Active; 'I' for Inactive)
REMARK    1  A    between atoms: C_1  and  C_2
REMARK    2  A    between atoms: C_7  and  C_8
REMARK    3  A    between atoms: C_8  and  C_9
REMARK                            x       y       z     vdW  Elec       q    Type
REMARK                         _______ _______ _______ _____ _____    ______ ____
ROOT
ATOM      1  C   UNL     1       6.352   4.871  18.063  0.00  0.00    +0.000 C 
ATOM      2  C   UNL     1       7.850   4.723  18.508  0.00  0.00    +0.000 C 
ATOM      3  C   UNL     1       7.612   5.847  19.532  0.00  0.00    +0.000 C 
ATOM      4  C   UNL     1       6.442   6.320  18.662  0.00  0.00    +0.000 C 
ENDROOT
BRANCH   1   5
ATOM      5  C   UNL     1       5.316   3.954  18.773  0.00  0.00    +0.000 A 
ATOM      6  N   UNL     1       5.661   2.768  19.222  0.00  0.00    +0.000 NA
ATOM      7  N   UNL     1       4.685   2.324  20.065  0.00  0.00    +0.000 NA
ATOM      8  C   UNL     1       3.729   3.230  20.123  0.00  0.00    +0.000 A 
ATOM      9  N   UNL     1       4.043   4.234  19.226  0.00  0.00    +0.000 N 
ATOM     10  C   UNL     1       3.142   5.243  18.731  0.00  0.00    +0.000 C 
ATOM     11  C   UNL     1       2.128   4.671  17.737  0.00  0.00    +0.000 C 
ATOM     12  C   UNL     1       1.290   3.485  18.228  0.00  0.00    +0.000 C 
ATOM     13  C   UNL     1       0.506   3.716  19.517  0.00  0.00    +0.000 C 
ATOM     14  C   UNL     1       1.299   3.949  20.807  0.00  0.00    +0.000 C 
ATOM     15  C   UNL     1       2.540   3.090  21.024  0.00  0.00    +0.000 C 
ENDBRANCH   1   5
BRANCH   1  22
ATOM     16  C   UNL     1       4.898   7.082  16.338  0.00  0.00    +0.000 C 
ATOM     17  C   UNL     1       5.341   5.783  15.710  0.00  0.00    +0.000 A 
ATOM     18  C   UNL     1       5.040   5.603  14.344  0.00  0.00    +0.000 A 
ATOM     19  C   UNL     1       5.379   4.432  13.684  0.00  0.00    +0.000 A 
ATOM     20  C   UNL     1       6.044   3.431  14.374  0.00  0.00    +0.000 A 
ATOM     21  C   UNL     1       6.365   3.604  15.727  0.00  0.00    +0.000 A 
ATOM     22  C   UNL     1       6.027   4.775  16.451  0.00  0.00    +0.000 A 
ENDBRANCH   1  22
TORSDOF 2
ENDMDL
MODEL 7
REMARK VINA RESULT:      -6.5      7.742     10.148
REMARK  Name = 
REMARK  3 active torsions:
REMARK  status: ('A' for Active; 'I' for Inactive)
REMARK    1  A    between atoms: C_1  and  C_2
REMARK    2  A    between atoms: C_7  and  C_8
REMARK    3  A    between atoms: C_8  and  C_9
REMARK                            x       y       z     vdW  Elec       q    Type
REMARK                         _______ _______ _______ _____ _____    ______ ____
ROOT
ATOM      1  C   UNL     1      -0.456  11.315  19.262  0.00  0.00    +0.000 C 
ATOM      2  C   UNL     1      -0.891  10.346  18.107  0.00  0.00    +0.000 C 
ATOM      3  C   UNL     1      -1.793  11.469  17.564  0.00  0.00    +0.000 C 
ATOM      4  C   UNL     1      -1.800  12.073  18.973  0.00  0.00    +0.000 C 
ENDROOT
BRANCH   1   5
ATOM      5  C   UNL     1       0.820  12.169  19.016  0.00  0.00    +0.000 A 
ATOM      6  N   UNL     1       1.814  11.705  18.292  0.00  0.00    +0.000 NA
ATOM      7  N   UNL     1       2.637  12.744  17.970  0.00  0.00    +0.000 NA
ATOM      8  C   UNL     1       2.159  13.847  18.511  0.00  0.00    +0.000 A 
ATOM      9  N   UNL     1       1.063  13.502  19.279  0.00  0.00    +0.000 N 
ATOM     10  C   UNL     1       0.438  14.322  20.285  0.00  0.00    +0.000 C 
ATOM     11  C   UNL     1       1.292  14.428  21.551  0.00  0.00    +0.000 C 
ATOM     12  C   UNL     1       2.731  14.922  21.361  0.00  0.00    +0.000 C 
ATOM     13  C   UNL     1       2.881  16.268  20.658  0.00  0.00    +0.000 C 
ATOM     14  C   UNL     1       2.441  16.366  19.193  0.00  0.00    +0.000 C 
ATOM     15  C   UNL     1       2.783  15.191  18.285  0.00  0.00    +0.000 C 
ENDBRANCH   1   5
BRANCH   1  22
ATOM     16  C   UNL     1       1.280   8.787  20.020  0.00  0.00    +0.000 C 
ATOM     17  C   UNL     1       0.473   9.510  21.070  0.00  0.00    +0.000 A 
ATOM     18  C   UNL     1       0.508   8.978  22.376  0.00  0.00    +0.000 A 
ATOM     19  C   UNL     1      -0.223   9.553  23.405  0.00  0.00    +0.000 A 
ATOM     20  C   UNL     1      -0.985  10.681  23.149  0.00  0.00    +0.000 A 
ATOM     21  C   UNL     1      -1.015  11.231  21.860  0.00  0.00    +0.000 A 
ATOM     22  C   UNL     1      -0.299  10.672  20.772  0.00  0.00    +0.000 A 
ENDBRANCH   1  22
TORSDOF 2
ENDMDL
MODEL 8
REMARK VINA RESULT:      -6.5     10.152     12.073
REMARK  Name = 
REMARK  3 active torsions:
REMARK  status: ('A' for Active; 'I' for Inactive)
REMARK    1  A    between atoms: C_1  and  C_2
REMARK    2  A    between atoms: C_7  and  C_8
REMARK    3  A    between atoms: C_8  and  C_9
REMARK                            x       y       z     vdW  Elec       q    Type
REMARK                         _______ _______ _______ _____ _____    ______ ____
ROOT
ATOM      1  C   UNL     1      -1.984  13.159  22.043  0.00  0.00    +0.000 C 
ATOM      2  C   UNL     1      -1.168  13.600  23.309  0.00  0.00    +0.000 C 
ATOM      3  C   UNL     1      -1.556  15.057  22.998  0.00  0.00    +0.000 C 
ATOM      4  C   UNL     1      -1.775  14.633  21.542  0.00  0.00    +0.000 C 
ENDROOT
BRANCH   1   5
ATOM      5  C   UNL     1      -3.472  12.771  22.270  0.00  0.00    +0.000 A 
ATOM      6  N   UNL     1      -3.872  12.269  23.417  0.00  0.00    +0.000 NA
ATOM      7  N   UNL     1      -5.234  12.324  23.462  0.00  0.00    +0.000 NA
ATOM      8  C   UNL     1      -5.676  12.845  22.336  0.00  0.00    +0.000 A 
ATOM      9  N   UNL     1      -4.588  13.039  21.504  0.00  0.00    +0.000 N 
ATOM     10  C   UNL     1      -4.636  13.281  20.085  0.00  0.00    +0.000 C 
ATOM     11  C   UNL     1      -5.011  12.021  19.300  0.00  0.00    +0.000 C 
ATOM     12  C   UNL     1      -6.317  11.328  19.710  0.00  0.00    +0.000 C 
ATOM     13  C   UNL     1      -7.566  12.205  19.688  0.00  0.00    +0.000 C 
ATOM     14  C   UNL     1      -7.640  13.373  20.677  0.00  0.00    +0.000 C 
ATOM     15  C   UNL     1      -7.129  13.120  22.090  0.00  0.00    +0.000 C 
ENDBRANCH   1   5
BRANCH   1  22
ATOM     16  C   UNL     1      -0.833  10.402  23.069  0.00  0.00    +0.000 C 
ATOM     17  C   UNL     1      -0.798  10.754  21.602  0.00  0.00    +0.000 A 
ATOM     18  C   UNL     1      -0.199   9.813  20.738  0.00  0.00    +0.000 A 
ATOM     19  C   UNL     1      -0.092  10.055  19.377  0.00  0.00    +0.000 A 
ATOM     20  C   UNL     1      -0.601  11.234  18.855  0.00  0.00    +0.000 A 
ATOM     21  C   UNL     1      -1.215  12.169  19.699  0.00  0.00    +0.000 A 
ATOM     22  C   UNL     1      -1.336  11.975  21.098  0.00  0.00    +0.000 A 
ENDBRANCH   1  22
TORSDOF 2
ENDMDL
MODEL 9
REMARK VINA RESULT:      -6.4      2.552      5.473
REMARK  Name = 
REMARK  3 active torsions:
REMARK  status: ('A' for Active; 'I' for Inactive)
REMARK    1  A    between atoms: C_1  and  C_2
REMARK    2  A    between atoms: C_7  and  C_8
REMARK    3  A    between atoms: C_8  and  C_9
REMARK                            x       y       z     vdW  Elec       q    Type
REMARK                         _______ _______ _______ _____ _____    ______ ____
ROOT
ATOM      1  C   UNL     1       2.219   5.359  19.719  0.00  0.00    +0.000 C 
ATOM      2  C   UNL     1       2.671   5.056  21.191  0.00  0.00    +0.000 C 
ATOM      3  C   UNL     1       1.701   3.860  21.197  0.00  0.00    +0.000 C 
ATOM      4  C   UNL     1       0.917   4.558  20.080  0.00  0.00    +0.000 C 
ENDROOT
BRANCH   1   5
ATOM      5  C   UNL     1       3.063   4.718  18.581  0.00  0.00    +0.000 A 
ATOM      6  N   UNL     1       2.620   3.673  17.918  0.00  0.00    +0.000 NA
ATOM      7  N   UNL     1       3.379   3.521  16.795  0.00  0.00    +0.000 NA
ATOM      8  C   UNL     1       4.301   4.461  16.774  0.00  0.00    +0.000 A 
ATOM      9  N   UNL     1       4.203   5.177  17.953  0.00  0.00    +0.000 N 
ATOM     10  C   UNL     1       5.197   6.070  18.490  0.00  0.00    +0.000 C 
ATOM     11  C   UNL     1       6.406   5.315  19.048  0.00  0.00    +0.000 C 
ATOM     12  C   UNL     1       7.106   4.347  18.087  0.00  0.00    +0.000 C 
ATOM     13  C   UNL     1       7.580   4.951  16.768  0.00  0.00    +0.000 C 
ATOM     14  C   UNL     1       6.518   5.468  15.793  0.00  0.00    +0.000 C 
ATOM     15  C   UNL     1       5.256   4.629  15.631  0.00  0.00    +0.000 C 
ENDBRANCH   1   5
BRANCH   1  22
ATOM     16  C   UNL     1       1.060   7.621  21.594  0.00  0.00    +0.000 C 
ATOM     17  C   UNL     1       1.450   7.927  20.168  0.00  0.00    +0.000 A 
ATOM     18  C   UNL     1       1.234   9.247  19.721  0.00  0.00    +0.000 A 
ATOM     19  C   UNL     1       1.533   9.620  18.420  0.00  0.00    +0.000 A 
ATOM     20  C   UNL     1       2.071   8.685  17.550  0.00  0.00    +0.000 A 
ATOM     21  C   UNL     1       2.306   7.374  17.987  0.00  0.00    +0.000 A 
ATOM     22  C   UNL     1       2.004   6.939  19.302  0.00  0.00    +0.000 A 
ENDBRANCH   1  22
TORSDOF 2
ENDMDL
