MODEL 1
REMARK VINA RESULT:      -8.2      0.000      0.000
REMARK  Name = 
REMARK  6 active torsions:
REMARK  status: ('A' for Active; 'I' for Inactive)
REMARK    1  A    between atoms: C_1  and  O_2
REMARK    2  A    between atoms: O_2  and  C_3
REMARK    3  A    between atoms: C_4  and  C_5
REMARK    4  A    between atoms: N_6  and  C_7
REMARK    5  A    between atoms: C_10  and  C_11
REMARK    6  A    between atoms: N_16  and  C_17
REMARK                            x       y       z     vdW  Elec       q    Type
REMARK                         _______ _______ _______ _____ _____    ______ ____
ROOT
ATOM      1  C   UNL     1       2.651   7.324  18.479  0.00  0.00    +0.000 A 
ATOM      2  C   UNL     1       2.314   7.232  19.848  0.00  0.00    +0.000 A 
ATOM      3  C   UNL     1       1.580   8.235  20.489  0.00  0.00    +0.000 A 
ATOM      4  C   UNL     1       1.153   9.350  19.770  0.00  0.00    +0.000 A 
ATOM      5  C   UNL     1       1.606   9.528  18.462  0.00  0.00    +0.000 A 
ATOM      6  C   UNL     1       2.335   8.521  17.825  0.00  0.00    +0.000 A 
ENDROOT
BRANCH   1  10
ATOM      7  C   UNL     1       3.561   3.880  17.221  0.00  0.00    +0.000 A 
ATOM      8  C   UNL     1       2.866   4.889  17.818  0.00  0.00    +0.000 A 
ATOM      9  C   UNL     1       1.602   4.507  18.570  0.00  0.00    +0.000 C 
ATOM     10  N   UNL     1       3.326   6.242  17.813  0.00  0.00    +0.000 N 
ATOM     11  C   UNL     1       4.527   6.516  17.172  0.00  0.00    +0.000 A 
ATOM     12  C   UNL     1       5.309   5.619  16.568  0.00  0.00    +0.000 A 
ATOM     13  C   UNL     1       4.865   4.217  16.547  0.00  0.00    +0.000 A 
ATOM     14  O   UNL     1       5.577   3.392  15.981  0.00  0.00    +0.000 OA
BRANCH   7  16
ATOM     15  C   UNL     1       3.561   1.686  18.186  0.00  0.00    +0.000 C 
ATOM     16  O   UNL     1       3.042   2.589  17.216  0.00  0.00    +0.000 OA
ENDBRANCH   7  16
ENDBRANCH   1  10
BRANCH   4  17
ATOM     17  C   UNL     1       0.286  10.347  20.444  0.00  0.00    +0.000 C 
ATOM     18  O   UNL     1       0.705  10.851  21.481  0.00  0.00    +0.000 OA
ATOM     19  N   UNL     1      -0.947  10.683  19.891  0.00  0.00    +0.000 N 
ATOM     20  C   UNL     1      -1.671  11.826  20.445  0.00  0.00    +0.000 C 
ATOM     21  C   UNL     1      -2.215  12.729  19.317  0.00  0.00    +0.000 C 
ATOM     22  N   UNL     1      -2.997  12.021  18.268  0.00  0.00    +0.000 NA
ATOM     23  C   UNL     1      -2.184  10.886  17.768  0.00  0.00    +0.000 C 
ATOM     24  C   UNL     1      -1.710   9.930  18.884  0.00  0.00    +0.000 C 
BRANCH  22  25
ATOM     25  C   UNL     1      -4.329  11.611  18.740  0.00  0.00    +0.000 C 
ATOM     26  C   UNL     1      -5.091  12.752  19.424  0.00  0.00    +0.000 C 
ATOM     27  C   UNL     1      -6.530  12.265  19.424  0.00  0.00    +0.000 C 
ATOM     28  C   UNL     1      -6.699  11.554  18.090  0.00  0.00    +0.000 C 
ATOM     29  C   UNL     1      -5.294  11.190  17.616  0.00  0.00    +0.000 C 
ENDBRANCH  22  25
ENDBRANCH   4  17
TORSDOF 4
ENDMDL
MODEL 2
REMARK VINA RESULT:      -8.0      3.307      4.557
REMARK  Name = 
REMARK  6 active torsions:
REMARK  status: ('A' for Active; 'I' for Inactive)
REMARK    1  A    between atoms: C_1  and  O_2
REMARK    2  A    between atoms: O_2  and  C_3
REMARK    3  A    between atoms: C_4  and  C_5
REMARK    4  A    between atoms: N_6  and  C_7
REMARK    5  A    between atoms: C_10  and  C_11
REMARK    6  A    between atoms: N_16  and  C_17
REMARK                            x       y       z     vdW  Elec       q    Type
REMARK                         _______ _______ _______ _____ _____    ______ ____
ROOT
ATOM      1  C   UNL     1       2.303   7.265  19.363  0.00  0.00    +0.000 A 
ATOM      2  C   UNL     1       1.762   7.847  20.530  0.00  0.00    +0.000 A 
ATOM      3  C   UNL     1       1.011   9.025  20.479  0.00  0.00    +0.000 A 
ATOM      4  C   UNL     1       0.772   9.644  19.253  0.00  0.00    +0.000 A 
ATOM      5  C   UNL     1       1.425   9.168  18.115  0.00  0.00    +0.000 A 
ATOM      6  C   UNL     1       2.169   7.988  18.171  0.00  0.00    +0.000 A 
ENDROOT
BRANCH   1  10
ATOM      7  C   UNL     1       3.080   3.608  19.903  0.00  0.00    +0.000 A 
ATOM      8  C   UNL     1       2.380   4.774  19.807  0.00  0.00    +0.000 A 
ATOM      9  C   UNL     1       0.915   4.735  20.209  0.00  0.00    +0.000 C 
ATOM     10  N   UNL     1       2.994   6.004  19.421  0.00  0.00    +0.000 N 
ATOM     11  C   UNL     1       4.354   5.991  19.138  0.00  0.00    +0.000 A 
ATOM     12  C   UNL     1       5.152   4.924  19.211  0.00  0.00    +0.000 A 
ATOM     13  C   UNL     1       4.555   3.638  19.600  0.00  0.00    +0.000 A 
ATOM     14  O   UNL     1       5.285   2.652  19.656  0.00  0.00    +0.000 OA
BRANCH   7  16
ATOM     15  C   UNL     1       1.906   1.655  19.163  0.00  0.00    +0.000 C 
ATOM     16  O   UNL     1       2.421   2.429  20.239  0.00  0.00    +0.000 OA
ENDBRANCH   7  16
ENDBRANCH   1  10
BRANCH   4  17
ATOM     17  C   UNL     1      -0.116  10.832  19.211  0.00  0.00    +0.000 C 
ATOM     18  O   UNL     1      -1.322  10.641  19.328  0.00  0.00    +0.000 OA
ATOM     19  N   UNL     1       0.431  12.102  19.051  0.00  0.00    +0.000 N 
ATOM     20  C   UNL     1      -0.437  13.263  19.243  0.00  0.00    +0.000 C 
ATOM     21  C   UNL     1       0.261  14.330  20.114  0.00  0.00    +0.000 C 
ATOM     22  N   UNL     1       1.625  14.715  19.662  0.00  0.00    +0.000 NA
ATOM     23  C   UNL     1       2.427  13.478  19.499  0.00  0.00    +0.000 C 
ATOM     24  C   UNL     1       1.774  12.442  18.558  0.00  0.00    +0.000 C 
BRANCH  22  25
ATOM     25  C   UNL     1       1.603  15.551  18.452  0.00  0.00    +0.000 C 
ATOM     26  C   UNL     1       1.096  16.971  18.724  0.00  0.00    +0.000 C 
ATOM     27  C   UNL     1       1.560  17.751  17.505  0.00  0.00    +0.000 C 
ATOM     28  C   UNL     1       2.932  17.180  17.179  0.00  0.00    +0.000 C 
ATOM     29  C   UNL     1       2.991  15.803  17.834  0.00  0.00    +0.000 C 
ENDBRANCH  22  25
ENDBRANCH   4  17
TORSDOF 4
ENDMDL
MODEL 3
REMARK VINA RESULT:      -7.9      3.198      4.679
REMARK  Name = 
REMARK  6 active torsions:
REMARK  status: ('A' for Active; 'I' for Inactive)
REMARK    1  A    between atoms: C_1  and  O_2
REMARK    2  A    between atoms: O_2  and  C_3
REMARK    3  A    between atoms: C_4  and  C_5
REMARK    4  A    between atoms: N_6  and  C_7
REMARK    5  A    between atoms: C_10  and  C_11
REMARK    6  A    between atoms: N_16  and  C_17
REMARK                            x       y       z     vdW  Elec       q    Type
REMARK                         _______ _______ _______ _____ _____    ______ ____
ROOT
ATOM      1  C   UNL     1       2.378   7.354  19.146  0.00  0.00    +0.000 A 
ATOM      2  C   UNL     1       1.851   7.933  20.321  0.00  0.00    +0.000 A 
ATOM      3  C   UNL     1       1.054   9.081  20.275  0.00  0.00    +0.000 A 
ATOM      4  C   UNL     1       0.753   9.670  19.047  0.00  0.00    +0.000 A 
ATOM      5  C   UNL     1       1.389   9.201  17.897  0.00  0.00    +0.000 A 
ATOM      6  C   UNL     1       2.180   8.051  17.948  0.00  0.00    +0.000 A 
ENDROOT
BRANCH   1  10
ATOM      7  C   UNL     1       4.870   4.616  18.395  0.00  0.00    +0.000 A 
ATOM      8  C   UNL     1       4.226   5.817  18.351  0.00  0.00    +0.000 A 
ATOM      9  C   UNL     1       4.683   6.807  17.292  0.00  0.00    +0.000 C 
ATOM     10  N   UNL     1       3.120   6.122  19.201  0.00  0.00    +0.000 N 
ATOM     11  C   UNL     1       2.701   5.146  20.097  0.00  0.00    +0.000 A 
ATOM     12  C   UNL     1       3.234   3.930  20.226  0.00  0.00    +0.000 A 
ATOM     13  C   UNL     1       4.379   3.581  19.372  0.00  0.00    +0.000 A 
ATOM     14  O   UNL     1       4.879   2.466  19.497  0.00  0.00    +0.000 OA
BRANCH   7  16
ATOM     15  C   UNL     1       7.249   4.705  18.117  0.00  0.00    +0.000 C 
ATOM     16  O   UNL     1       5.972   4.390  17.575  0.00  0.00    +0.000 OA
ENDBRANCH   7  16
ENDBRANCH   1  10
BRANCH   4  17
ATOM     17  C   UNL     1      -0.180  10.822  19.015  0.00  0.00    +0.000 C 
ATOM     18  O   UNL     1      -1.381  10.579  19.081  0.00  0.00    +0.000 OA
ATOM     19  N   UNL     1       0.319  12.118  18.921  0.00  0.00    +0.000 N 
ATOM     20  C   UNL     1      -0.602  13.236  19.122  0.00  0.00    +0.000 C 
ATOM     21  C   UNL     1       0.019  14.296  20.055  0.00  0.00    +0.000 C 
ATOM     22  N   UNL     1       1.382  14.752  19.669  0.00  0.00    +0.000 NA
ATOM     23  C   UNL     1       2.239  13.555  19.491  0.00  0.00    +0.000 C 
ATOM     24  C   UNL     1       1.663  12.530  18.490  0.00  0.00    +0.000 C 
BRANCH  22  25
ATOM     25  C   UNL     1       1.367  15.631  18.489  0.00  0.00    +0.000 C 
ATOM     26  C   UNL     1       0.827  17.031  18.801  0.00  0.00    +0.000 C 
ATOM     27  C   UNL     1       1.301  17.863  17.621  0.00  0.00    +0.000 C 
ATOM     28  C   UNL     1       2.690  17.330  17.304  0.00  0.00    +0.000 C 
ATOM     29  C   UNL     1       2.763  15.931  17.910  0.00  0.00    +0.000 C 
ENDBRANCH  22  25
ENDBRANCH   4  17
TORSDOF 4
ENDMDL
MODEL 4
REMARK VINA RESULT:      -7.8      0.645      1.173
REMARK  Name = 
REMARK  6 active torsions:
REMARK  status: ('A' for Active; 'I' for Inactive)
REMARK    1  A    between atoms: C_1  and  O_2
REMARK    2  A    between atoms: O_2  and  C_3
REMARK    3  A    between atoms: C_4  and  C_5
REMARK    4  A    between atoms: N_6  and  C_7
REMARK    5  A    between atoms: C_10  and  C_11
REMARK    6  A    between atoms: N_16  and  C_17
REMARK                            x       y       z     vdW  Elec       q    Type
REMARK                         _______ _______ _______ _____ _____    ______ ____
ROOT
ATOM      1  C   UNL     1       2.518   7.213  18.573  0.00  0.00    +0.000 A 
ATOM      2  C   UNL     1       2.084   8.375  17.898  0.00  0.00    +0.000 A 
ATOM      3  C   UNL     1       1.447   9.419  18.575  0.00  0.00    +0.000 A 
ATOM      4  C   UNL     1       1.241   9.330  19.951  0.00  0.00    +0.000 A 
ATOM      5  C   UNL     1       1.525   8.130  20.603  0.00  0.00    +0.000 A 
ATOM      6  C   UNL     1       2.166   7.092  19.923  0.00  0.00    +0.000 A 
ENDROOT
BRANCH   1  10
ATOM      7  C   UNL     1       3.608   3.865  17.204  0.00  0.00    +0.000 A 
ATOM      8  C   UNL     1       2.857   4.818  17.826  0.00  0.00    +0.000 A 
ATOM      9  C   UNL     1       1.602   4.349  18.542  0.00  0.00    +0.000 C 
ATOM     10  N   UNL     1       3.254   6.190  17.879  0.00  0.00    +0.000 N 
ATOM     11  C   UNL     1       4.451   6.543  17.269  0.00  0.00    +0.000 A 
ATOM     12  C   UNL     1       5.282   5.706  16.645  0.00  0.00    +0.000 A 
ATOM     13  C   UNL     1       4.905   4.287  16.566  0.00  0.00    +0.000 A 
ATOM     14  O   UNL     1       5.663   3.518  15.981  0.00  0.00    +0.000 OA
BRANCH   7  16
ATOM     15  C   UNL     1       3.575   1.677  18.180  0.00  0.00    +0.000 C 
ATOM     16  O   UNL     1       3.151   2.553  17.143  0.00  0.00    +0.000 OA
ENDBRANCH   7  16
ENDBRANCH   1  10
BRANCH   4  17
ATOM     17  C   UNL     1       0.660  10.494  20.665  0.00  0.00    +0.000 C 
ATOM     18  O   UNL     1       1.337  11.011  21.548  0.00  0.00    +0.000 OA
ATOM     19  N   UNL     1      -0.605  10.961  20.318  0.00  0.00    +0.000 N 
ATOM     20  C   UNL     1      -1.052  12.238  20.873  0.00  0.00    +0.000 C 
ATOM     21  C   UNL     1      -1.688  13.119  19.776  0.00  0.00    +0.000 C 
ATOM     22  N   UNL     1      -2.748  12.452  18.971  0.00  0.00    +0.000 NA
ATOM     23  C   UNL     1      -2.202  11.175  18.452  0.00  0.00    +0.000 C 
ATOM     24  C   UNL     1      -1.643  10.251  19.556  0.00  0.00    +0.000 C 
BRANCH  22  25
ATOM     25  C   UNL     1      -4.001  12.280  19.723  0.00  0.00    +0.000 C 
ATOM     26  C   UNL     1      -4.440  13.561  20.441  0.00  0.00    +0.000 C 
ATOM     27  C   UNL     1      -5.904  13.303  20.758  0.00  0.00    +0.000 C 
ATOM     28  C   UNL     1      -6.437  12.555  19.546  0.00  0.00    +0.000 C 
ATOM     29  C   UNL     1      -5.223  11.953  18.844  0.00  0.00    +0.000 C 
ENDBRANCH  22  25
ENDBRANCH   4  17
TORSDOF 4
ENDMDL
MODEL 5
REMARK VINA RESULT:      -7.7      3.121      4.683
REMARK  Name = 
REMARK  6 active torsions:
REMARK  status: ('A' for Active; 'I' for Inactive)
REMARK    1  A    between atoms: C_1  and  O_2
REMARK    2  A    between atoms: O_2  and  C_3
REMARK    3  A    between atoms: C_4  and  C_5
REMARK    4  A    between atoms: N_6  and  C_7
REMARK    5  A    between atoms: C_10  and  C_11
REMARK    6  A    between atoms: N_16  and  C_17
REMARK                            x       y       z     vdW  Elec       q    Type
REMARK                         _______ _______ _______ _____ _____    ______ ____
ROOT
ATOM      1  C   UNL     1       2.242   7.155  18.771  0.00  0.00    +0.000 A 
ATOM      2  C   UNL     1       1.975   7.548  20.100  0.00  0.00    +0.000 A 
ATOM      3  C   UNL     1       1.361   8.770  20.392  0.00  0.00    +0.000 A 
ATOM      4  C   UNL     1       0.986   9.623  19.355  0.00  0.00    +0.000 A 
ATOM      5  C   UNL     1       1.379   9.320  18.051  0.00  0.00    +0.000 A 
ATOM      6  C   UNL     1       1.988   8.095  17.765  0.00  0.00    +0.000 A 
ENDROOT
BRANCH   1  10
ATOM      7  C   UNL     1       4.520   4.399  17.552  0.00  0.00    +0.000 A 
ATOM      8  C   UNL     1       4.057   5.644  17.858  0.00  0.00    +0.000 A 
ATOM      9  C   UNL     1       4.915   6.824  17.433  0.00  0.00    +0.000 C 
ATOM     10  N   UNL     1       2.790   5.855  18.483  0.00  0.00    +0.000 N 
ATOM     11  C   UNL     1       2.019   4.740  18.780  0.00  0.00    +0.000 A 
ATOM     12  C   UNL     1       2.349   3.474  18.517  0.00  0.00    +0.000 A 
ATOM     13  C   UNL     1       3.649   3.216  17.879  0.00  0.00    +0.000 A 
ATOM     14  O   UNL     1       3.960   2.051  17.647  0.00  0.00    +0.000 OA
BRANCH   7  16
ATOM     15  C   UNL     1       5.830   3.923  15.602  0.00  0.00    +0.000 C 
ATOM     16  O   UNL     1       5.783   4.249  16.986  0.00  0.00    +0.000 OA
ENDBRANCH   7  16
ENDBRANCH   1  10
BRANCH   4  17
ATOM     17  C   UNL     1       0.241  10.864  19.682  0.00  0.00    +0.000 C 
ATOM     18  O   UNL     1      -0.846  10.740  20.239  0.00  0.00    +0.000 OA
ATOM     19  N   UNL     1       0.784  12.105  19.363  0.00  0.00    +0.000 N 
ATOM     20  C   UNL     1       0.142  13.305  19.899  0.00  0.00    +0.000 C 
ATOM     21  C   UNL     1       1.194  14.279  20.473  0.00  0.00    +0.000 C 
ATOM     22  N   UNL     1       2.316  14.604  19.552  0.00  0.00    +0.000 NA
ATOM     23  C   UNL     1       2.902  13.331  19.066  0.00  0.00    +0.000 C 
ATOM     24  C   UNL     1       1.868  12.390  18.411  0.00  0.00    +0.000 C 
BRANCH  22  25
ATOM     25  C   UNL     1       1.908  15.504  18.463  0.00  0.00    +0.000 C 
ATOM     26  C   UNL     1       1.359  16.841  18.974  0.00  0.00    +0.000 C 
ATOM     27  C   UNL     1       1.423  17.739  17.750  0.00  0.00    +0.000 C 
ATOM     28  C   UNL     1       2.711  17.345  17.046  0.00  0.00    +0.000 C 
ATOM     29  C   UNL     1       3.063  15.945  17.543  0.00  0.00    +0.000 C 
ENDBRANCH  22  25
ENDBRANCH   4  17
TORSDOF 4
ENDMDL
MODEL 6
REMARK VINA RESULT:      -7.6      3.011      4.152
REMARK  Name = 
REMARK  6 active torsions:
REMARK  status: ('A' for Active; 'I' for Inactive)
REMARK    1  A    between atoms: C_1  and  O_2
REMARK    2  A    between atoms: O_2  and  C_3
REMARK    3  A    between atoms: C_4  and  C_5
REMARK    4  A    between atoms: N_6  and  C_7
REMARK    5  A    between atoms: C_10  and  C_11
REMARK    6  A    between atoms: N_16  and  C_17
REMARK                            x       y       z     vdW  Elec       q    Type
REMARK                         _______ _______ _______ _____ _____    ______ ____
ROOT
ATOM      1  C   UNL     1       2.388   7.367  18.590  0.00  0.00    +0.000 A 
ATOM      2  C   UNL     1       1.801   8.413  17.844  0.00  0.00    +0.000 A 
ATOM      3  C   UNL     1       1.109   9.456  18.469  0.00  0.00    +0.000 A 
ATOM      4  C   UNL     1       1.001   9.484  19.858  0.00  0.00    +0.000 A 
ATOM      5  C   UNL     1       1.441   8.383  20.595  0.00  0.00    +0.000 A 
ATOM      6  C   UNL     1       2.135   7.347  19.967  0.00  0.00    +0.000 A 
ENDROOT
BRANCH   1  10
ATOM      7  C   UNL     1       3.598   4.030  17.298  0.00  0.00    +0.000 A 
ATOM      8  C   UNL     1       2.802   4.974  17.874  0.00  0.00    +0.000 A 
ATOM      9  C   UNL     1       1.518   4.489  18.527  0.00  0.00    +0.000 C 
ATOM     10  N   UNL     1       3.174   6.352  17.940  0.00  0.00    +0.000 N 
ATOM     11  C   UNL     1       4.395   6.721  17.392  0.00  0.00    +0.000 A 
ATOM     12  C   UNL     1       5.271   5.894  16.817  0.00  0.00    +0.000 A 
ATOM     13  C   UNL     1       4.920   4.469  16.725  0.00  0.00    +0.000 A 
ATOM     14  O   UNL     1       5.719   3.708  16.185  0.00  0.00    +0.000 OA
BRANCH   7  16
ATOM     15  C   UNL     1       3.689   1.805  18.185  0.00  0.00    +0.000 C 
ATOM     16  O   UNL     1       3.165   2.710  17.221  0.00  0.00    +0.000 OA
ENDBRANCH   7  16
ENDBRANCH   1  10
BRANCH   4  17
ATOM     17  C   UNL     1       0.356  10.654  20.503  0.00  0.00    +0.000 C 
ATOM     18  O   UNL     1      -0.495  10.431  21.359  0.00  0.00    +0.000 OA
ATOM     19  N   UNL     1       0.729  11.943  20.134  0.00  0.00    +0.000 N 
ATOM     20  C   UNL     1       0.249  13.065  20.941  0.00  0.00    +0.000 C 
ATOM     21  C   UNL     1       1.395  14.056  21.236  0.00  0.00    +0.000 C 
ATOM     22  N   UNL     1       2.159  14.507  20.041  0.00  0.00    +0.000 NA
ATOM     23  C   UNL     1       2.603  13.307  19.293  0.00  0.00    +0.000 C 
ATOM     24  C   UNL     1       1.447  12.354  18.918  0.00  0.00    +0.000 C 
BRANCH  22  25
ATOM     25  C   UNL     1       1.398  15.455  19.212  0.00  0.00    +0.000 C 
ATOM     26  C   UNL     1       0.785  16.597  20.030  0.00  0.00    +0.000 C 
ATOM     27  C   UNL     1       0.451  17.643  18.979  0.00  0.00    +0.000 C 
ATOM     28  C   UNL     1       1.600  17.575  17.985  0.00  0.00    +0.000 C 
ATOM     29  C   UNL     1       2.250  16.206  18.171  0.00  0.00    +0.000 C 
ENDBRANCH  22  25
ENDBRANCH   4  17
TORSDOF 4
ENDMDL
MODEL 7
REMARK VINA RESULT:      -7.6      3.013      4.075
REMARK  Name = 
REMARK  6 active torsions:
REMARK  status: ('A' for Active; 'I' for Inactive)
REMARK    1  A    between atoms: C_1  and  O_2
REMARK    2  A    between atoms: O_2  and  C_3
REMARK    3  A    between atoms: C_4  and  C_5
REMARK    4  A    between atoms: N_6  and  C_7
REMARK    5  A    between atoms: C_10  and  C_11
REMARK    6  A    between atoms: N_16  and  C_17
REMARK                            x       y       z     vdW  Elec       q    Type
REMARK                         _______ _______ _______ _____ _____    ______ ____
ROOT
ATOM      1  C   UNL     1       2.233   7.751  18.990  0.00  0.00    +0.000 A 
ATOM      2  C   UNL     1       1.751   8.260  20.216  0.00  0.00    +0.000 A 
ATOM      3  C   UNL     1       0.857   9.334  20.260  0.00  0.00    +0.000 A 
ATOM      4  C   UNL     1       0.412   9.916  19.074  0.00  0.00    +0.000 A 
ATOM      5  C   UNL     1       0.994   9.526  17.868  0.00  0.00    +0.000 A 
ATOM      6  C   UNL     1       1.883   8.450  17.829  0.00  0.00    +0.000 A 
ENDROOT
BRANCH   1  10
ATOM      7  C   UNL     1       3.638   4.303  19.629  0.00  0.00    +0.000 A 
ATOM      8  C   UNL     1       2.785   5.366  19.637  0.00  0.00    +0.000 A 
ATOM      9  C   UNL     1       1.524   5.233  20.474  0.00  0.00    +0.000 C 
ATOM     10  N   UNL     1       3.080   6.588  18.958  0.00  0.00    +0.000 N 
ATOM     11  C   UNL     1       4.284   6.674  18.272  0.00  0.00    +0.000 A 
ATOM     12  C   UNL     1       5.210   5.715  18.201  0.00  0.00    +0.000 A 
ATOM     13  C   UNL     1       4.939   4.441  18.883  0.00  0.00    +0.000 A 
ATOM     14  O   UNL     1       5.784   3.552  18.809  0.00  0.00    +0.000 OA
BRANCH   7  16
ATOM     15  C   UNL     1       2.743   2.087  19.452  0.00  0.00    +0.000 C 
ATOM     16  O   UNL     1       3.279   3.121  20.269  0.00  0.00    +0.000 OA
ENDBRANCH   7  16
ENDBRANCH   1  10
BRANCH   4  17
ATOM     17  C   UNL     1      -0.618  10.982  19.142  0.00  0.00    +0.000 C 
ATOM     18  O   UNL     1      -1.784  10.633  19.293  0.00  0.00    +0.000 OA
ATOM     19  N   UNL     1      -0.241  12.319  19.043  0.00  0.00    +0.000 N 
ATOM     20  C   UNL     1      -1.237  13.347  19.342  0.00  0.00    +0.000 C 
ATOM     21  C   UNL     1      -0.638  14.441  20.252  0.00  0.00    +0.000 C 
ATOM     22  N   UNL     1       0.646  15.022  19.775  0.00  0.00    +0.000 NA
ATOM     23  C   UNL     1       1.587  13.908  19.502  0.00  0.00    +0.000 C 
ATOM     24  C   UNL     1       1.025  12.855  18.522  0.00  0.00    +0.000 C 
BRANCH  22  25
ATOM     25  C   UNL     1       0.463  15.918  18.622  0.00  0.00    +0.000 C 
ATOM     26  C   UNL     1      -0.700  16.897  18.813  0.00  0.00    +0.000 C 
ATOM     27  C   UNL     1      -0.435  17.967  17.766  0.00  0.00    +0.000 C 
ATOM     28  C   UNL     1       1.077  18.135  17.757  0.00  0.00    +0.000 C 
ATOM     29  C   UNL     1       1.655  16.858  18.361  0.00  0.00    +0.000 C 
ENDBRANCH  22  25
ENDBRANCH   4  17
TORSDOF 4
ENDMDL
MODEL 8
REMARK VINA RESULT:      -7.6      3.247      4.525
REMARK  Name = 
REMARK  6 active torsions:
REMARK  status: ('A' for Active; 'I' for Inactive)
REMARK    1  A    between atoms: C_1  and  O_2
REMARK    2  A    between atoms: O_2  and  C_3
REMARK    3  A    between atoms: C_4  and  C_5
REMARK    4  A    between atoms: N_6  and  C_7
REMARK    5  A    between atoms: C_10  and  C_11
REMARK    6  A    between atoms: N_16  and  C_17
REMARK                            x       y       z     vdW  Elec       q    Type
REMARK                         _______ _______ _______ _____ _____    ______ ____
ROOT
ATOM      1  C   UNL     1       2.284   7.650  18.961  0.00  0.00    +0.000 A 
ATOM      2  C   UNL     1       1.762   8.317  17.831  0.00  0.00    +0.000 A 
ATOM      3  C   UNL     1       0.901   9.411  17.962  0.00  0.00    +0.000 A 
ATOM      4  C   UNL     1       0.552   9.873  19.230  0.00  0.00    +0.000 A 
ATOM      5  C   UNL     1       0.935   9.133  20.350  0.00  0.00    +0.000 A 
ATOM      6  C   UNL     1       1.799   8.044  20.214  0.00  0.00    +0.000 A 
ENDROOT
BRANCH   1  10
ATOM      7  C   UNL     1       4.083   4.349  19.331  0.00  0.00    +0.000 A 
ATOM      8  C   UNL     1       3.129   5.315  19.454  0.00  0.00    +0.000 A 
ATOM      9  C   UNL     1       1.961   5.018  20.379  0.00  0.00    +0.000 C 
ATOM     10  N   UNL     1       3.241   6.586  18.810  0.00  0.00    +0.000 N 
ATOM     11  C   UNL     1       4.369   6.825  18.037  0.00  0.00    +0.000 A 
ATOM     12  C   UNL     1       5.380   5.972  17.852  0.00  0.00    +0.000 A 
ATOM     13  C   UNL     1       5.297   4.652  18.494  0.00  0.00    +0.000 A 
ATOM     14  O   UNL     1       6.220   3.862  18.315  0.00  0.00    +0.000 OA
BRANCH   7  16
ATOM     15  C   UNL     1       3.494   2.037  19.105  0.00  0.00    +0.000 C 
ATOM     16  O   UNL     1       3.901   3.113  19.942  0.00  0.00    +0.000 OA
ENDBRANCH   7  16
ENDBRANCH   1  10
BRANCH   4  17
ATOM     17  C   UNL     1      -0.276  11.098  19.343  0.00  0.00    +0.000 C 
ATOM     18  O   UNL     1      -1.460  10.956  19.633  0.00  0.00    +0.000 OA
ATOM     19  N   UNL     1       0.300  12.348  19.131  0.00  0.00    +0.000 N 
ATOM     20  C   UNL     1      -0.476  13.539  19.472  0.00  0.00    +0.000 C 
ATOM     21  C   UNL     1       0.390  14.551  20.252  0.00  0.00    +0.000 C 
ATOM     22  N   UNL     1       1.690  14.890  19.613  0.00  0.00    +0.000 NA
ATOM     23  C   UNL     1       2.401  13.624  19.309  0.00  0.00    +0.000 C 
ATOM     24  C   UNL     1       1.571  12.644  18.453  0.00  0.00    +0.000 C 
BRANCH  22  25
ATOM     25  C   UNL     1       1.530  15.758  18.437  0.00  0.00    +0.000 C 
ATOM     26  C   UNL     1       1.005  17.152  18.798  0.00  0.00    +0.000 C 
ATOM     27  C   UNL     1       1.331  17.982  17.567  0.00  0.00    +0.000 C 
ATOM     28  C   UNL     1       2.684  17.468  17.100  0.00  0.00    +0.000 C 
ATOM     29  C   UNL     1       2.847  16.075  17.703  0.00  0.00    +0.000 C 
ENDBRANCH  22  25
ENDBRANCH   4  17
TORSDOF 4
ENDMDL
MODEL 9
REMARK VINA RESULT:      -7.6      2.791      3.902
REMARK  Name = 
REMARK  6 active torsions:
REMARK  status: ('A' for Active; 'I' for Inactive)
REMARK    1  A    between atoms: C_1  and  O_2
REMARK    2  A    between atoms: O_2  and  C_3
REMARK    3  A    between atoms: C_4  and  C_5
REMARK    4  A    between atoms: N_6  and  C_7
REMARK    5  A    between atoms: C_10  and  C_11
REMARK    6  A    between atoms: N_16  and  C_17
REMARK                            x       y       z     vdW  Elec       q    Type
REMARK                         _______ _______ _______ _____ _____    ______ ____
ROOT
ATOM      1  C   UNL     1       2.599   7.326  18.375  0.00  0.00    +0.000 A 
ATOM      2  C   UNL     1       2.323   7.341  19.760  0.00  0.00    +0.000 A 
ATOM      3  C   UNL     1       1.574   8.367  20.345  0.00  0.00    +0.000 A 
ATOM      4  C   UNL     1       1.071   9.398  19.553  0.00  0.00    +0.000 A 
ATOM      5  C   UNL     1       1.462   9.479  18.216  0.00  0.00    +0.000 A 
ATOM      6  C   UNL     1       2.206   8.449  17.636  0.00  0.00    +0.000 A 
ENDROOT
BRANCH   1  10
ATOM      7  C   UNL     1       3.537   3.834  17.285  0.00  0.00    +0.000 A 
ATOM      8  C   UNL     1       2.826   4.867  17.818  0.00  0.00    +0.000 A 
ATOM      9  C   UNL     1       1.538   4.518  18.544  0.00  0.00    +0.000 C 
ATOM     10  N   UNL     1       3.291   6.217  17.774  0.00  0.00    +0.000 N 
ATOM     11  C   UNL     1       4.513   6.463  17.162  0.00  0.00    +0.000 A 
ATOM     12  C   UNL     1       5.310   5.541  16.619  0.00  0.00    +0.000 A 
ATOM     13  C   UNL     1       4.862   4.140  16.640  0.00  0.00    +0.000 A 
ATOM     14  O   UNL     1       5.589   3.291  16.130  0.00  0.00    +0.000 OA
BRANCH   7  16
ATOM     15  C   UNL     1       3.531   1.665  18.306  0.00  0.00    +0.000 C 
ATOM     16  O   UNL     1       3.014   2.544  17.314  0.00  0.00    +0.000 OA
ENDBRANCH   7  16
ENDBRANCH   1  10
BRANCH   4  17
ATOM     17  C   UNL     1       0.191  10.417  20.177  0.00  0.00    +0.000 C 
ATOM     18  O   UNL     1      -0.782  10.014  20.807  0.00  0.00    +0.000 OA
ATOM     19  N   UNL     1       0.490  11.770  20.041  0.00  0.00    +0.000 N 
ATOM     20  C   UNL     1      -0.256  12.732  20.851  0.00  0.00    +0.000 C 
ATOM     21  C   UNL     1       0.697  13.767  21.487  0.00  0.00    +0.000 C 
ATOM     22  N   UNL     1       1.627  14.432  20.535  0.00  0.00    +0.000 NA
ATOM     23  C   UNL     1       2.336  13.381  19.766  0.00  0.00    +0.000 C 
ATOM     24  C   UNL     1       1.384  12.394  19.055  0.00  0.00    +0.000 C 
BRANCH  22  25
ATOM     25  C   UNL     1       0.947  15.415  19.678  0.00  0.00    +0.000 C 
ATOM     26  C   UNL     1       0.377  16.596  20.470  0.00  0.00    +0.000 C 
ATOM     27  C   UNL     1       0.134  17.652  19.403  0.00  0.00    +0.000 C 
ATOM     28  C   UNL     1       1.306  17.510  18.444  0.00  0.00    +0.000 C 
ATOM     29  C   UNL     1       1.871  16.108  18.659  0.00  0.00    +0.000 C 
ENDBRANCH  22  25
ENDBRANCH   4  17
TORSDOF 4
ENDMDL
