MODEL 1
REMARK VINA RESULT:      -7.6      0.000      0.000
REMARK  Name = 
REMARK  7 active torsions:
REMARK  status: ('A' for Active; 'I' for Inactive)
REMARK    1  A    between atoms: C_1  and  O_2
REMARK    2  A    between atoms: O_2  and  C_3
REMARK    3  A    between atoms: N_9  and  C_10
REMARK    4  A    between atoms: C_13  and  C_14
REMARK    5  A    between atoms: C_14  and  O_15
REMARK    6  A    between atoms: N_19  and  C_20
REMARK    7  A    between atoms: N_30  and  C_31
REMARK                            x       y       z     vdW  Elec       q    Type
REMARK                         _______ _______ _______ _____ _____    ______ ____
ROOT
ATOM      1  C   UNL     1      -5.632  13.170  21.684  0.00  0.00    +0.000 A 
ATOM      2  C   UNL     1      -5.770  13.048  20.306  0.00  0.00    +0.000 A 
ATOM      3  C   UNL     1      -4.689  12.642  19.512  0.00  0.00    +0.000 A 
ATOM      4  C   UNL     1      -3.441  12.354  20.096  0.00  0.00    +0.000 A 
ATOM      5  C   UNL     1      -2.184  11.904  19.637  0.00  0.00    +0.000 A 
ATOM      6  C   UNL     1      -1.295  11.825  20.702  0.00  0.00    +0.000 A 
ATOM      7  N   UNL     1      -2.011  12.154  21.831  0.00  0.00    +0.000 N 
ATOM      8  C   UNL     1      -1.560  12.087  23.205  0.00  0.00    +0.000 C 
ATOM      9  C   UNL     1      -3.312  12.501  21.483  0.00  0.00    +0.000 A 
ATOM     10  C   UNL     1      -4.397  12.903  22.287  0.00  0.00    +0.000 A 
ATOM     11  C   UNL     1       0.148  11.335  20.648  0.00  0.00    +0.000 C 
ATOM     12  N   UNL     1       0.394  10.796  19.286  0.00  0.00    +0.000 N 
ATOM     13  C   UNL     1       1.038   9.623  18.912  0.00  0.00    +0.000 C 
ATOM     14  O   UNL     1       1.209   9.367  17.720  0.00  0.00    +0.000 OA
ATOM     15  N   UNL     1       1.412   8.755  19.915  0.00  0.00    +0.000 N 
ATOM     16  C   UNL     1      -0.179  11.573  18.171  0.00  0.00    +0.000 C 
ATOM     17  C   UNL     1      -1.707  11.418  18.267  0.00  0.00    +0.000 C 
ATOM     18  C   UNL     1      -2.230   9.958  17.981  0.00  0.00    +0.000 C 
ATOM     19  N   UNL     1      -2.109  10.308  16.537  0.00  0.00    +0.000 NA
ATOM     20  C   UNL     1      -3.098   9.604  15.748  0.00  0.00    +0.000 C 
ATOM     21  C   UNL     1      -2.489  11.699  16.938  0.00  0.00    +0.000 C 
ATOM     22  H   UNL     1       0.985   8.877  20.815  0.00  0.00    +0.000 HD
ENDROOT
BRANCH  15  23
ATOM     23  C   UNL     1       2.028   7.490  19.695  0.00  0.00    +0.000 A 
ATOM     24  C   UNL     1       2.871   7.208  18.614  0.00  0.00    +0.000 A 
ATOM     25  C   UNL     1       3.376   5.922  18.391  0.00  0.00    +0.000 A 
ATOM     26  C   UNL     1       3.075   4.901  19.273  0.00  0.00    +0.000 A 
ATOM     27  C   UNL     1       2.276   5.180  20.380  0.00  0.00    +0.000 A 
ATOM     28  F   UNL     1       1.987   4.197  21.243  0.00  0.00    +0.000 F 
ATOM     29  C   UNL     1       1.754   6.459  20.601  0.00  0.00    +0.000 A 
ENDBRANCH  15  23
BRANCH   1  31
ATOM     30  C   UNL     1      -6.440  13.189  23.921  0.00  0.00    +0.000 C 
ATOM     31  O   UNL     1      -6.623  13.539  22.553  0.00  0.00    +0.000 OA
ENDBRANCH   1  31
BRANCH  11  32
ATOM     32  C   UNL     1       1.190  12.424  21.018  0.00  0.00    +0.000 C 
BRANCH  32  33
ATOM     33  O   UNL     1       0.796  13.762  20.717  0.00  0.00    +0.000 OA
ATOM     34  H   UNL     1       1.247  14.352  21.348  0.00  0.00    +0.000 HD
ENDBRANCH  32  33
ENDBRANCH  11  32
TORSDOF 4
ENDMDL
MODEL 2
REMARK VINA RESULT:      -7.4      0.946      1.268
REMARK  Name = 
REMARK  7 active torsions:
REMARK  status: ('A' for Active; 'I' for Inactive)
REMARK    1  A    between atoms: C_1  and  O_2
REMARK    2  A    between atoms: O_2  and  C_3
REMARK    3  A    between atoms: N_9  and  C_10
REMARK    4  A    between atoms: C_13  and  C_14
REMARK    5  A    between atoms: C_14  and  O_15
REMARK    6  A    between atoms: N_19  and  C_20
REMARK    7  A    between atoms: N_30  and  C_31
REMARK                            x       y       z     vdW  Elec       q    Type
REMARK                         _______ _______ _______ _____ _____    ______ ____
ROOT
ATOM      1  C   UNL     1      -5.534  13.167  21.784  0.00  0.00    +0.000 A 
ATOM      2  C   UNL     1      -5.710  13.048  20.410  0.00  0.00    +0.000 A 
ATOM      3  C   UNL     1      -4.651  12.642  19.586  0.00  0.00    +0.000 A 
ATOM      4  C   UNL     1      -3.387  12.351  20.135  0.00  0.00    +0.000 A 
ATOM      5  C   UNL     1      -2.144  11.900  19.642  0.00  0.00    +0.000 A 
ATOM      6  C   UNL     1      -1.227  11.819  20.682  0.00  0.00    +0.000 A 
ATOM      7  N   UNL     1      -1.912  12.147  21.831  0.00  0.00    +0.000 N 
ATOM      8  C   UNL     1      -1.423  12.077  23.192  0.00  0.00    +0.000 C 
ATOM      9  C   UNL     1      -3.221  12.496  21.519  0.00  0.00    +0.000 A 
ATOM     10  C   UNL     1      -4.283  12.899  22.352  0.00  0.00    +0.000 A 
ATOM     11  C   UNL     1       0.214  11.328  20.588  0.00  0.00    +0.000 C 
ATOM     12  N   UNL     1       0.422  10.790  19.219  0.00  0.00    +0.000 N 
ATOM     13  C   UNL     1       1.054   9.617  18.827  0.00  0.00    +0.000 C 
ATOM     14  O   UNL     1       1.193   9.363  17.630  0.00  0.00    +0.000 OA
ATOM     15  N   UNL     1       1.455   8.747  19.818  0.00  0.00    +0.000 N 
ATOM     16  C   UNL     1      -0.180  11.570  18.122  0.00  0.00    +0.000 C 
ATOM     17  C   UNL     1      -1.705  11.416  18.259  0.00  0.00    +0.000 C 
ATOM     18  C   UNL     1      -2.237   9.957  17.985  0.00  0.00    +0.000 C 
ATOM     19  N   UNL     1      -2.155  10.309  16.539  0.00  0.00    +0.000 NA
ATOM     20  C   UNL     1      -3.165   9.607  15.776  0.00  0.00    +0.000 C 
ATOM     21  C   UNL     1      -2.522  11.700  16.952  0.00  0.00    +0.000 C 
ATOM     22  H   UNL     1       1.053   8.869  20.730  0.00  0.00    +0.000 HD
ENDROOT
BRANCH  15  23
ATOM     23  C   UNL     1       2.062   7.482  19.579  0.00  0.00    +0.000 A 
ATOM     24  C   UNL     1       1.890   6.364  20.402  0.00  0.00    +0.000 A 
ATOM     25  C   UNL     1       2.585   5.170  20.177  0.00  0.00    +0.000 A 
ATOM     26  C   UNL     1       3.437   5.062  19.093  0.00  0.00    +0.000 A 
ATOM     27  C   UNL     1       3.578   6.153  18.237  0.00  0.00    +0.000 A 
ATOM     28  F   UNL     1       4.396   6.053  17.181  0.00  0.00    +0.000 F 
ATOM     29  C   UNL     1       2.901   7.355  18.465  0.00  0.00    +0.000 A 
ENDBRANCH  15  23
BRANCH   1  31
ATOM     30  C   UNL     1      -7.430  12.531  23.072  0.00  0.00    +0.000 C 
ATOM     31  O   UNL     1      -6.501  13.537  22.680  0.00  0.00    +0.000 OA
ENDBRANCH   1  31
BRANCH  11  32
ATOM     32  C   UNL     1       1.267  12.415  20.932  0.00  0.00    +0.000 C 
BRANCH  32  33
ATOM     33  O   UNL     1       0.838  13.759  20.716  0.00  0.00    +0.000 OA
ATOM     34  H   UNL     1       0.024  13.727  20.183  0.00  0.00    +0.000 HD
ENDBRANCH  32  33
ENDBRANCH  11  32
TORSDOF 4
ENDMDL
MODEL 3
REMARK VINA RESULT:      -7.3      3.524      6.213
REMARK  Name = 
REMARK  7 active torsions:
REMARK  status: ('A' for Active; 'I' for Inactive)
REMARK    1  A    between atoms: C_1  and  O_2
REMARK    2  A    between atoms: O_2  and  C_3
REMARK    3  A    between atoms: N_9  and  C_10
REMARK    4  A    between atoms: C_13  and  C_14
REMARK    5  A    between atoms: C_14  and  O_15
REMARK    6  A    between atoms: N_19  and  C_20
REMARK    7  A    between atoms: N_30  and  C_31
REMARK                            x       y       z     vdW  Elec       q    Type
REMARK                         _______ _______ _______ _____ _____    ______ ____
ROOT
ATOM      1  C   UNL     1      -6.113  12.258  19.306  0.00  0.00    +0.000 A 
ATOM      2  C   UNL     1      -5.877  12.536  20.647  0.00  0.00    +0.000 A 
ATOM      3  C   UNL     1      -4.572  12.546  21.157  0.00  0.00    +0.000 A 
ATOM      4  C   UNL     1      -3.474  12.271  20.318  0.00  0.00    +0.000 A 
ATOM      5  C   UNL     1      -2.070  12.225  20.463  0.00  0.00    +0.000 A 
ATOM      6  C   UNL     1      -1.485  11.860  19.257  0.00  0.00    +0.000 A 
ATOM      7  N   UNL     1      -2.511  11.749  18.345  0.00  0.00    +0.000 N 
ATOM      8  C   UNL     1      -2.394  11.521  16.920  0.00  0.00    +0.000 C 
ATOM      9  C   UNL     1      -3.730  11.973  18.973  0.00  0.00    +0.000 A 
ATOM     10  C   UNL     1      -5.041  11.966  18.455  0.00  0.00    +0.000 A 
ATOM     11  C   UNL     1       0.008  11.744  18.969  0.00  0.00    +0.000 C 
ATOM     12  N   UNL     1       0.740  12.251  20.158  0.00  0.00    +0.000 N 
ATOM     13  C   UNL     1       1.838  13.102  20.212  0.00  0.00    +0.000 C 
ATOM     14  O   UNL     1       2.360  13.366  21.295  0.00  0.00    +0.000 OA
ATOM     15  N   UNL     1       2.264  13.668  19.030  0.00  0.00    +0.000 N 
ATOM     16  C   UNL     1       0.194  11.856  21.469  0.00  0.00    +0.000 C 
ATOM     17  C   UNL     1      -1.148  12.593  21.626  0.00  0.00    +0.000 C 
ATOM     18  C   UNL     1      -1.017  14.159  21.759  0.00  0.00    +0.000 C 
ATOM     19  N   UNL     1      -0.705  13.908  23.195  0.00  0.00    +0.000 NA
ATOM     20  C   UNL     1      -1.156  15.007  24.023  0.00  0.00    +0.000 C 
ATOM     21  C   UNL     1      -1.651  12.752  23.102  0.00  0.00    +0.000 C 
ATOM     22  H   UNL     1       1.628  13.650  18.253  0.00  0.00    +0.000 HD
ENDROOT
BRANCH  15  23
ATOM     23  C   UNL     1       3.334  14.601  18.925  0.00  0.00    +0.000 A 
ATOM     24  C   UNL     1       3.300  15.893  19.462  0.00  0.00    +0.000 A 
ATOM     25  C   UNL     1       4.341  16.805  19.251  0.00  0.00    +0.000 A 
ATOM     26  C   UNL     1       5.457  16.422  18.529  0.00  0.00    +0.000 A 
ATOM     27  C   UNL     1       5.524  15.122  18.033  0.00  0.00    +0.000 A 
ATOM     28  F   UNL     1       6.606  14.743  17.339  0.00  0.00    +0.000 F 
ATOM     29  C   UNL     1       4.481  14.210  18.225  0.00  0.00    +0.000 A 
ENDBRANCH  15  23
BRANCH   1  31
ATOM     30  C   UNL     1      -7.695  13.383  17.930  0.00  0.00    +0.000 C 
ATOM     31  O   UNL     1      -7.342  12.240  18.702  0.00  0.00    +0.000 OA
ENDBRANCH   1  31
BRANCH  11  32
ATOM     32  C   UNL     1       0.462  10.306  18.600  0.00  0.00    +0.000 C 
BRANCH  32  33
ATOM     33  O   UNL     1       1.442  10.231  17.566  0.00  0.00    +0.000 OA
ATOM     34  H   UNL     1       1.561   9.291  17.340  0.00  0.00    +0.000 HD
ENDBRANCH  32  33
ENDBRANCH  11  32
TORSDOF 4
ENDMDL
MODEL 4
REMARK VINA RESULT:      -7.1      4.180      8.141
REMARK  Name = 
REMARK  7 active torsions:
REMARK  status: ('A' for Active; 'I' for Inactive)
REMARK    1  A    between atoms: C_1  and  O_2
REMARK    2  A    between atoms: O_2  and  C_3
REMARK    3  A    between atoms: N_9  and  C_10
REMARK    4  A    between atoms: C_13  and  C_14
REMARK    5  A    between atoms: C_14  and  O_15
REMARK    6  A    between atoms: N_19  and  C_20
REMARK    7  A    between atoms: N_30  and  C_31
REMARK                            x       y       z     vdW  Elec       q    Type
REMARK                         _______ _______ _______ _____ _____    ______ ____
ROOT
ATOM      1  C   UNL     1      -3.093  11.125  16.376  0.00  0.00    +0.000 A 
ATOM      2  C   UNL     1      -4.390  11.503  16.702  0.00  0.00    +0.000 A 
ATOM      3  C   UNL     1      -4.712  11.905  18.006  0.00  0.00    +0.000 A 
ATOM      4  C   UNL     1      -3.726  11.932  19.011  0.00  0.00    +0.000 A 
ATOM      5  C   UNL     1      -3.673  12.298  20.373  0.00  0.00    +0.000 A 
ATOM      6  C   UNL     1      -2.393  12.079  20.869  0.00  0.00    +0.000 A 
ATOM      7  N   UNL     1      -1.633  11.648  19.805  0.00  0.00    +0.000 N 
ATOM      8  C   UNL     1      -0.203  11.417  19.787  0.00  0.00    +0.000 C 
ATOM      9  C   UNL     1      -2.428  11.530  18.671  0.00  0.00    +0.000 A 
ATOM     10  C   UNL     1      -2.098  11.128  17.361  0.00  0.00    +0.000 A 
ATOM     11  C   UNL     1      -1.898  12.390  22.277  0.00  0.00    +0.000 C 
ATOM     12  N   UNL     1      -2.977  13.125  22.986  0.00  0.00    +0.000 N 
ATOM     13  C   UNL     1      -2.885  14.257  23.786  0.00  0.00    +0.000 C 
ATOM     14  O   UNL     1      -3.887  14.695  24.351  0.00  0.00    +0.000 OA
ATOM     15  N   UNL     1      -1.660  14.884  23.864  0.00  0.00    +0.000 N 
ATOM     16  C   UNL     1      -4.349  12.631  22.762  0.00  0.00    +0.000 C 
ATOM     17  C   UNL     1      -4.698  12.954  21.299  0.00  0.00    +0.000 C 
ATOM     18  C   UNL     1      -4.825  14.495  20.986  0.00  0.00    +0.000 C 
ATOM     19  N   UNL     1      -6.201  14.391  21.550  0.00  0.00    +0.000 NA
ATOM     20  C   UNL     1      -7.094  15.338  20.917  0.00  0.00    +0.000 C 
ATOM     21  C   UNL     1      -6.231  13.008  20.978  0.00  0.00    +0.000 C 
ATOM     22  H   UNL     1      -0.980  14.659  23.160  0.00  0.00    +0.000 HD
ENDROOT
BRANCH  15  23
ATOM     23  C   UNL     1      -1.416  16.082  24.592  0.00  0.00    +0.000 A 
ATOM     24  C   UNL     1      -1.467  17.363  24.031  0.00  0.00    +0.000 A 
ATOM     25  C   UNL     1      -1.126  18.503  24.767  0.00  0.00    +0.000 A 
ATOM     26  C   UNL     1      -0.765  18.383  26.097  0.00  0.00    +0.000 A 
ATOM     27  C   UNL     1      -0.758  17.118  26.681  0.00  0.00    +0.000 A 
ATOM     28  F   UNL     1      -0.416  16.995  27.970  0.00  0.00    +0.000 F 
ATOM     29  C   UNL     1      -1.081  15.972  25.947  0.00  0.00    +0.000 A 
ENDBRANCH  15  23
BRANCH   1  31
ATOM     30  C   UNL     1      -3.595  10.005  14.339  0.00  0.00    +0.000 C 
ATOM     31  O   UNL     1      -2.666  10.734  15.135  0.00  0.00    +0.000 OA
ENDBRANCH   1  31
BRANCH  11  32
ATOM     32  C   UNL     1      -1.457  11.133  23.074  0.00  0.00    +0.000 C 
BRANCH  32  33
ATOM     33  O   UNL     1      -0.052  10.884  23.075  0.00  0.00    +0.000 OA
ATOM     34  H   UNL     1       0.303  11.193  23.927  0.00  0.00    +0.000 HD
ENDBRANCH  32  33
ENDBRANCH  11  32
TORSDOF 4
ENDMDL
MODEL 5
REMARK VINA RESULT:      -7.0      3.779      6.349
REMARK  Name = 
REMARK  7 active torsions:
REMARK  status: ('A' for Active; 'I' for Inactive)
REMARK    1  A    between atoms: C_1  and  O_2
REMARK    2  A    between atoms: O_2  and  C_3
REMARK    3  A    between atoms: N_9  and  C_10
REMARK    4  A    between atoms: C_13  and  C_14
REMARK    5  A    between atoms: C_14  and  O_15
REMARK    6  A    between atoms: N_19  and  C_20
REMARK    7  A    between atoms: N_30  and  C_31
REMARK                            x       y       z     vdW  Elec       q    Type
REMARK                         _______ _______ _______ _____ _____    ______ ____
ROOT
ATOM      1  C   UNL     1      -5.924  12.290  19.298  0.00  0.00    +0.000 A 
ATOM      2  C   UNL     1      -5.691  12.618  20.628  0.00  0.00    +0.000 A 
ATOM      3  C   UNL     1      -4.387  12.646  21.141  0.00  0.00    +0.000 A 
ATOM      4  C   UNL     1      -3.287  12.337  20.316  0.00  0.00    +0.000 A 
ATOM      5  C   UNL     1      -1.884  12.295  20.467  0.00  0.00    +0.000 A 
ATOM      6  C   UNL     1      -1.296  11.883  19.277  0.00  0.00    +0.000 A 
ATOM      7  N   UNL     1      -2.319  11.739  18.367  0.00  0.00    +0.000 N 
ATOM      8  C   UNL     1      -2.199  11.457  16.952  0.00  0.00    +0.000 C 
ATOM      9  C   UNL     1      -3.540  11.989  18.983  0.00  0.00    +0.000 A 
ATOM     10  C   UNL     1      -4.849  11.964  18.462  0.00  0.00    +0.000 A 
ATOM     11  C   UNL     1       0.198  11.754  18.999  0.00  0.00    +0.000 C 
ATOM     12  N   UNL     1       0.928  12.305  20.169  0.00  0.00    +0.000 N 
ATOM     13  C   UNL     1       2.026  13.156  20.194  0.00  0.00    +0.000 C 
ATOM     14  O   UNL     1       2.545  13.459  21.268  0.00  0.00    +0.000 OA
ATOM     15  N   UNL     1       2.457  13.675  18.992  0.00  0.00    +0.000 N 
ATOM     16  C   UNL     1       0.377  11.961  21.493  0.00  0.00    +0.000 C 
ATOM     17  C   UNL     1      -0.964  12.705  21.618  0.00  0.00    +0.000 C 
ATOM     18  C   UNL     1      -0.831  14.275  21.691  0.00  0.00    +0.000 C 
ATOM     19  N   UNL     1      -0.524  14.079  23.137  0.00  0.00    +0.000 NA
ATOM     20  C   UNL     1      -0.975  15.208  23.921  0.00  0.00    +0.000 C 
ATOM     21  C   UNL     1      -1.471  12.921  23.085  0.00  0.00    +0.000 C 
ATOM     22  H   UNL     1       1.822  13.629  18.215  0.00  0.00    +0.000 HD
ENDROOT
BRANCH  15  23
ATOM     23  C   UNL     1       3.529  14.602  18.856  0.00  0.00    +0.000 A 
ATOM     24  C   UNL     1       4.694  14.348  18.124  0.00  0.00    +0.000 A 
ATOM     25  C   UNL     1       5.759  15.255  18.098  0.00  0.00    +0.000 A 
ATOM     26  C   UNL     1       5.658  16.457  18.776  0.00  0.00    +0.000 A 
ATOM     27  C   UNL     1       4.483  16.743  19.467  0.00  0.00    +0.000 A 
ATOM     28  F   UNL     1       4.375  17.908  20.119  0.00  0.00    +0.000 F 
ATOM     29  C   UNL     1       3.420  15.834  19.512  0.00  0.00    +0.000 A 
ENDBRANCH  15  23
BRANCH   1  31
ATOM     30  C   UNL     1      -7.254  12.869  17.413  0.00  0.00    +0.000 C 
ATOM     31  O   UNL     1      -7.151  12.251  18.691  0.00  0.00    +0.000 OA
ENDBRANCH   1  31
BRANCH  11  32
ATOM     32  C   UNL     1       0.650  10.303  18.686  0.00  0.00    +0.000 C 
BRANCH  32  33
ATOM     33  O   UNL     1       1.472  10.165  17.527  0.00  0.00    +0.000 OA
ATOM     34  H   UNL     1       0.903   9.867  16.795  0.00  0.00    +0.000 HD
ENDBRANCH  32  33
ENDBRANCH  11  32
TORSDOF 4
ENDMDL
MODEL 6
REMARK VINA RESULT:      -6.7      6.300     10.639
REMARK  Name = 
REMARK  7 active torsions:
REMARK  status: ('A' for Active; 'I' for Inactive)
REMARK    1  A    between atoms: C_1  and  O_2
REMARK    2  A    between atoms: O_2  and  C_3
REMARK    3  A    between atoms: N_9  and  C_10
REMARK    4  A    between atoms: C_13  and  C_14
REMARK    5  A    between atoms: C_14  and  O_15
REMARK    6  A    between atoms: N_19  and  C_20
REMARK    7  A    between atoms: N_30  and  C_31
REMARK                            x       y       z     vdW  Elec       q    Type
REMARK                         _______ _______ _______ _____ _____    ______ ____
ROOT
ATOM      1  C   UNL     1      10.578  13.508  19.770  0.00  0.00    +0.000 A 
ATOM      2  C   UNL     1      10.430  13.551  21.151  0.00  0.00    +0.000 A 
ATOM      3  C   UNL     1       9.216  13.946  21.730  0.00  0.00    +0.000 A 
ATOM      4  C   UNL     1       8.123  14.310  20.920  0.00  0.00    +0.000 A 
ATOM      5  C   UNL     1       6.787  14.713  21.136  0.00  0.00    +0.000 A 
ATOM      6  C   UNL     1       6.171  14.972  19.918  0.00  0.00    +0.000 A 
ATOM      7  N   UNL     1       7.093  14.664  18.943  0.00  0.00    +0.000 N 
ATOM      8  C   UNL     1       6.879  14.641  17.511  0.00  0.00    +0.000 C 
ATOM      9  C   UNL     1       8.294  14.281  19.529  0.00  0.00    +0.000 A 
ATOM     10  C   UNL     1       9.511  13.880  18.943  0.00  0.00    +0.000 A 
ATOM     11  C   UNL     1       4.718  15.382  19.703  0.00  0.00    +0.000 C 
ATOM     12  N   UNL     1       4.023  15.295  21.012  0.00  0.00    +0.000 N 
ATOM     13  C   UNL     1       2.778  14.754  21.308  0.00  0.00    +0.000 C 
ATOM     14  O   UNL     1       2.329  14.829  22.451  0.00  0.00    +0.000 OA
ATOM     15  N   UNL     1       2.115  14.093  20.296  0.00  0.00    +0.000 N 
ATOM     16  C   UNL     1       4.779  15.789  22.178  0.00  0.00    +0.000 C 
ATOM     17  C   UNL     1       5.935  14.799  22.403  0.00  0.00    +0.000 C 
ATOM     18  C   UNL     1       5.478  13.362  22.866  0.00  0.00    +0.000 C 
ATOM     19  N   UNL     1       5.384  13.944  24.234  0.00  0.00    +0.000 NA
ATOM     20  C   UNL     1       5.668  12.946  25.244  0.00  0.00    +0.000 C 
ATOM     21  C   UNL     1       6.545  14.805  23.847  0.00  0.00    +0.000 C 
ATOM     22  H   UNL     1       2.653  13.813  19.496  0.00  0.00    +0.000 HD
ENDROOT
BRANCH  15  23
ATOM     23  C   UNL     1       0.861  13.437  20.452  0.00  0.00    +0.000 A 
ATOM     24  C   UNL     1      -0.377  14.079  20.340  0.00  0.00    +0.000 A 
ATOM     25  C   UNL     1      -1.580  13.409  20.595  0.00  0.00    +0.000 A 
ATOM     26  C   UNL     1      -1.564  12.068  20.930  0.00  0.00    +0.000 A 
ATOM     27  C   UNL     1      -0.340  11.405  20.996  0.00  0.00    +0.000 A 
ATOM     28  F   UNL     1      -0.318  10.103  21.312  0.00  0.00    +0.000 F 
ATOM     29  C   UNL     1       0.867  12.071  20.759  0.00  0.00    +0.000 A 
ENDBRANCH  15  23
BRANCH   1  31
ATOM     30  C   UNL     1      11.573  12.855  17.710  0.00  0.00    +0.000 C 
ATOM     31  O   UNL     1      11.709  13.121  19.102  0.00  0.00    +0.000 OA
ENDBRANCH   1  31
BRANCH  11  32
ATOM     32  C   UNL     1       4.555  16.791  19.071  0.00  0.00    +0.000 C 
BRANCH  32  33
ATOM     33  O   UNL     1       5.645  17.683  19.298  0.00  0.00    +0.000 OA
ATOM     34  H   UNL     1       6.251  17.608  18.540  0.00  0.00    +0.000 HD
ENDBRANCH  32  33
ENDBRANCH  11  32
TORSDOF 4
ENDMDL
MODEL 7
REMARK VINA RESULT:      -6.5      2.916      4.385
REMARK  Name = 
REMARK  7 active torsions:
REMARK  status: ('A' for Active; 'I' for Inactive)
REMARK    1  A    between atoms: C_1  and  O_2
REMARK    2  A    between atoms: O_2  and  C_3
REMARK    3  A    between atoms: N_9  and  C_10
REMARK    4  A    between atoms: C_13  and  C_14
REMARK    5  A    between atoms: C_14  and  O_15
REMARK    6  A    between atoms: N_19  and  C_20
REMARK    7  A    between atoms: N_30  and  C_31
REMARK                            x       y       z     vdW  Elec       q    Type
REMARK                         _______ _______ _______ _____ _____    ______ ____
ROOT
ATOM      1  C   UNL     1      -5.955  16.885  19.979  0.00  0.00    +0.000 A 
ATOM      2  C   UNL     1      -4.793  17.646  19.938  0.00  0.00    +0.000 A 
ATOM      3  C   UNL     1      -3.557  17.084  20.287  0.00  0.00    +0.000 A 
ATOM      4  C   UNL     1      -3.472  15.737  20.688  0.00  0.00    +0.000 A 
ATOM      5  C   UNL     1      -2.438  14.852  21.065  0.00  0.00    +0.000 A 
ATOM      6  C   UNL     1      -2.975  13.613  21.391  0.00  0.00    +0.000 A 
ATOM      7  N   UNL     1      -4.328  13.701  21.150  0.00  0.00    +0.000 N 
ATOM      8  C   UNL     1      -5.300  12.629  21.211  0.00  0.00    +0.000 C 
ATOM      9  C   UNL     1      -4.655  14.989  20.744  0.00  0.00    +0.000 A 
ATOM     10  C   UNL     1      -5.899  15.548  20.390  0.00  0.00    +0.000 A 
ATOM     11  C   UNL     1      -2.200  12.365  21.800  0.00  0.00    +0.000 C 
ATOM     12  N   UNL     1      -0.753  12.652  21.628  0.00  0.00    +0.000 N 
ATOM     13  C   UNL     1       0.235  11.859  21.058  0.00  0.00    +0.000 C 
ATOM     14  O   UNL     1       1.406  12.237  21.062  0.00  0.00    +0.000 OA
ATOM     15  N   UNL     1      -0.160  10.686  20.453  0.00  0.00    +0.000 N 
ATOM     16  C   UNL     1      -0.306  13.990  22.059  0.00  0.00    +0.000 C 
ATOM     17  C   UNL     1      -0.915  14.997  21.068  0.00  0.00    +0.000 C 
ATOM     18  C   UNL     1      -0.344  14.892  19.601  0.00  0.00    +0.000 C 
ATOM     19  N   UNL     1       0.803  15.702  20.100  0.00  0.00    +0.000 NA
ATOM     20  C   UNL     1       1.351  16.530  19.047  0.00  0.00    +0.000 C 
ATOM     21  C   UNL     1      -0.186  16.382  20.994  0.00  0.00    +0.000 C 
ATOM     22  H   UNL     1      -1.134  10.588  20.226  0.00  0.00    +0.000 HD
ENDROOT
BRANCH  15  23
ATOM     23  C   UNL     1       0.720   9.794  19.777  0.00  0.00    +0.000 A 
ATOM     24  C   UNL     1       1.155   9.973  18.460  0.00  0.00    +0.000 A 
ATOM     25  C   UNL     1       1.945   9.019  17.809  0.00  0.00    +0.000 A 
ATOM     26  C   UNL     1       2.348   7.881  18.484  0.00  0.00    +0.000 A 
ATOM     27  C   UNL     1       1.962   7.715  19.813  0.00  0.00    +0.000 A 
ATOM     28  F   UNL     1       2.355   6.619  20.475  0.00  0.00    +0.000 F 
ATOM     29  C   UNL     1       1.159   8.656  20.465  0.00  0.00    +0.000 A 
ENDBRANCH  15  23
BRANCH   1  31
ATOM     30  C   UNL     1      -7.556  17.278  18.264  0.00  0.00    +0.000 C 
ATOM     31  O   UNL     1      -7.207  17.327  19.643  0.00  0.00    +0.000 OA
ENDBRANCH   1  31
BRANCH  11  32
ATOM     32  C   UNL     1      -2.511  11.882  23.241  0.00  0.00    +0.000 C 
BRANCH  32  33
ATOM     33  O   UNL     1      -3.145  12.849  24.077  0.00  0.00    +0.000 OA
ATOM     34  H   UNL     1      -3.897  13.221  23.581  0.00  0.00    +0.000 HD
ENDBRANCH  32  33
ENDBRANCH  11  32
TORSDOF 4
ENDMDL
MODEL 8
REMARK VINA RESULT:      -6.4      3.870      6.861
REMARK  Name = 
REMARK  7 active torsions:
REMARK  status: ('A' for Active; 'I' for Inactive)
REMARK    1  A    between atoms: C_1  and  O_2
REMARK    2  A    between atoms: O_2  and  C_3
REMARK    3  A    between atoms: N_9  and  C_10
REMARK    4  A    between atoms: C_13  and  C_14
REMARK    5  A    between atoms: C_14  and  O_15
REMARK    6  A    between atoms: N_19  and  C_20
REMARK    7  A    between atoms: N_30  and  C_31
REMARK                            x       y       z     vdW  Elec       q    Type
REMARK                         _______ _______ _______ _____ _____    ______ ____
ROOT
ATOM      1  C   UNL     1      -3.471  10.347  16.227  0.00  0.00    +0.000 A 
ATOM      2  C   UNL     1      -4.173  11.330  16.914  0.00  0.00    +0.000 A 
ATOM      3  C   UNL     1      -3.617  11.950  18.042  0.00  0.00    +0.000 A 
ATOM      4  C   UNL     1      -2.337  11.584  18.501  0.00  0.00    +0.000 A 
ATOM      5  C   UNL     1      -1.474  11.995  19.540  0.00  0.00    +0.000 A 
ATOM      6  C   UNL     1      -0.314  11.230  19.518  0.00  0.00    +0.000 A 
ATOM      7  N   UNL     1      -0.420  10.395  18.429  0.00  0.00    +0.000 N 
ATOM      8  C   UNL     1       0.594   9.503  17.908  0.00  0.00    +0.000 C 
ATOM      9  C   UNL     1      -1.651  10.577  17.809  0.00  0.00    +0.000 A 
ATOM     10  C   UNL     1      -2.203   9.955  16.672  0.00  0.00    +0.000 A 
ATOM     11  C   UNL     1       0.894  11.385  20.436  0.00  0.00    +0.000 C 
ATOM     12  N   UNL     1       0.690  12.607  21.254  0.00  0.00    +0.000 N 
ATOM     13  C   UNL     1       1.593  13.620  21.556  0.00  0.00    +0.000 C 
ATOM     14  O   UNL     1       1.264  14.533  22.312  0.00  0.00    +0.000 OA
ATOM     15  N   UNL     1       2.823  13.581  20.935  0.00  0.00    +0.000 N 
ATOM     16  C   UNL     1      -0.677  12.819  21.768  0.00  0.00    +0.000 C 
ATOM     17  C   UNL     1      -1.558  13.142  20.548  0.00  0.00    +0.000 C 
ATOM     18  C   UNL     1      -1.227  14.519  19.854  0.00  0.00    +0.000 C 
ATOM     19  N   UNL     1      -2.055  15.142  20.927  0.00  0.00    +0.000 NA
ATOM     20  C   UNL     1      -2.705  16.343  20.450  0.00  0.00    +0.000 C 
ATOM     21  C   UNL     1      -2.890  13.902  20.874  0.00  0.00    +0.000 C 
ATOM     22  H   UNL     1       2.913  12.996  20.124  0.00  0.00    +0.000 HD
ENDROOT
BRANCH  15  23
ATOM     23  C   UNL     1       3.834  14.571  21.093  0.00  0.00    +0.000 A 
ATOM     24  C   UNL     1       4.618  14.711  22.243  0.00  0.00    +0.000 A 
ATOM     25  C   UNL     1       5.534  15.759  22.386  0.00  0.00    +0.000 A 
ATOM     26  C   UNL     1       5.709  16.667  21.358  0.00  0.00    +0.000 A 
ATOM     27  C   UNL     1       4.969  16.509  20.187  0.00  0.00    +0.000 A 
ATOM     28  F   UNL     1       5.140  17.380  19.184  0.00  0.00    +0.000 F 
ATOM     29  C   UNL     1       4.040  15.474  20.043  0.00  0.00    +0.000 A 
ENDBRANCH  15  23
BRANCH   1  31
ATOM     30  C   UNL     1      -3.314  10.067  13.869  0.00  0.00    +0.000 C 
ATOM     31  O   UNL     1      -3.910   9.692  15.107  0.00  0.00    +0.000 OA
ENDBRANCH   1  31
BRANCH  11  32
ATOM     32  C   UNL     1       1.158  10.146  21.332  0.00  0.00    +0.000 C 
BRANCH  32  33
ATOM     33  O   UNL     1       0.009   9.345  21.608  0.00  0.00    +0.000 OA
ATOM     34  H   UNL     1      -0.777   9.856  21.343  0.00  0.00    +0.000 HD
ENDBRANCH  32  33
ENDBRANCH  11  32
TORSDOF 4
ENDMDL
MODEL 9
REMARK VINA RESULT:      -6.4      6.908     11.422
REMARK  Name = 
REMARK  7 active torsions:
REMARK  status: ('A' for Active; 'I' for Inactive)
REMARK    1  A    between atoms: C_1  and  O_2
REMARK    2  A    between atoms: O_2  and  C_3
REMARK    3  A    between atoms: N_9  and  C_10
REMARK    4  A    between atoms: C_13  and  C_14
REMARK    5  A    between atoms: C_14  and  O_15
REMARK    6  A    between atoms: N_19  and  C_20
REMARK    7  A    between atoms: N_30  and  C_31
REMARK                            x       y       z     vdW  Elec       q    Type
REMARK                         _______ _______ _______ _____ _____    ______ ____
ROOT
ATOM      1  C   UNL     1      10.699  12.219  19.089  0.00  0.00    +0.000 A 
ATOM      2  C   UNL     1      10.717  11.888  20.439  0.00  0.00    +0.000 A 
ATOM      3  C   UNL     1       9.786  12.447  21.326  0.00  0.00    +0.000 A 
ATOM      4  C   UNL     1       8.817  13.359  20.865  0.00  0.00    +0.000 A 
ATOM      5  C   UNL     1       7.740  14.072  21.434  0.00  0.00    +0.000 A 
ATOM      6  C   UNL     1       7.136  14.864  20.465  0.00  0.00    +0.000 A 
ATOM      7  N   UNL     1       7.785  14.593  19.282  0.00  0.00    +0.000 N 
ATOM      8  C   UNL     1       7.433  15.070  17.961  0.00  0.00    +0.000 C 
ATOM      9  C   UNL     1       8.825  13.698  19.505  0.00  0.00    +0.000 A 
ATOM     10  C   UNL     1       9.755  13.135  18.609  0.00  0.00    +0.000 A 
ATOM     11  C   UNL     1       5.909  15.749  20.651  0.00  0.00    +0.000 C 
ATOM     12  N   UNL     1       5.364  15.493  22.009  0.00  0.00    +0.000 N 
ATOM     13  C   UNL     1       4.044  15.302  22.401  0.00  0.00    +0.000 C 
ATOM     14  O   UNL     1       3.770  15.166  23.593  0.00  0.00    +0.000 OA
ATOM     15  N   UNL     1       3.091  15.217  21.409  0.00  0.00    +0.000 N 
ATOM     16  C   UNL     1       6.360  15.352  23.087  0.00  0.00    +0.000 C 
ATOM     17  C   UNL     1       7.107  14.032  22.826  0.00  0.00    +0.000 C 
ATOM     18  C   UNL     1       6.220  12.739  22.998  0.00  0.00    +0.000 C 
ATOM     19  N   UNL     1       6.477  12.882  24.459  0.00  0.00    +0.000 NA
ATOM     20  C   UNL     1       6.490  11.590  25.112  0.00  0.00    +0.000 C 
ATOM     21  C   UNL     1       7.822  13.414  24.076  0.00  0.00    +0.000 C 
ATOM     22  H   UNL     1       3.412  15.039  20.474  0.00  0.00    +0.000 HD
ENDROOT
BRANCH  15  23
ATOM     23  C   UNL     1       1.709  14.968  21.642  0.00  0.00    +0.000 A 
ATOM     24  C   UNL     1       0.802  15.940  22.079  0.00  0.00    +0.000 A 
ATOM     25  C   UNL     1      -0.527  15.623  22.384  0.00  0.00    +0.000 A 
ATOM     26  C   UNL     1      -0.982  14.327  22.217  0.00  0.00    +0.000 A 
ATOM     27  C   UNL     1      -0.100  13.361  21.735  0.00  0.00    +0.000 A 
ATOM     28  F   UNL     1      -0.537  12.106  21.564  0.00  0.00    +0.000 F 
ATOM     29  C   UNL     1       1.233  13.667  21.445  0.00  0.00    +0.000 A 
ENDBRANCH  15  23
BRANCH   1  31
ATOM     30  C   UNL     1      12.257  12.670  17.349  0.00  0.00    +0.000 C 
ATOM     31  O   UNL     1      11.546  11.720  18.136  0.00  0.00    +0.000 OA
ENDBRANCH   1  31
BRANCH  11  32
ATOM     32  C   UNL     1       6.191  17.260  20.435  0.00  0.00    +0.000 C 
BRANCH  32  33
ATOM     33  O   UNL     1       5.583  17.826  19.274  0.00  0.00    +0.000 OA
ATOM     34  H   UNL     1       4.618  17.799  19.403  0.00  0.00    +0.000 HD
ENDBRANCH  32  33
ENDBRANCH  11  32
TORSDOF 4
ENDMDL
