MODEL 1
REMARK VINA RESULT:      -8.6      0.000      0.000
REMARK  Name = 
REMARK  3 active torsions:
REMARK  status: ('A' for Active; 'I' for Inactive)
REMARK    1  A    between atoms: C_4  and  C_5
REMARK    2  A    between atoms: N_6  and  N_7
REMARK    3  A    between atoms: N_7  and  C_8
REMARK                            x       y       z     vdW  Elec       q    Type
REMARK                         _______ _______ _______ _____ _____    ______ ____
ROOT
ATOM      1  C   UNL     1       2.662   7.001  18.816  0.00  0.00    +0.000 C 
ATOM      2  N   UNL     1       2.857   5.928  19.509  0.00  0.00    +0.000 NA
ENDROOT
BRANCH   1   6
ATOM      3  O   UNL     1       0.524  11.237  18.389  0.00  0.00    +0.000 OA
ATOM      4  C   UNL     1       0.799  10.277  19.097  0.00  0.00    +0.000 A 
ATOM      5  C   UNL     1       1.585   9.154  18.562  0.00  0.00    +0.000 A 
ATOM      6  C   UNL     1       1.864   8.127  19.371  0.00  0.00    +0.000 A 
ATOM      7  O   UNL     1       1.433   8.011  20.684  0.00  0.00    +0.000 OA
ATOM      8  C   UNL     1       0.701   9.039  21.221  0.00  0.00    +0.000 A 
ATOM      9  C   UNL     1       0.295   8.914  22.551  0.00  0.00    +0.000 A 
ATOM     10  C   UNL     1      -0.427   9.946  23.156  0.00  0.00    +0.000 A 
ATOM     11  C   UNL     1      -0.745  11.099  22.434  0.00  0.00    +0.000 A 
ATOM     12  C   UNL     1      -0.351  11.219  21.101  0.00  0.00    +0.000 A 
ATOM     13  C   UNL     1       0.371  10.183  20.500  0.00  0.00    +0.000 A 
ENDBRANCH   1   6
BRANCH   2  14
ATOM     14  N   UNL     1       3.459   4.891  18.872  0.00  0.00    +0.000 N 
ATOM     15  H   UNL     1       3.028   4.508  18.030  0.00  0.00    +0.000 HD
BRANCH  14  16
ATOM     16  C   UNL     1       4.853   4.996  18.631  0.00  0.00    +0.000 A 
ATOM     17  N   UNL     1       5.617   5.260  19.721  0.00  0.00    +0.000 NA
ATOM     18  N   UNL     1       6.974   5.355  19.620  0.00  0.00    +0.000 NA
ATOM     19  C   UNL     1       7.556   5.178  18.420  0.00  0.00    +0.000 A 
ATOM     20  C   UNL     1       6.840   4.925  17.253  0.00  0.00    +0.000 A 
ATOM     21  C   UNL     1       7.493   4.739  16.017  0.00  0.00    +0.000 A 
ATOM     22  C   UNL     1       6.766   4.487  14.855  0.00  0.00    +0.000 A 
ATOM     23  C   UNL     1       5.382   4.446  14.907  0.00  0.00    +0.000 A 
ATOM     24  C   UNL     1       4.732   4.648  16.125  0.00  0.00    +0.000 A 
ATOM     25  C   UNL     1       5.438   4.856  17.341  0.00  0.00    +0.000 A 
ENDBRANCH  14  16
ENDBRANCH   2  14
TORSDOF 3
ENDMDL
MODEL 2
REMARK VINA RESULT:      -8.3      3.630      8.088
REMARK  Name = 
REMARK  3 active torsions:
REMARK  status: ('A' for Active; 'I' for Inactive)
REMARK    1  A    between atoms: C_4  and  C_5
REMARK    2  A    between atoms: N_6  and  N_7
REMARK    3  A    between atoms: N_7  and  C_8
REMARK                            x       y       z     vdW  Elec       q    Type
REMARK                         _______ _______ _______ _____ _____    ______ ____
ROOT
ATOM      1  C   UNL     1       2.577   8.309  17.874  0.00  0.00    +0.000 C 
ATOM      2  N   UNL     1       1.410   8.800  18.133  0.00  0.00    +0.000 NA
ENDROOT
BRANCH   1   6
ATOM      3  O   UNL     1       5.187   4.336  17.562  0.00  0.00    +0.000 OA
ATOM      4  C   UNL     1       4.299   4.955  18.132  0.00  0.00    +0.000 A 
ATOM      5  C   UNL     1       3.924   6.306  17.687  0.00  0.00    +0.000 A 
ATOM      6  C   UNL     1       2.946   6.945  18.338  0.00  0.00    +0.000 A 
ATOM      7  O   UNL     1       2.270   6.447  19.441  0.00  0.00    +0.000 OA
ATOM      8  C   UNL     1       2.587   5.188  19.885  0.00  0.00    +0.000 A 
ATOM      9  C   UNL     1       1.881   4.695  20.983  0.00  0.00    +0.000 A 
ATOM     10  C   UNL     1       2.142   3.407  21.456  0.00  0.00    +0.000 A 
ATOM     11  C   UNL     1       3.111   2.614  20.835  0.00  0.00    +0.000 A 
ATOM     12  C   UNL     1       3.826   3.110  19.745  0.00  0.00    +0.000 A 
ATOM     13  C   UNL     1       3.561   4.401  19.276  0.00  0.00    +0.000 A 
ENDBRANCH   1   6
BRANCH   2  14
ATOM     14  N   UNL     1       1.212  10.104  17.813  0.00  0.00    +0.000 N 
ATOM     15  H   UNL     1       1.150  10.370  16.830  0.00  0.00    +0.000 HD
BRANCH  14  16
ATOM     16  C   UNL     1       0.189  10.797  18.511  0.00  0.00    +0.000 A 
ATOM     17  N   UNL     1       0.602  11.537  19.571  0.00  0.00    +0.000 NA
ATOM     18  N   UNL     1      -0.285  12.271  20.303  0.00  0.00    +0.000 NA
ATOM     19  C   UNL     1      -1.585  12.259  19.958  0.00  0.00    +0.000 A 
ATOM     20  C   UNL     1      -2.090  11.511  18.898  0.00  0.00    +0.000 A 
ATOM     21  C   UNL     1      -3.460  11.535  18.569  0.00  0.00    +0.000 A 
ATOM     22  C   UNL     1      -3.953  10.781  17.505  0.00  0.00    +0.000 A 
ATOM     23  C   UNL     1      -3.093   9.974  16.779  0.00  0.00    +0.000 A 
ATOM     24  C   UNL     1      -1.739   9.934  17.114  0.00  0.00    +0.000 A 
ATOM     25  C   UNL     1      -1.187  10.727  18.157  0.00  0.00    +0.000 A 
ENDBRANCH  14  16
ENDBRANCH   2  14
TORSDOF 3
ENDMDL
MODEL 3
REMARK VINA RESULT:      -8.3      5.813      7.623
REMARK  Name = 
REMARK  3 active torsions:
REMARK  status: ('A' for Active; 'I' for Inactive)
REMARK    1  A    between atoms: C_4  and  C_5
REMARK    2  A    between atoms: N_6  and  N_7
REMARK    3  A    between atoms: N_7  and  C_8
REMARK                            x       y       z     vdW  Elec       q    Type
REMARK                         _______ _______ _______ _____ _____    ______ ____
ROOT
ATOM      1  C   UNL     1       8.679   8.757  18.814  0.00  0.00    +0.000 C 
ATOM      2  N   UNL     1       7.993   8.114  17.926  0.00  0.00    +0.000 NA
ENDROOT
BRANCH   1   6
ATOM      3  O   UNL     1       7.819  13.076  16.999  0.00  0.00    +0.000 OA
ATOM      4  C   UNL     1       8.551  12.353  17.662  0.00  0.00    +0.000 A 
ATOM      5  C   UNL     1       8.209  10.939  17.878  0.00  0.00    +0.000 A 
ATOM      6  C   UNL     1       9.038  10.185  18.606  0.00  0.00    +0.000 A 
ATOM      7  O   UNL     1      10.195  10.642  19.219  0.00  0.00    +0.000 OA
ATOM      8  C   UNL     1      10.552  11.954  19.038  0.00  0.00    +0.000 A 
ATOM      9  C   UNL     1      11.731  12.391  19.644  0.00  0.00    +0.000 A 
ATOM     10  C   UNL     1      12.156  13.709  19.465  0.00  0.00    +0.000 A 
ATOM     11  C   UNL     1      11.403  14.592  18.687  0.00  0.00    +0.000 A 
ATOM     12  C   UNL     1      10.218  14.159  18.091  0.00  0.00    +0.000 A 
ATOM     13  C   UNL     1       9.796  12.838  18.273  0.00  0.00    +0.000 A 
ENDBRANCH   1   6
BRANCH   2  14
ATOM     14  N   UNL     1       7.845   6.778  18.119  0.00  0.00    +0.000 N 
ATOM     15  H   UNL     1       7.649   6.431  19.058  0.00  0.00    +0.000 HD
BRANCH  14  16
ATOM     16  C   UNL     1       7.000   6.081  17.218  0.00  0.00    +0.000 A 
ATOM     17  N   UNL     1       7.381   6.110  15.917  0.00  0.00    +0.000 NA
ATOM     18  N   UNL     1       6.665   5.452  14.960  0.00  0.00    +0.000 NA
ATOM     19  C   UNL     1       5.569   4.761  15.323  0.00  0.00    +0.000 A 
ATOM     20  C   UNL     1       5.103   4.698  16.633  0.00  0.00    +0.000 A 
ATOM     21  C   UNL     1       3.953   3.955  16.968  0.00  0.00    +0.000 A 
ATOM     22  C   UNL     1       3.495   3.900  18.284  0.00  0.00    +0.000 A 
ATOM     23  C   UNL     1       4.160   4.608  19.271  0.00  0.00    +0.000 A 
ATOM     24  C   UNL     1       5.288   5.359  18.940  0.00  0.00    +0.000 A 
ATOM     25  C   UNL     1       5.817   5.400  17.621  0.00  0.00    +0.000 A 
ENDBRANCH  14  16
ENDBRANCH   2  14
TORSDOF 3
ENDMDL
MODEL 4
REMARK VINA RESULT:      -8.2      2.041      2.818
REMARK  Name = 
REMARK  3 active torsions:
REMARK  status: ('A' for Active; 'I' for Inactive)
REMARK    1  A    between atoms: C_4  and  C_5
REMARK    2  A    between atoms: N_6  and  N_7
REMARK    3  A    between atoms: N_7  and  C_8
REMARK                            x       y       z     vdW  Elec       q    Type
REMARK                         _______ _______ _______ _____ _____    ______ ____
ROOT
ATOM      1  C   UNL     1       2.089   8.234  17.955  0.00  0.00    +0.000 C 
ATOM      2  N   UNL     1       3.294   7.837  18.202  0.00  0.00    +0.000 NA
ENDROOT
BRANCH   1   6
ATOM      3  O   UNL     1       0.354  12.567  18.908  0.00  0.00    +0.000 OA
ATOM      4  C   UNL     1       0.548  11.418  19.283  0.00  0.00    +0.000 A 
ATOM      5  C   UNL     1       1.216  10.446  18.404  0.00  0.00    +0.000 A 
ATOM      6  C   UNL     1       1.410   9.203  18.855  0.00  0.00    +0.000 A 
ATOM      7  O   UNL     1       0.991   8.733  20.091  0.00  0.00    +0.000 OA
ATOM      8  C   UNL     1       0.368   9.610  20.943  0.00  0.00    +0.000 A 
ATOM      9  C   UNL     1      -0.028   9.125  22.190  0.00  0.00    +0.000 A 
ATOM     10  C   UNL     1      -0.638   9.984  23.108  0.00  0.00    +0.000 A 
ATOM     11  C   UNL     1      -0.858  11.323  22.778  0.00  0.00    +0.000 A 
ATOM     12  C   UNL     1      -0.475  11.806  21.526  0.00  0.00    +0.000 A 
ATOM     13  C   UNL     1       0.136  10.942  20.611  0.00  0.00    +0.000 A 
ENDBRANCH   1   6
BRANCH   2  14
ATOM     14  N   UNL     1       3.779   6.836  17.424  0.00  0.00    +0.000 N 
ATOM     15  H   UNL     1       4.513   7.045  16.748  0.00  0.00    +0.000 HD
BRANCH  14  16
ATOM     16  C   UNL     1       4.120   5.619  18.067  0.00  0.00    +0.000 A 
ATOM     17  N   UNL     1       5.410   5.514  18.475  0.00  0.00    +0.000 NA
ATOM     18  N   UNL     1       5.851   4.403  19.131  0.00  0.00    +0.000 NA
ATOM     19  C   UNL     1       4.986   3.402  19.377  0.00  0.00    +0.000 A 
ATOM     20  C   UNL     1       3.654   3.425  18.974  0.00  0.00    +0.000 A 
ATOM     21  C   UNL     1       2.781   2.355  19.261  0.00  0.00    +0.000 A 
ATOM     22  C   UNL     1       1.450   2.390  18.851  0.00  0.00    +0.000 A 
ATOM     23  C   UNL     1       0.982   3.474  18.127  0.00  0.00    +0.000 A 
ATOM     24  C   UNL     1       1.848   4.526  17.826  0.00  0.00    +0.000 A 
ATOM     25  C   UNL     1       3.198   4.554  18.270  0.00  0.00    +0.000 A 
ENDBRANCH  14  16
ENDBRANCH   2  14
TORSDOF 3
ENDMDL
MODEL 5
REMARK VINA RESULT:      -8.1      2.791      3.954
REMARK  Name = 
REMARK  3 active torsions:
REMARK  status: ('A' for Active; 'I' for Inactive)
REMARK    1  A    between atoms: C_4  and  C_5
REMARK    2  A    between atoms: N_6  and  N_7
REMARK    3  A    between atoms: N_7  and  C_8
REMARK                            x       y       z     vdW  Elec       q    Type
REMARK                         _______ _______ _______ _____ _____    ______ ____
ROOT
ATOM      1  C   UNL     1       1.404   9.430  18.670  0.00  0.00    +0.000 C 
ATOM      2  N   UNL     1       1.765   8.501  17.848  0.00  0.00    +0.000 NA
ENDROOT
BRANCH   1   6
ATOM      3  O   UNL     1      -2.089  12.180  20.382  0.00  0.00    +0.000 OA
ATOM      4  C   UNL     1      -1.678  11.461  19.481  0.00  0.00    +0.000 A 
ATOM      5  C   UNL     1      -0.349  10.836  19.570  0.00  0.00    +0.000 A 
ATOM      6  C   UNL     1       0.060  10.057  18.564  0.00  0.00    +0.000 A 
ATOM      7  O   UNL     1      -0.661   9.815  17.404  0.00  0.00    +0.000 OA
ATOM      8  C   UNL     1      -1.907  10.376  17.284  0.00  0.00    +0.000 A 
ATOM      9  C   UNL     1      -2.627  10.104  16.120  0.00  0.00    +0.000 A 
ATOM     10  C   UNL     1      -3.914  10.624  15.961  0.00  0.00    +0.000 A 
ATOM     11  C   UNL     1      -4.479  11.419  16.961  0.00  0.00    +0.000 A 
ATOM     12  C   UNL     1      -3.755  11.702  18.120  0.00  0.00    +0.000 A 
ATOM     13  C   UNL     1      -2.467  11.179  18.274  0.00  0.00    +0.000 A 
ENDBRANCH   1   6
BRANCH   2  14
ATOM     14  N   UNL     1       3.059   8.096  17.914  0.00  0.00    +0.000 N 
ATOM     15  H   UNL     1       3.704   8.593  18.529  0.00  0.00    +0.000 HD
BRANCH  14  16
ATOM     16  C   UNL     1       3.299   6.707  18.073  0.00  0.00    +0.000 A 
ATOM     17  N   UNL     1       2.663   6.119  19.116  0.00  0.00    +0.000 NA
ATOM     18  N   UNL     1       2.792   4.782  19.355  0.00  0.00    +0.000 NA
ATOM     19  C   UNL     1       3.560   4.042  18.534  0.00  0.00    +0.000 A 
ATOM     20  C   UNL     1       4.260   4.574  17.454  0.00  0.00    +0.000 A 
ATOM     21  C   UNL     1       5.048   3.759  16.616  0.00  0.00    +0.000 A 
ATOM     22  C   UNL     1       5.745   4.304  15.539  0.00  0.00    +0.000 A 
ATOM     23  C   UNL     1       5.688   5.668  15.304  0.00  0.00    +0.000 A 
ATOM     24  C   UNL     1       4.925   6.480  16.143  0.00  0.00    +0.000 A 
ATOM     25  C   UNL     1       4.158   5.957  17.220  0.00  0.00    +0.000 A 
ENDBRANCH  14  16
ENDBRANCH   2  14
TORSDOF 3
ENDMDL
MODEL 6
REMARK VINA RESULT:      -8.1      3.506      8.231
REMARK  Name = 
REMARK  3 active torsions:
REMARK  status: ('A' for Active; 'I' for Inactive)
REMARK    1  A    between atoms: C_4  and  C_5
REMARK    2  A    between atoms: N_6  and  N_7
REMARK    3  A    between atoms: N_7  and  C_8
REMARK                            x       y       z     vdW  Elec       q    Type
REMARK                         _______ _______ _______ _____ _____    ______ ____
ROOT
ATOM      1  C   UNL     1       2.762   8.038  17.681  0.00  0.00    +0.000 C 
ATOM      2  N   UNL     1       1.697   8.604  18.147  0.00  0.00    +0.000 NA
ENDROOT
BRANCH   1   6
ATOM      3  O   UNL     1       5.856   4.772  19.247  0.00  0.00    +0.000 OA
ATOM      4  C   UNL     1       4.723   5.033  18.865  0.00  0.00    +0.000 A 
ATOM      5  C   UNL     1       4.360   6.406  18.481  0.00  0.00    +0.000 A 
ATOM      6  C   UNL     1       3.112   6.646  18.068  0.00  0.00    +0.000 A 
ATOM      7  O   UNL     1       2.101   5.699  18.007  0.00  0.00    +0.000 OA
ATOM      8  C   UNL     1       2.399   4.405  18.352  0.00  0.00    +0.000 A 
ATOM      9  C   UNL     1       1.375   3.462  18.264  0.00  0.00    +0.000 A 
ATOM     10  C   UNL     1       1.634   2.124  18.574  0.00  0.00    +0.000 A 
ATOM     11  C   UNL     1       2.912   1.730  18.976  0.00  0.00    +0.000 A 
ATOM     12  C   UNL     1       3.934   2.675  19.077  0.00  0.00    +0.000 A 
ATOM     13  C   UNL     1       3.670   4.013  18.766  0.00  0.00    +0.000 A 
ENDBRANCH   1   6
BRANCH   2  14
ATOM     14  N   UNL     1       1.536   9.923  17.871  0.00  0.00    +0.000 N 
ATOM     15  H   UNL     1       1.457  10.221  16.898  0.00  0.00    +0.000 HD
BRANCH  14  16
ATOM     16  C   UNL     1       0.557  10.629  18.616  0.00  0.00    +0.000 A 
ATOM     17  N   UNL     1       1.020  11.308  19.695  0.00  0.00    +0.000 NA
ATOM     18  N   UNL     1       0.179  12.048  20.474  0.00  0.00    +0.000 NA
ATOM     19  C   UNL     1      -1.127  12.104  20.155  0.00  0.00    +0.000 A 
ATOM     20  C   UNL     1      -1.682  11.421  19.077  0.00  0.00    +0.000 A 
ATOM     21  C   UNL     1      -3.056  11.516  18.776  0.00  0.00    +0.000 A 
ATOM     22  C   UNL     1      -3.601  10.826  17.694  0.00  0.00    +0.000 A 
ATOM     23  C   UNL     1      -2.789  10.014  16.919  0.00  0.00    +0.000 A 
ATOM     24  C   UNL     1      -1.432   9.904  17.225  0.00  0.00    +0.000 A 
ATOM     25  C   UNL     1      -0.828  10.630  18.287  0.00  0.00    +0.000 A 
ENDBRANCH  14  16
ENDBRANCH   2  14
TORSDOF 3
ENDMDL
MODEL 7
REMARK VINA RESULT:      -8.0      3.128      4.784
REMARK  Name = 
REMARK  3 active torsions:
REMARK  status: ('A' for Active; 'I' for Inactive)
REMARK    1  A    between atoms: C_4  and  C_5
REMARK    2  A    between atoms: N_6  and  N_7
REMARK    3  A    between atoms: N_7  and  C_8
REMARK                            x       y       z     vdW  Elec       q    Type
REMARK                         _______ _______ _______ _____ _____    ______ ____
ROOT
ATOM      1  C   UNL     1       1.352   9.193  19.217  0.00  0.00    +0.000 C 
ATOM      2  N   UNL     1       1.388   8.200  20.044  0.00  0.00    +0.000 NA
ENDROOT
BRANCH   1   6
ATOM      3  O   UNL     1      -2.139  12.244  20.308  0.00  0.00    +0.000 OA
ATOM      4  C   UNL     1      -1.673  11.437  19.514  0.00  0.00    +0.000 A 
ATOM      5  C   UNL     1      -0.403  10.753  19.803  0.00  0.00    +0.000 A 
ATOM      6  C   UNL     1       0.069   9.877  18.910  0.00  0.00    +0.000 A 
ATOM      7  O   UNL     1      -0.530   9.584  17.694  0.00  0.00    +0.000 OA
ATOM      8  C   UNL     1      -1.718  10.197  17.389  0.00  0.00    +0.000 A 
ATOM      9  C   UNL     1      -2.317   9.873  16.171  0.00  0.00    +0.000 A 
ATOM     10  C   UNL     1      -3.544  10.446  15.826  0.00  0.00    +0.000 A 
ATOM     11  C   UNL     1      -4.169  11.345  16.693  0.00  0.00    +0.000 A 
ATOM     12  C   UNL     1      -3.565  11.679  17.906  0.00  0.00    +0.000 A 
ATOM     13  C   UNL     1      -2.337  11.103  18.247  0.00  0.00    +0.000 A 
ENDBRANCH   1   6
BRANCH   2  14
ATOM     14  N   UNL     1       2.566   7.534  20.147  0.00  0.00    +0.000 N 
ATOM     15  H   UNL     1       2.886   7.230  21.067  0.00  0.00    +0.000 HD
BRANCH  14  16
ATOM     16  C   UNL     1       2.791   6.465  19.241  0.00  0.00    +0.000 A 
ATOM     17  N   UNL     1       3.557   6.765  18.162  0.00  0.00    +0.000 NA
ATOM     18  N   UNL     1       3.868   5.814  17.235  0.00  0.00    +0.000 NA
ATOM     19  C   UNL     1       3.407   4.561  17.404  0.00  0.00    +0.000 A 
ATOM     20  C   UNL     1       2.600   4.179  18.472  0.00  0.00    +0.000 A 
ATOM     21  C   UNL     1       2.147   2.852  18.612  0.00  0.00    +0.000 A 
ATOM     22  C   UNL     1       1.339   2.482  19.686  0.00  0.00    +0.000 A 
ATOM     23  C   UNL     1       0.951   3.436  20.613  0.00  0.00    +0.000 A 
ATOM     24  C   UNL     1       1.383   4.754  20.467  0.00  0.00    +0.000 A 
ATOM     25  C   UNL     1       2.249   5.161  19.416  0.00  0.00    +0.000 A 
ENDBRANCH  14  16
ENDBRANCH   2  14
TORSDOF 3
ENDMDL
MODEL 8
REMARK VINA RESULT:      -8.0      2.073      3.367
REMARK  Name = 
REMARK  3 active torsions:
REMARK  status: ('A' for Active; 'I' for Inactive)
REMARK    1  A    between atoms: C_4  and  C_5
REMARK    2  A    between atoms: N_6  and  N_7
REMARK    3  A    between atoms: N_7  and  C_8
REMARK                            x       y       z     vdW  Elec       q    Type
REMARK                         _______ _______ _______ _____ _____    ______ ____
ROOT
ATOM      1  C   UNL     1       1.472   9.127  18.737  0.00  0.00    +0.000 C 
ATOM      2  N   UNL     1       2.179   8.052  18.864  0.00  0.00    +0.000 NA
ENDROOT
BRANCH   1   6
ATOM      3  O   UNL     1       0.727   9.519  23.426  0.00  0.00    +0.000 OA
ATOM      4  C   UNL     1       0.422   9.863  22.292  0.00  0.00    +0.000 A 
ATOM      5  C   UNL     1       1.122   9.302  21.126  0.00  0.00    +0.000 A 
ATOM      6  C   UNL     1       0.756   9.705  19.905  0.00  0.00    +0.000 A 
ATOM      7  O   UNL     1      -0.221  10.653  19.642  0.00  0.00    +0.000 OA
ATOM      8  C   UNL     1      -0.901  11.197  20.702  0.00  0.00    +0.000 A 
ATOM      9  C   UNL     1      -1.896  12.135  20.418  0.00  0.00    +0.000 A 
ATOM     10  C   UNL     1      -2.640  12.696  21.458  0.00  0.00    +0.000 A 
ATOM     11  C   UNL     1      -2.388  12.326  22.782  0.00  0.00    +0.000 A 
ATOM     12  C   UNL     1      -1.385  11.399  23.068  0.00  0.00    +0.000 A 
ATOM     13  C   UNL     1      -0.643  10.840  22.023  0.00  0.00    +0.000 A 
ENDBRANCH   1   6
BRANCH   2  14
ATOM     14  N   UNL     1       2.668   7.506  17.722  0.00  0.00    +0.000 N 
ATOM     15  H   UNL     1       3.056   8.118  17.004  0.00  0.00    +0.000 HD
BRANCH  14  16
ATOM     16  C   UNL     1       3.540   6.394  17.854  0.00  0.00    +0.000 A 
ATOM     17  N   UNL     1       4.865   6.685  17.844  0.00  0.00    +0.000 NA
ATOM     18  N   UNL     1       5.801   5.704  17.992  0.00  0.00    +0.000 NA
ATOM     19  C   UNL     1       5.394   4.431  18.156  0.00  0.00    +0.000 A 
ATOM     20  C   UNL     1       4.055   4.050  18.158  0.00  0.00    +0.000 A 
ATOM     21  C   UNL     1       3.675   2.704  18.340  0.00  0.00    +0.000 A 
ATOM     22  C   UNL     1       2.332   2.335  18.339  0.00  0.00    +0.000 A 
ATOM     23  C   UNL     1       1.356   3.295  18.127  0.00  0.00    +0.000 A 
ATOM     24  C   UNL     1       1.729   4.624  17.929  0.00  0.00    +0.000 A 
ATOM     25  C   UNL     1       3.085   5.051  17.974  0.00  0.00    +0.000 A 
ENDBRANCH  14  16
ENDBRANCH   2  14
TORSDOF 3
ENDMDL
MODEL 9
REMARK VINA RESULT:      -8.0      1.919      3.455
REMARK  Name = 
REMARK  3 active torsions:
REMARK  status: ('A' for Active; 'I' for Inactive)
REMARK    1  A    between atoms: C_4  and  C_5
REMARK    2  A    between atoms: N_6  and  N_7
REMARK    3  A    between atoms: N_7  and  C_8
REMARK                            x       y       z     vdW  Elec       q    Type
REMARK                         _______ _______ _______ _____ _____    ______ ____
ROOT
ATOM      1  C   UNL     1       1.860   7.618  21.165  0.00  0.00    +0.000 C 
ATOM      2  N   UNL     1       1.460   6.459  20.758  0.00  0.00    +0.000 NA
ENDROOT
BRANCH   1   6
ATOM      3  O   UNL     1      -0.564  11.177  23.202  0.00  0.00    +0.000 OA
ATOM      4  C   UNL     1      -0.248  10.586  22.178  0.00  0.00    +0.000 A 
ATOM      5  C   UNL     1       0.644   9.417  22.233  0.00  0.00    +0.000 A 
ATOM      6  C   UNL     1       0.960   8.799  21.091  0.00  0.00    +0.000 A 
ATOM      7  O   UNL     1       0.543   9.200  19.831  0.00  0.00    +0.000 OA
ATOM      8  C   UNL     1      -0.293  10.283  19.736  0.00  0.00    +0.000 A 
ATOM      9  C   UNL     1      -0.720  10.658  18.461  0.00  0.00    +0.000 A 
ATOM     10  C   UNL     1      -1.597  11.735  18.311  0.00  0.00    +0.000 A 
ATOM     11  C   UNL     1      -2.044  12.439  19.432  0.00  0.00    +0.000 A 
ATOM     12  C   UNL     1      -1.607  12.073  20.706  0.00  0.00    +0.000 A 
ATOM     13  C   UNL     1      -0.729  10.995  20.851  0.00  0.00    +0.000 A 
ENDBRANCH   1   6
BRANCH   2  14
ATOM     14  N   UNL     1       2.392   5.473  20.713  0.00  0.00    +0.000 N 
ATOM     15  H   UNL     1       2.425   4.785  21.466  0.00  0.00    +0.000 HD
BRANCH  14  16
ATOM     16  C   UNL     1       2.541   4.773  19.487  0.00  0.00    +0.000 A 
ATOM     17  N   UNL     1       1.427   4.148  19.032  0.00  0.00    +0.000 NA
ATOM     18  N   UNL     1       1.438   3.467  17.850  0.00  0.00    +0.000 NA
ATOM     19  C   UNL     1       2.574   3.425  17.129  0.00  0.00    +0.000 A 
ATOM     20  C   UNL     1       3.762   4.025  17.537  0.00  0.00    +0.000 A 
ATOM     21  C   UNL     1       4.927   3.961  16.745  0.00  0.00    +0.000 A 
ATOM     22  C   UNL     1       6.111   4.564  17.166  0.00  0.00    +0.000 A 
ATOM     23  C   UNL     1       6.155   5.210  18.391  0.00  0.00    +0.000 A 
ATOM     24  C   UNL     1       5.009   5.259  19.185  0.00  0.00    +0.000 A 
ATOM     25  C   UNL     1       3.768   4.702  18.770  0.00  0.00    +0.000 A 
ENDBRANCH  14  16
ENDBRANCH   2  14
TORSDOF 3
ENDMDL
