MODEL 1
REMARK VINA RESULT:      -6.4      0.000      0.000
REMARK  Name = 
REMARK  2 active torsions:
REMARK  status: ('A' for Active; 'I' for Inactive)
REMARK    1  A    between atoms: C_7  and  C_8
REMARK    2  A    between atoms: N_10  and  C_11
REMARK                            x       y       z     vdW  Elec       q    Type
REMARK                         _______ _______ _______ _____ _____    ______ ____
ROOT
ATOM      1  C   UNL     1       3.049   6.908  18.213  0.00  0.00    +0.000 C 
ATOM      2  O   UNL     1       2.183   6.093  18.531  0.00  0.00    +0.000 OA
ATOM      3  N   UNL     1       2.844   8.274  18.186  0.00  0.00    +0.000 N 
ATOM      4  H   UNL     1       3.354   8.783  17.469  0.00  0.00    +0.000 HD
ENDROOT
BRANCH   1  11
ATOM      5  O   UNL     1       6.535   5.333  19.896  0.00  0.00    +0.000 OA
ATOM      6  C   UNL     1       6.180   5.025  18.765  0.00  0.00    +0.000 C 
ATOM      7  C   UNL     1       7.165   4.670  17.669  0.00  0.00    +0.000 C 
ATOM      8  C   UNL     1       7.213   5.749  16.593  0.00  0.00    +0.000 C 
ATOM      9  S   UNL     1       5.823   5.571  15.432  0.00  0.00    +0.000 S 
ATOM     10  C   UNL     1       4.511   6.487  16.318  0.00  0.00    +0.000 C 
ATOM     11  C   UNL     1       4.460   6.414  17.861  0.00  0.00    +0.000 C 
ATOM     12  N   UNL     1       4.853   5.093  18.368  0.00  0.00    +0.000 N 
ATOM     13  H   UNL     1       4.615   4.372  17.694  0.00  0.00    +0.000 HD
ENDBRANCH   1  11
BRANCH   3  14
ATOM     14  C   UNL     1       1.661   8.831  18.722  0.00  0.00    +0.000 A 
ATOM     15  C   UNL     1       0.704   9.430  17.884  0.00  0.00    +0.000 A 
ATOM     16  C   UNL     1      -0.441  10.009  18.432  0.00  0.00    +0.000 A 
ATOM     17 BR   UNL     1      -1.732  10.784  17.288  0.00  0.00    +0.000 Br
ATOM     18  C   UNL     1      -0.637  10.024  19.810  0.00  0.00    +0.000 A 
ATOM     19  C   UNL     1       0.314   9.416  20.631  0.00  0.00    +0.000 A 
ATOM     20  I   UNL     1       0.070   9.517  22.700  0.00  0.00    +0.000 I 
ATOM     21  C   UNL     1       1.440   8.785  20.097  0.00  0.00    +0.000 A 
ENDBRANCH   3  14
TORSDOF 2
ENDMDL
MODEL 2
REMARK VINA RESULT:      -6.4      2.472      2.921
REMARK  Name = 
REMARK  2 active torsions:
REMARK  status: ('A' for Active; 'I' for Inactive)
REMARK    1  A    between atoms: C_7  and  C_8
REMARK    2  A    between atoms: N_10  and  C_11
REMARK                            x       y       z     vdW  Elec       q    Type
REMARK                         _______ _______ _______ _____ _____    ______ ____
ROOT
ATOM      1  C   UNL     1       2.755   6.812  18.428  0.00  0.00    +0.000 C 
ATOM      2  O   UNL     1       1.920   6.087  18.972  0.00  0.00    +0.000 OA
ATOM      3  N   UNL     1       2.593   8.172  18.254  0.00  0.00    +0.000 N 
ATOM      4  H   UNL     1       3.005   8.561  17.411  0.00  0.00    +0.000 HD
ENDROOT
BRANCH   1  11
ATOM      5  O   UNL     1       5.238   6.497  15.082  0.00  0.00    +0.000 OA
ATOM      6  C   UNL     1       5.699   6.517  16.216  0.00  0.00    +0.000 C 
ATOM      7  C   UNL     1       6.976   5.791  16.590  0.00  0.00    +0.000 C 
ATOM      8  C   UNL     1       6.694   4.594  17.491  0.00  0.00    +0.000 C 
ATOM      9  S   UNL     1       6.461   5.122  19.217  0.00  0.00    +0.000 S 
ATOM     10  C   UNL     1       4.686   5.560  19.211  0.00  0.00    +0.000 C 
ATOM     11  C   UNL     1       4.080   6.205  17.944  0.00  0.00    +0.000 C 
ATOM     12  N   UNL     1       5.025   7.108  17.273  0.00  0.00    +0.000 N 
ATOM     13  H   UNL     1       5.657   7.522  17.950  0.00  0.00    +0.000 HD
ENDBRANCH   1  11
BRANCH   3  14
ATOM     14  C   UNL     1       1.521   8.851  18.879  0.00  0.00    +0.000 A 
ATOM     15  C   UNL     1       1.377   8.835  20.277  0.00  0.00    +0.000 A 
ATOM     16  C   UNL     1       0.293   9.478  20.876  0.00  0.00    +0.000 A 
ATOM     17 BR   UNL     1       0.130   9.470  22.760  0.00  0.00    +0.000 Br
ATOM     18  C   UNL     1      -0.667  10.118  20.099  0.00  0.00    +0.000 A 
ATOM     19  C   UNL     1      -0.507  10.137  18.713  0.00  0.00    +0.000 A 
ATOM     20  I   UNL     1      -1.991  11.017  17.539  0.00  0.00    +0.000 I 
ATOM     21  C   UNL     1       0.599   9.546  18.100  0.00  0.00    +0.000 A 
ENDBRANCH   3  14
TORSDOF 2
ENDMDL
MODEL 3
REMARK VINA RESULT:      -6.3      1.898      2.196
REMARK  Name = 
REMARK  2 active torsions:
REMARK  status: ('A' for Active; 'I' for Inactive)
REMARK    1  A    between atoms: C_7  and  C_8
REMARK    2  A    between atoms: N_10  and  C_11
REMARK                            x       y       z     vdW  Elec       q    Type
REMARK                         _______ _______ _______ _____ _____    ______ ____
ROOT
ATOM      1  C   UNL     1       3.075   6.931  18.303  0.00  0.00    +0.000 C 
ATOM      2  O   UNL     1       2.234   6.131  18.715  0.00  0.00    +0.000 OA
ATOM      3  N   UNL     1       2.858   8.292  18.211  0.00  0.00    +0.000 N 
ATOM      4  H   UNL     1       3.323   8.762  17.439  0.00  0.00    +0.000 HD
ENDROOT
BRANCH   1  11
ATOM      5  O   UNL     1       6.594   5.300  19.859  0.00  0.00    +0.000 OA
ATOM      6  C   UNL     1       6.199   5.007  18.737  0.00  0.00    +0.000 C 
ATOM      7  C   UNL     1       7.144   4.651  17.607  0.00  0.00    +0.000 C 
ATOM      8  C   UNL     1       7.171   5.739  16.540  0.00  0.00    +0.000 C 
ATOM      9  S   UNL     1       5.742   5.589  15.423  0.00  0.00    +0.000 S 
ATOM     10  C   UNL     1       4.470   6.511  16.358  0.00  0.00    +0.000 C 
ATOM     11  C   UNL     1       4.467   6.424  17.901  0.00  0.00    +0.000 C 
ATOM     12  N   UNL     1       4.861   5.094  18.384  0.00  0.00    +0.000 N 
ATOM     13  H   UNL     1       4.593   4.382  17.711  0.00  0.00    +0.000 HD
ENDBRANCH   1  11
BRANCH   3  14
ATOM     14  C   UNL     1       1.702   8.874  18.780  0.00  0.00    +0.000 A 
ATOM     15  C   UNL     1       1.517   8.892  20.173  0.00  0.00    +0.000 A 
ATOM     16  C   UNL     1       0.353   9.435  20.717  0.00  0.00    +0.000 A 
ATOM     17 BR   UNL     1       0.135   9.477  22.596  0.00  0.00    +0.000 Br
ATOM     18  C   UNL     1      -0.646   9.941  19.891  0.00  0.00    +0.000 A 
ATOM     19  C   UNL     1      -0.446   9.928  18.510  0.00  0.00    +0.000 A 
ATOM     20  I   UNL     1      -1.979  10.600  17.264  0.00  0.00    +0.000 I 
ATOM     21  C   UNL     1       0.736   9.437  17.950  0.00  0.00    +0.000 A 
ENDBRANCH   3  14
TORSDOF 2
ENDMDL
MODEL 4
REMARK VINA RESULT:      -6.3      1.631      1.922
REMARK  Name = 
REMARK  2 active torsions:
REMARK  status: ('A' for Active; 'I' for Inactive)
REMARK    1  A    between atoms: C_7  and  C_8
REMARK    2  A    between atoms: N_10  and  C_11
REMARK                            x       y       z     vdW  Elec       q    Type
REMARK                         _______ _______ _______ _____ _____    ______ ____
ROOT
ATOM      1  C   UNL     1       2.697   6.816  18.203  0.00  0.00    +0.000 C 
ATOM      2  O   UNL     1       1.765   6.070  18.508  0.00  0.00    +0.000 OA
ATOM      3  N   UNL     1       2.613   8.194  18.220  0.00  0.00    +0.000 N 
ATOM      4  H   UNL     1       3.158   8.678  17.512  0.00  0.00    +0.000 HD
ENDROOT
BRANCH   1  11
ATOM      5  O   UNL     1       5.402   6.464  15.037  0.00  0.00    +0.000 OA
ATOM      6  C   UNL     1       5.786   6.504  16.199  0.00  0.00    +0.000 C 
ATOM      7  C   UNL     1       7.038   5.792  16.671  0.00  0.00    +0.000 C 
ATOM      8  C   UNL     1       6.701   4.609  17.570  0.00  0.00    +0.000 C 
ATOM      9  S   UNL     1       6.350   5.162  19.268  0.00  0.00    +0.000 S 
ATOM     10  C   UNL     1       4.577   5.590  19.134  0.00  0.00    +0.000 C 
ATOM     11  C   UNL     1       4.055   6.210  17.819  0.00  0.00    +0.000 C 
ATOM     12  N   UNL     1       5.038   7.108  17.199  0.00  0.00    +0.000 N 
ATOM     13  H   UNL     1       5.621   7.537  17.911  0.00  0.00    +0.000 HD
ENDBRANCH   1  11
BRANCH   3  14
ATOM     14  C   UNL     1       1.488   8.836  18.787  0.00  0.00    +0.000 A 
ATOM     15  C   UNL     1       0.576   9.538  17.979  0.00  0.00    +0.000 A 
ATOM     16  C   UNL     1      -0.508  10.197  18.558  0.00  0.00    +0.000 A 
ATOM     17 BR   UNL     1      -1.740  11.112  17.452  0.00  0.00    +0.000 Br
ATOM     18  C   UNL     1      -0.686  10.191  19.938  0.00  0.00    +0.000 A 
ATOM     19  C   UNL     1       0.219   9.482  20.729  0.00  0.00    +0.000 A 
ATOM     20  I   UNL     1       0.009   9.545  22.804  0.00  0.00    +0.000 I 
ATOM     21  C   UNL     1       1.280   8.771  20.163  0.00  0.00    +0.000 A 
ENDBRANCH   3  14
TORSDOF 2
ENDMDL
MODEL 5
REMARK VINA RESULT:      -6.2      2.524      2.858
REMARK  Name = 
REMARK  2 active torsions:
REMARK  status: ('A' for Active; 'I' for Inactive)
REMARK    1  A    between atoms: C_7  and  C_8
REMARK    2  A    between atoms: N_10  and  C_11
REMARK                            x       y       z     vdW  Elec       q    Type
REMARK                         _______ _______ _______ _____ _____    ______ ____
ROOT
ATOM      1  C   UNL     1       2.470   7.721  18.439  0.00  0.00    +0.000 C 
ATOM      2  O   UNL     1       2.199   7.755  19.640  0.00  0.00    +0.000 OA
ATOM      3  N   UNL     1       2.032   8.661  17.526  0.00  0.00    +0.000 N 
ATOM      4  H   UNL     1       1.844   8.313  16.590  0.00  0.00    +0.000 HD
ENDROOT
BRANCH   1  11
ATOM      5  O   UNL     1       5.098   6.787  15.326  0.00  0.00    +0.000 OA
ATOM      6  C   UNL     1       5.256   6.329  16.451  0.00  0.00    +0.000 C 
ATOM      7  C   UNL     1       5.885   4.972  16.698  0.00  0.00    +0.000 C 
ATOM      8  C   UNL     1       4.857   3.967  17.206  0.00  0.00    +0.000 C 
ATOM      9  S   UNL     1       4.565   4.182  18.989  0.00  0.00    +0.000 S 
ATOM     10  C   UNL     1       3.297   5.500  18.978  0.00  0.00    +0.000 C 
ATOM     11  C   UNL     1       3.379   6.606  17.901  0.00  0.00    +0.000 C 
ATOM     12  N   UNL     1       4.765   6.968  17.579  0.00  0.00    +0.000 N 
ATOM     13  H   UNL     1       5.362   6.831  18.389  0.00  0.00    +0.000 HD
ENDBRANCH   1  11
BRANCH   3  14
ATOM     14  C   UNL     1       1.397   9.844  17.967  0.00  0.00    +0.000 A 
ATOM     15  C   UNL     1      -0.004   9.919  18.053  0.00  0.00    +0.000 A 
ATOM     16  C   UNL     1      -0.617  11.107  18.453  0.00  0.00    +0.000 A 
ATOM     17 BR   UNL     1      -2.502  11.181  18.592  0.00  0.00    +0.000 Br
ATOM     18  C   UNL     1       0.145  12.234  18.746  0.00  0.00    +0.000 A 
ATOM     19  C   UNL     1       1.535  12.144  18.667  0.00  0.00    +0.000 A 
ATOM     20  I   UNL     1       2.677  13.855  19.015  0.00  0.00    +0.000 I 
ATOM     21  C   UNL     1       2.169  10.948  18.321  0.00  0.00    +0.000 A 
ENDBRANCH   3  14
TORSDOF 2
ENDMDL
MODEL 6
REMARK VINA RESULT:      -6.2      4.294      7.326
REMARK  Name = 
REMARK  2 active torsions:
REMARK  status: ('A' for Active; 'I' for Inactive)
REMARK    1  A    between atoms: C_7  and  C_8
REMARK    2  A    between atoms: N_10  and  C_11
REMARK                            x       y       z     vdW  Elec       q    Type
REMARK                         _______ _______ _______ _____ _____    ______ ____
ROOT
ATOM      1  C   UNL     1       1.563   8.897  18.846  0.00  0.00    +0.000 C 
ATOM      2  O   UNL     1       1.731   8.443  19.979  0.00  0.00    +0.000 OA
ATOM      3  N   UNL     1       2.159   8.377  17.715  0.00  0.00    +0.000 N 
ATOM      4  H   UNL     1       2.398   9.050  16.992  0.00  0.00    +0.000 HD
ENDROOT
BRANCH   1  11
ATOM      5  O   UNL     1      -2.363   9.862  17.787  0.00  0.00    +0.000 OA
ATOM      6  C   UNL     1      -1.733  10.547  18.583  0.00  0.00    +0.000 C 
ATOM      7  C   UNL     1      -1.952  12.040  18.726  0.00  0.00    +0.000 C 
ATOM      8  C   UNL     1      -0.763  12.831  18.194  0.00  0.00    +0.000 C 
ATOM      9  S   UNL     1       0.581  12.887  19.420  0.00  0.00    +0.000 S 
ATOM     10  C   UNL     1       1.444  11.315  19.063  0.00  0.00    +0.000 C 
ATOM     11  C   UNL     1       0.610  10.084  18.642  0.00  0.00    +0.000 C 
ATOM     12  N   UNL     1      -0.687  10.028  19.330  0.00  0.00    +0.000 N 
ATOM     13  H   UNL     1      -0.617  10.460  20.247  0.00  0.00    +0.000 HD
ENDBRANCH   1  11
BRANCH   3  14
ATOM     14  C   UNL     1       2.856   7.148  17.773  0.00  0.00    +0.000 A 
ATOM     15  C   UNL     1       2.165   5.939  17.965  0.00  0.00    +0.000 A 
ATOM     16  C   UNL     1       2.870   4.738  18.058  0.00  0.00    +0.000 A 
ATOM     17 BR   UNL     1       1.923   3.117  18.289  0.00  0.00    +0.000 Br
ATOM     18  C   UNL     1       4.260   4.726  17.988  0.00  0.00    +0.000 A 
ATOM     19  C   UNL     1       4.933   5.931  17.785  0.00  0.00    +0.000 A 
ATOM     20  I   UNL     1       7.019   5.929  17.770  0.00  0.00    +0.000 I 
ATOM     21  C   UNL     1       4.242   7.135  17.636  0.00  0.00    +0.000 A 
ENDBRANCH   3  14
TORSDOF 2
ENDMDL
MODEL 7
REMARK VINA RESULT:      -6.2      4.312      7.244
REMARK  Name = 
REMARK  2 active torsions:
REMARK  status: ('A' for Active; 'I' for Inactive)
REMARK    1  A    between atoms: C_7  and  C_8
REMARK    2  A    between atoms: N_10  and  C_11
REMARK                            x       y       z     vdW  Elec       q    Type
REMARK                         _______ _______ _______ _____ _____    ______ ____
ROOT
ATOM      1  C   UNL     1       1.470   8.623  19.867  0.00  0.00    +0.000 C 
ATOM      2  O   UNL     1       1.835   7.926  20.816  0.00  0.00    +0.000 OA
ATOM      3  N   UNL     1       1.890   8.428  18.566  0.00  0.00    +0.000 N 
ATOM      4  H   UNL     1       1.985   9.269  18.003  0.00  0.00    +0.000 HD
ENDROOT
BRANCH   1  11
ATOM      5  O   UNL     1      -0.249  10.966  22.871  0.00  0.00    +0.000 OA
ATOM      6  C   UNL     1      -0.068  11.409  21.744  0.00  0.00    +0.000 C 
ATOM      7  C   UNL     1      -0.972  12.457  21.124  0.00  0.00    +0.000 C 
ATOM      8  C   UNL     1      -1.806  11.872  19.990  0.00  0.00    +0.000 C 
ATOM      9  S   UNL     1      -0.834  11.770  18.455  0.00  0.00    +0.000 S 
ATOM     10  C   UNL     1       0.012  10.166  18.685  0.00  0.00    +0.000 C 
ATOM     11  C   UNL     1       0.458   9.753  20.106  0.00  0.00    +0.000 C 
ATOM     12  N   UNL     1       0.910  10.901  20.903  0.00  0.00    +0.000 N 
ATOM     13  H   UNL     1       1.308  11.613  20.299  0.00  0.00    +0.000 HD
ENDBRANCH   1  11
BRANCH   3  14
ATOM     14  C   UNL     1       2.626   7.273  18.217  0.00  0.00    +0.000 A 
ATOM     15  C   UNL     1       2.024   6.003  18.237  0.00  0.00    +0.000 A 
ATOM     16  C   UNL     1       2.774   4.868  17.926  0.00  0.00    +0.000 A 
ATOM     17 BR   UNL     1       1.940   3.171  17.930  0.00  0.00    +0.000 Br
ATOM     18  C   UNL     1       4.127   4.976  17.618  0.00  0.00    +0.000 A 
ATOM     19  C   UNL     1       4.711   6.243  17.591  0.00  0.00    +0.000 A 
ATOM     20  I   UNL     1       6.758   6.400  17.221  0.00  0.00    +0.000 I 
ATOM     21  C   UNL     1       3.964   7.395  17.846  0.00  0.00    +0.000 A 
ENDBRANCH   3  14
TORSDOF 2
ENDMDL
MODEL 8
REMARK VINA RESULT:      -6.1      4.474      7.070
REMARK  Name = 
REMARK  2 active torsions:
REMARK  status: ('A' for Active; 'I' for Inactive)
REMARK    1  A    between atoms: C_7  and  C_8
REMARK    2  A    between atoms: N_10  and  C_11
REMARK                            x       y       z     vdW  Elec       q    Type
REMARK                         _______ _______ _______ _____ _____    ______ ____
ROOT
ATOM      1  C   UNL     1       1.597   8.902  18.533  0.00  0.00    +0.000 C 
ATOM      2  O   UNL     1       1.266   8.727  17.360  0.00  0.00    +0.000 OA
ATOM      3  N   UNL     1       2.222   7.943  19.306  0.00  0.00    +0.000 N 
ATOM      4  H   UNL     1       1.989   7.952  20.295  0.00  0.00    +0.000 HD
ENDROOT
BRANCH   1  11
ATOM      5  O   UNL     1       2.719  12.924  18.357  0.00  0.00    +0.000 OA
ATOM      6  C   UNL     1       1.591  12.594  18.699  0.00  0.00    +0.000 C 
ATOM      7  C   UNL     1       0.768  13.400  19.684  0.00  0.00    +0.000 C 
ATOM      8  C   UNL     1       0.617  12.670  21.014  0.00  0.00    +0.000 C 
ATOM      9  S   UNL     1      -0.692  11.410  20.917  0.00  0.00    +0.000 S 
ATOM     10  C   UNL     1       0.236   9.995  20.224  0.00  0.00    +0.000 C 
ATOM     11  C   UNL     1       1.352  10.268  19.191  0.00  0.00    +0.000 C 
ATOM     12  N   UNL     1       1.026  11.391  18.303  0.00  0.00    +0.000 N 
ATOM     13  H   UNL     1       0.021  11.461  18.178  0.00  0.00    +0.000 HD
ENDBRANCH   1  11
BRANCH   3  14
ATOM     14  C   UNL     1       2.700   6.750  18.717  0.00  0.00    +0.000 A 
ATOM     15  C   UNL     1       3.752   6.779  17.784  0.00  0.00    +0.000 A 
ATOM     16  C   UNL     1       4.187   5.597  17.184  0.00  0.00    +0.000 A 
ATOM     17 BR   UNL     1       5.622   5.652  15.953  0.00  0.00    +0.000 Br
ATOM     18  C   UNL     1       3.572   4.385  17.480  0.00  0.00    +0.000 A 
ATOM     19  C   UNL     1       2.537   4.367  18.416  0.00  0.00    +0.000 A 
ATOM     20  I   UNL     1       1.553   2.567  18.795  0.00  0.00    +0.000 I 
ATOM     21  C   UNL     1       2.124   5.531  19.067  0.00  0.00    +0.000 A 
ENDBRANCH   3  14
TORSDOF 2
ENDMDL
MODEL 9
REMARK VINA RESULT:      -6.1      2.793      3.351
REMARK  Name = 
REMARK  2 active torsions:
REMARK  status: ('A' for Active; 'I' for Inactive)
REMARK    1  A    between atoms: C_7  and  C_8
REMARK    2  A    between atoms: N_10  and  C_11
REMARK                            x       y       z     vdW  Elec       q    Type
REMARK                         _______ _______ _______ _____ _____    ______ ____
ROOT
ATOM      1  C   UNL     1       2.248   8.439  18.263  0.00  0.00    +0.000 C 
ATOM      2  O   UNL     1       2.434   8.909  17.140  0.00  0.00    +0.000 OA
ATOM      3  N   UNL     1       1.443   9.028  19.218  0.00  0.00    +0.000 N 
ATOM      4  H   UNL     1       1.740   8.906  20.182  0.00  0.00    +0.000 HD
ENDROOT
BRANCH   1  11
ATOM      5  O   UNL     1       1.950   5.228  20.921  0.00  0.00    +0.000 OA
ATOM      6  C   UNL     1       2.363   5.071  19.779  0.00  0.00    +0.000 C 
ATOM      7  C   UNL     1       3.383   4.009  19.419  0.00  0.00    +0.000 C 
ATOM      8  C   UNL     1       4.729   4.628  19.060  0.00  0.00    +0.000 C 
ATOM      9  S   UNL     1       4.726   5.240  17.346  0.00  0.00    +0.000 S 
ATOM     10  C   UNL     1       4.000   6.903  17.571  0.00  0.00    +0.000 C 
ATOM     11  C   UNL     1       2.900   7.100  18.639  0.00  0.00    +0.000 C 
ATOM     12  N   UNL     1       2.016   5.932  18.749  0.00  0.00    +0.000 N 
ATOM     13  H   UNL     1       1.950   5.455  17.855  0.00  0.00    +0.000 HD
ENDBRANCH   1  11
BRANCH   3  14
ATOM     14  C   UNL     1       0.619  10.126  18.881  0.00  0.00    +0.000 A 
ATOM     15  C   UNL     1       1.035  11.444  19.140  0.00  0.00    +0.000 A 
ATOM     16  C   UNL     1       0.194  12.515  18.837  0.00  0.00    +0.000 A 
ATOM     17 BR   UNL     1       0.781  14.283  19.166  0.00  0.00    +0.000 Br
ATOM     18  C   UNL     1      -1.070  12.293  18.300  0.00  0.00    +0.000 A 
ATOM     19  C   UNL     1      -1.467  10.981  18.036  0.00  0.00    +0.000 A 
ATOM     20  I   UNL     1      -3.395  10.637  17.317  0.00  0.00    +0.000 I 
ATOM     21  C   UNL     1      -0.618   9.900  18.283  0.00  0.00    +0.000 A 
ENDBRANCH   3  14
TORSDOF 2
ENDMDL
