MODEL 1
REMARK VINA RESULT:      -6.7      0.000      0.000
REMARK  Name = 
REMARK  7 active torsions:
REMARK  status: ('A' for Active; 'I' for Inactive)
REMARK    1  A    between atoms: C_1  and  C_2
REMARK    2  A    between atoms: C_2  and  N_3
REMARK    3  A    between atoms: C_4  and  C_5
REMARK    4  A    between atoms: C_7  and  C_8
REMARK    5  A    between atoms: N_10  and  C_11
REMARK    6  A    between atoms: C_16  and  O_17
REMARK    7  A    between atoms: C_18  and  C_19
REMARK                            x       y       z     vdW  Elec       q    Type
REMARK                         _______ _______ _______ _____ _____    ______ ____
ROOT
ATOM      1  C   UNL     1       2.541   6.540  19.352  0.00  0.00    +0.000 C 
ATOM      2  O   UNL     1       3.461   6.680  18.542  0.00  0.00    +0.000 OA
ATOM      3  N   UNL     1       2.035   5.306  19.722  0.00  0.00    +0.000 N 
ATOM      4  H   UNL     1       1.040   5.264  19.880  0.00  0.00    +0.000 HD
ENDROOT
BRANCH   1   9
ATOM      5  N   UNL     1       0.863   9.729  20.089  0.00  0.00    +0.000 N 
ATOM      6  C   UNL     1       0.757   9.143  21.333  0.00  0.00    +0.000 A 
ATOM      7  C   UNL     1       0.130   9.785  22.523  0.00  0.00    +0.000 C 
ATOM      8  C   UNL     1       1.336   7.886  21.241  0.00  0.00    +0.000 A 
ATOM      9  C   UNL     1       1.836   7.700  19.917  0.00  0.00    +0.000 A 
ATOM     10  C   UNL     1       1.541   8.881  19.230  0.00  0.00    +0.000 A 
ATOM     11  C   UNL     1       1.841   9.275  17.817  0.00  0.00    +0.000 C 
BRANCH   5  13
ATOM     12  C   UNL     1      -1.122  10.947  19.223  0.00  0.00    +0.000 C 
ATOM     13  C   UNL     1       0.319  11.024  19.702  0.00  0.00    +0.000 C 
ENDBRANCH   5  13
ENDBRANCH   1   9
BRANCH   3  14
ATOM     14  C   UNL     1       2.582   4.130  19.188  0.00  0.00    +0.000 A 
ATOM     15  N   UNL     1       3.631   3.621  19.871  0.00  0.00    +0.000 NA
ATOM     16  C   UNL     1       4.047   2.387  19.504  0.00  0.00    +0.000 A 
ATOM     17  C   UNL     1       3.496   1.652  18.463  0.00  0.00    +0.000 A 
ATOM     18  C   UNL     1       2.479   2.233  17.713  0.00  0.00    +0.000 A 
ATOM     19  C   UNL     1       2.031   3.498  18.066  0.00  0.00    +0.000 A 
BRANCH  19  20
ATOM     20  O   UNL     1       1.108   4.130  17.277  0.00  0.00    +0.000 OA
ATOM     21  H   UNL     1       1.004   5.040  17.599  0.00  0.00    +0.000 HD
ENDBRANCH  19  20
ENDBRANCH   3  14
TORSDOF 4
ENDMDL
MODEL 2
REMARK VINA RESULT:      -6.6      4.419      6.114
REMARK  Name = 
REMARK  7 active torsions:
REMARK  status: ('A' for Active; 'I' for Inactive)
REMARK    1  A    between atoms: C_1  and  C_2
REMARK    2  A    between atoms: C_2  and  N_3
REMARK    3  A    between atoms: C_4  and  C_5
REMARK    4  A    between atoms: C_7  and  C_8
REMARK    5  A    between atoms: N_10  and  C_11
REMARK    6  A    between atoms: C_16  and  O_17
REMARK    7  A    between atoms: C_18  and  C_19
REMARK                            x       y       z     vdW  Elec       q    Type
REMARK                         _______ _______ _______ _____ _____    ______ ____
ROOT
ATOM      1  C   UNL     1       5.085   4.284  16.670  0.00  0.00    +0.000 C 
ATOM      2  O   UNL     1       6.135   3.732  17.011  0.00  0.00    +0.000 OA
ATOM      3  N   UNL     1       4.826   4.690  15.372  0.00  0.00    +0.000 N 
ATOM      4  H   UNL     1       4.312   5.551  15.271  0.00  0.00    +0.000 HD
ENDROOT
BRANCH   1   9
ATOM      5  N   UNL     1       2.270   4.504  19.026  0.00  0.00    +0.000 N 
ATOM      6  C   UNL     1       2.762   5.784  19.166  0.00  0.00    +0.000 A 
ATOM      7  C   UNL     1       2.172   6.829  20.051  0.00  0.00    +0.000 C 
ATOM      8  C   UNL     1       3.873   5.885  18.342  0.00  0.00    +0.000 A 
ATOM      9  C   UNL     1       4.057   4.648  17.655  0.00  0.00    +0.000 A 
ATOM     10  C   UNL     1       3.024   3.814  18.092  0.00  0.00    +0.000 A 
ATOM     11  C   UNL     1       2.692   2.407  17.703  0.00  0.00    +0.000 C 
BRANCH   5  13
ATOM     12  C   UNL     1       1.561   3.351  21.110  0.00  0.00    +0.000 C 
ATOM     13  C   UNL     1       1.153   3.929  19.764  0.00  0.00    +0.000 C 
ENDBRANCH   5  13
ENDBRANCH   1   9
BRANCH   3  14
ATOM     14  C   UNL     1       5.770   4.461  14.360  0.00  0.00    +0.000 A 
ATOM     15  N   UNL     1       5.390   3.579  13.408  0.00  0.00    +0.000 NA
ATOM     16  C   UNL     1       6.185   3.494  12.316  0.00  0.00    +0.000 A 
ATOM     17  C   UNL     1       7.361   4.211  12.145  0.00  0.00    +0.000 A 
ATOM     18  C   UNL     1       7.782   5.042  13.177  0.00  0.00    +0.000 A 
ATOM     19  C   UNL     1       6.987   5.152  14.309  0.00  0.00    +0.000 A 
BRANCH  19  20
ATOM     20  O   UNL     1       7.435   5.879  15.379  0.00  0.00    +0.000 OA
ATOM     21  H   UNL     1       6.959   6.725  15.393  0.00  0.00    +0.000 HD
ENDBRANCH  19  20
ENDBRANCH   3  14
TORSDOF 4
ENDMDL
MODEL 3
REMARK VINA RESULT:      -6.5      4.584      6.537
REMARK  Name = 
REMARK  7 active torsions:
REMARK  status: ('A' for Active; 'I' for Inactive)
REMARK    1  A    between atoms: C_1  and  C_2
REMARK    2  A    between atoms: C_2  and  N_3
REMARK    3  A    between atoms: C_4  and  C_5
REMARK    4  A    between atoms: C_7  and  C_8
REMARK    5  A    between atoms: N_10  and  C_11
REMARK    6  A    between atoms: C_16  and  O_17
REMARK    7  A    between atoms: C_18  and  C_19
REMARK                            x       y       z     vdW  Elec       q    Type
REMARK                         _______ _______ _______ _____ _____    ______ ____
ROOT
ATOM      1  C   UNL     1       4.776   4.663  16.076  0.00  0.00    +0.000 C 
ATOM      2  O   UNL     1       4.822   5.853  15.757  0.00  0.00    +0.000 OA
ATOM      3  N   UNL     1       5.462   3.667  15.402  0.00  0.00    +0.000 N 
ATOM      4  H   UNL     1       4.988   2.781  15.317  0.00  0.00    +0.000 HD
ENDROOT
BRANCH   1   9
ATOM      5  N   UNL     1       3.031   3.867  19.215  0.00  0.00    +0.000 N 
ATOM      6  C   UNL     1       2.226   3.165  18.342  0.00  0.00    +0.000 A 
ATOM      7  C   UNL     1       1.044   2.351  18.746  0.00  0.00    +0.000 C 
ATOM      8  C   UNL     1       2.734   3.368  17.068  0.00  0.00    +0.000 A 
ATOM      9  C   UNL     1       3.895   4.194  17.155  0.00  0.00    +0.000 A 
ATOM     10  C   UNL     1       4.063   4.469  18.515  0.00  0.00    +0.000 A 
ATOM     11  C   UNL     1       5.120   5.267  19.213  0.00  0.00    +0.000 C 
BRANCH   5  13
ATOM     12  C   UNL     1       1.852   5.113  21.012  0.00  0.00    +0.000 C 
ATOM     13  C   UNL     1       2.825   4.003  20.651  0.00  0.00    +0.000 C 
ENDBRANCH   5  13
ENDBRANCH   1   9
BRANCH   3  14
ATOM     14  C   UNL     1       6.277   3.990  14.307  0.00  0.00    +0.000 A 
ATOM     15  N   UNL     1       5.993   3.329  13.163  0.00  0.00    +0.000 NA
ATOM     16  C   UNL     1       6.620   3.764  12.045  0.00  0.00    +0.000 A 
ATOM     17  C   UNL     1       7.546   4.796  12.018  0.00  0.00    +0.000 A 
ATOM     18  C   UNL     1       7.894   5.401  13.221  0.00  0.00    +0.000 A 
ATOM     19  C   UNL     1       7.268   4.977  14.385  0.00  0.00    +0.000 A 
BRANCH  19  20
ATOM     20  O   UNL     1       7.673   5.483  15.590  0.00  0.00    +0.000 OA
ATOM     21  H   UNL     1       6.912   5.915  16.010  0.00  0.00    +0.000 HD
ENDBRANCH  19  20
ENDBRANCH   3  14
TORSDOF 4
ENDMDL
MODEL 4
REMARK VINA RESULT:      -6.3      4.442      5.913
REMARK  Name = 
REMARK  7 active torsions:
REMARK  status: ('A' for Active; 'I' for Inactive)
REMARK    1  A    between atoms: C_1  and  C_2
REMARK    2  A    between atoms: C_2  and  N_3
REMARK    3  A    between atoms: C_4  and  C_5
REMARK    4  A    between atoms: C_7  and  C_8
REMARK    5  A    between atoms: N_10  and  C_11
REMARK    6  A    between atoms: C_16  and  O_17
REMARK    7  A    between atoms: C_18  and  C_19
REMARK                            x       y       z     vdW  Elec       q    Type
REMARK                         _______ _______ _______ _____ _____    ______ ____
ROOT
ATOM      1  C   UNL     1       4.895   5.785  16.066  0.00  0.00    +0.000 C 
ATOM      2  O   UNL     1       5.092   6.795  15.385  0.00  0.00    +0.000 OA
ATOM      3  N   UNL     1       5.315   4.521  15.691  0.00  0.00    +0.000 N 
ATOM      4  H   UNL     1       4.696   3.760  15.925  0.00  0.00    +0.000 HD
ENDROOT
BRANCH   1   9
ATOM      5  N   UNL     1       2.997   5.184  19.158  0.00  0.00    +0.000 N 
ATOM      6  C   UNL     1       2.831   6.550  19.071  0.00  0.00    +0.000 A 
ATOM      7  C   UNL     1       2.049   7.374  20.038  0.00  0.00    +0.000 C 
ATOM      8  C   UNL     1       3.515   6.972  17.942  0.00  0.00    +0.000 A 
ATOM      9  C   UNL     1       4.096   5.838  17.299  0.00  0.00    +0.000 A 
ATOM     10  C   UNL     1       3.734   4.734  18.076  0.00  0.00    +0.000 A 
ATOM     11  C   UNL     1       4.035   3.280  17.885  0.00  0.00    +0.000 C 
BRANCH   5  13
ATOM     12  C   UNL     1       1.073   3.883  20.041  0.00  0.00    +0.000 C 
ATOM     13  C   UNL     1       2.514   4.328  20.234  0.00  0.00    +0.000 C 
ENDBRANCH   5  13
ENDBRANCH   1   9
BRANCH   3  14
ATOM     14  C   UNL     1       6.023   4.339  14.494  0.00  0.00    +0.000 A 
ATOM     15  N   UNL     1       5.466   3.469  13.622  0.00  0.00    +0.000 NA
ATOM     16  C   UNL     1       6.008   3.427  12.383  0.00  0.00    +0.000 A 
ATOM     17  C   UNL     1       7.104   4.179  11.983  0.00  0.00    +0.000 A 
ATOM     18  C   UNL     1       7.720   4.998  12.922  0.00  0.00    +0.000 A 
ATOM     19  C   UNL     1       7.186   5.062  14.201  0.00  0.00    +0.000 A 
BRANCH  19  20
ATOM     20  O   UNL     1       7.839   5.778  15.169  0.00  0.00    +0.000 OA
ATOM     21  H   UNL     1       8.774   5.517  15.161  0.00  0.00    +0.000 HD
ENDBRANCH  19  20
ENDBRANCH   3  14
TORSDOF 4
ENDMDL
MODEL 5
REMARK VINA RESULT:      -6.2      2.822      3.181
REMARK  Name = 
REMARK  7 active torsions:
REMARK  status: ('A' for Active; 'I' for Inactive)
REMARK    1  A    between atoms: C_1  and  C_2
REMARK    2  A    between atoms: C_2  and  N_3
REMARK    3  A    between atoms: C_4  and  C_5
REMARK    4  A    between atoms: C_7  and  C_8
REMARK    5  A    between atoms: N_10  and  C_11
REMARK    6  A    between atoms: C_16  and  O_17
REMARK    7  A    between atoms: C_18  and  C_19
REMARK                            x       y       z     vdW  Elec       q    Type
REMARK                         _______ _______ _______ _____ _____    ______ ____
ROOT
ATOM      1  C   UNL     1       3.045   6.430  18.346  0.00  0.00    +0.000 C 
ATOM      2  O   UNL     1       2.564   5.347  18.005  0.00  0.00    +0.000 OA
ATOM      3  N   UNL     1       4.348   6.805  18.067  0.00  0.00    +0.000 N 
ATOM      4  H   UNL     1       4.818   7.340  18.781  0.00  0.00    +0.000 HD
ENDROOT
BRANCH   1   9
ATOM      5  N   UNL     1       1.161   9.226  19.815  0.00  0.00    +0.000 N 
ATOM      6  C   UNL     1       1.191   8.392  20.913  0.00  0.00    +0.000 A 
ATOM      7  C   UNL     1       0.596   8.715  22.241  0.00  0.00    +0.000 C 
ATOM      8  C   UNL     1       1.866   7.242  20.532  0.00  0.00    +0.000 A 
ATOM      9  C   UNL     1       2.286   7.377  19.175  0.00  0.00    +0.000 A 
ATOM     10  C   UNL     1       1.847   8.639  18.765  0.00  0.00    +0.000 A 
ATOM     11  C   UNL     1       2.014   9.339  17.452  0.00  0.00    +0.000 C 
BRANCH   5  13
ATOM     12  C   UNL     1      -0.961  10.402  19.278  0.00  0.00    +0.000 C 
ATOM     13  C   UNL     1       0.485  10.514  19.736  0.00  0.00    +0.000 C 
ENDBRANCH   5  13
ENDBRANCH   1   9
BRANCH   3  14
ATOM     14  C   UNL     1       5.190   5.947  17.344  0.00  0.00    +0.000 A 
ATOM     15  N   UNL     1       5.029   5.978  16.002  0.00  0.00    +0.000 NA
ATOM     16  C   UNL     1       5.958   5.322  15.269  0.00  0.00    +0.000 A 
ATOM     17  C   UNL     1       7.015   4.601  15.808  0.00  0.00    +0.000 A 
ATOM     18  C   UNL     1       7.109   4.504  17.191  0.00  0.00    +0.000 A 
ATOM     19  C   UNL     1       6.171   5.167  17.971  0.00  0.00    +0.000 A 
BRANCH  19  20
ATOM     20  O   UNL     1       6.181   4.997  19.329  0.00  0.00    +0.000 OA
ATOM     21  H   UNL     1       6.549   5.799  19.734  0.00  0.00    +0.000 HD
ENDBRANCH  19  20
ENDBRANCH   3  14
TORSDOF 4
ENDMDL
MODEL 6
REMARK VINA RESULT:      -6.2      1.291      1.533
REMARK  Name = 
REMARK  7 active torsions:
REMARK  status: ('A' for Active; 'I' for Inactive)
REMARK    1  A    between atoms: C_1  and  C_2
REMARK    2  A    between atoms: C_2  and  N_3
REMARK    3  A    between atoms: C_4  and  C_5
REMARK    4  A    between atoms: C_7  and  C_8
REMARK    5  A    between atoms: N_10  and  C_11
REMARK    6  A    between atoms: C_16  and  O_17
REMARK    7  A    between atoms: C_18  and  C_19
REMARK                            x       y       z     vdW  Elec       q    Type
REMARK                         _______ _______ _______ _____ _____    ______ ____
ROOT
ATOM      1  C   UNL     1       2.486   6.316  19.648  0.00  0.00    +0.000 C 
ATOM      2  O   UNL     1       3.676   6.286  19.326  0.00  0.00    +0.000 OA
ATOM      3  N   UNL     1       1.655   5.210  19.594  0.00  0.00    +0.000 N 
ATOM      4  H   UNL     1       0.702   5.384  19.313  0.00  0.00    +0.000 HD
ENDROOT
BRANCH   1   9
ATOM      5  N   UNL     1       0.982   9.664  19.887  0.00  0.00    +0.000 N 
ATOM      6  C   UNL     1       0.760   9.240  21.180  0.00  0.00    +0.000 A 
ATOM      7  C   UNL     1       0.104  10.058  22.241  0.00  0.00    +0.000 C 
ATOM      8  C   UNL     1       1.258   7.950  21.277  0.00  0.00    +0.000 A 
ATOM      9  C   UNL     1       1.826   7.575  20.023  0.00  0.00    +0.000 A 
ATOM     10  C   UNL     1       1.654   8.680  19.183  0.00  0.00    +0.000 A 
ATOM     11  C   UNL     1       2.068   8.881  17.758  0.00  0.00    +0.000 C 
BRANCH   5  13
ATOM     12  C   UNL     1      -0.857  10.883  18.745  0.00  0.00    +0.000 C 
ATOM     13  C   UNL     1       0.551  10.933  19.314  0.00  0.00    +0.000 C 
ENDBRANCH   5  13
ENDBRANCH   1   9
BRANCH   3  14
ATOM     14  C   UNL     1       2.159   3.969  19.178  0.00  0.00    +0.000 A 
ATOM     15  N   UNL     1       2.093   3.737  17.848  0.00  0.00    +0.000 NA
ATOM     16  C   UNL     1       2.753   2.647  17.394  0.00  0.00    +0.000 A 
ATOM     17  C   UNL     1       3.441   1.754  18.204  0.00  0.00    +0.000 A 
ATOM     18  C   UNL     1       3.418   1.959  19.578  0.00  0.00    +0.000 A 
ATOM     19  C   UNL     1       2.750   3.069  20.075  0.00  0.00    +0.000 A 
BRANCH  19  20
ATOM     20  O   UNL     1       2.624   3.231  21.428  0.00  0.00    +0.000 OA
ATOM     21  H   UNL     1       1.807   2.791  21.713  0.00  0.00    +0.000 HD
ENDBRANCH  19  20
ENDBRANCH   3  14
TORSDOF 4
ENDMDL
MODEL 7
REMARK VINA RESULT:      -6.1      3.053      3.898
REMARK  Name = 
REMARK  7 active torsions:
REMARK  status: ('A' for Active; 'I' for Inactive)
REMARK    1  A    between atoms: C_1  and  C_2
REMARK    2  A    between atoms: C_2  and  N_3
REMARK    3  A    between atoms: C_4  and  C_5
REMARK    4  A    between atoms: C_7  and  C_8
REMARK    5  A    between atoms: N_10  and  C_11
REMARK    6  A    between atoms: C_16  and  O_17
REMARK    7  A    between atoms: C_18  and  C_19
REMARK                            x       y       z     vdW  Elec       q    Type
REMARK                         _______ _______ _______ _____ _____    ______ ____
ROOT
ATOM      1  C   UNL     1       3.204   6.542  17.860  0.00  0.00    +0.000 C 
ATOM      2  O   UNL     1       2.782   5.389  17.733  0.00  0.00    +0.000 OA
ATOM      3  N   UNL     1       4.477   6.932  17.483  0.00  0.00    +0.000 N 
ATOM      4  H   UNL     1       4.927   7.612  18.075  0.00  0.00    +0.000 HD
ENDROOT
BRANCH   1   9
ATOM      5  N   UNL     1       1.140   8.638  20.068  0.00  0.00    +0.000 N 
ATOM      6  C   UNL     1       1.280   9.516  19.014  0.00  0.00    +0.000 A 
ATOM      7  C   UNL     1       0.672  10.876  18.956  0.00  0.00    +0.000 C 
ATOM      8  C   UNL     1       2.070   8.887  18.063  0.00  0.00    +0.000 A 
ATOM      9  C   UNL     1       2.405   7.580  18.526  0.00  0.00    +0.000 A 
ATOM     10  C   UNL     1       1.789   7.450  19.775  0.00  0.00    +0.000 A 
ATOM     11  C   UNL     1       1.769   6.292  20.724  0.00  0.00    +0.000 C 
BRANCH   5  13
ATOM     12  C   UNL     1       1.394   9.343  22.437  0.00  0.00    +0.000 C 
ATOM     13  C   UNL     1       0.453   8.908  21.324  0.00  0.00    +0.000 C 
ENDBRANCH   5  13
ENDBRANCH   1   9
BRANCH   3  14
ATOM     14  C   UNL     1       5.356   6.005  16.904  0.00  0.00    +0.000 A 
ATOM     15  N   UNL     1       5.252   5.873  15.562  0.00  0.00    +0.000 NA
ATOM     16  C   UNL     1       6.217   5.147  14.952  0.00  0.00    +0.000 A 
ATOM     17  C   UNL     1       7.257   4.511  15.616  0.00  0.00    +0.000 A 
ATOM     18  C   UNL     1       7.293   4.581  17.004  0.00  0.00    +0.000 A 
ATOM     19  C   UNL     1       6.317   5.319  17.659  0.00  0.00    +0.000 A 
BRANCH  19  20
ATOM     20  O   UNL     1       6.271   5.313  19.027  0.00  0.00    +0.000 OA
ATOM     21  H   UNL     1       6.266   6.233  19.336  0.00  0.00    +0.000 HD
ENDBRANCH  19  20
ENDBRANCH   3  14
TORSDOF 4
ENDMDL
MODEL 8
REMARK VINA RESULT:      -6.0      2.995      3.715
REMARK  Name = 
REMARK  7 active torsions:
REMARK  status: ('A' for Active; 'I' for Inactive)
REMARK    1  A    between atoms: C_1  and  C_2
REMARK    2  A    between atoms: C_2  and  N_3
REMARK    3  A    between atoms: C_4  and  C_5
REMARK    4  A    between atoms: C_7  and  C_8
REMARK    5  A    between atoms: N_10  and  C_11
REMARK    6  A    between atoms: C_16  and  O_17
REMARK    7  A    between atoms: C_18  and  C_19
REMARK                            x       y       z     vdW  Elec       q    Type
REMARK                         _______ _______ _______ _____ _____    ______ ____
ROOT
ATOM      1  C   UNL     1       3.382   6.674  17.932  0.00  0.00    +0.000 C 
ATOM      2  O   UNL     1       3.019   5.519  17.693  0.00  0.00    +0.000 OA
ATOM      3  N   UNL     1       4.670   7.129  17.711  0.00  0.00    +0.000 N 
ATOM      4  H   UNL     1       5.032   7.784  18.387  0.00  0.00    +0.000 HD
ENDROOT
BRANCH   1   9
ATOM      5  N   UNL     1       1.075   8.581  20.070  0.00  0.00    +0.000 N 
ATOM      6  C   UNL     1       1.196   9.483  19.033  0.00  0.00    +0.000 A 
ATOM      7  C   UNL     1       0.493  10.796  18.964  0.00  0.00    +0.000 C 
ATOM      8  C   UNL     1       2.070   8.928  18.111  0.00  0.00    +0.000 A 
ATOM      9  C   UNL     1       2.480   7.642  18.573  0.00  0.00    +0.000 A 
ATOM     10  C   UNL     1       1.821   7.449  19.792  0.00  0.00    +0.000 A 
ATOM     11  C   UNL     1       1.846   6.279  20.726  0.00  0.00    +0.000 C 
BRANCH   5  13
ATOM     12  C   UNL     1       1.158   9.338  22.435  0.00  0.00    +0.000 C 
ATOM     13  C   UNL     1       0.316   8.783  21.297  0.00  0.00    +0.000 C 
ENDBRANCH   5  13
ENDBRANCH   1   9
BRANCH   3  14
ATOM     14  C   UNL     1       5.638   6.269  17.170  0.00  0.00    +0.000 A 
ATOM     15  N   UNL     1       6.403   5.621  18.076  0.00  0.00    +0.000 NA
ATOM     16  C   UNL     1       7.199   4.636  17.597  0.00  0.00    +0.000 A 
ATOM     17  C   UNL     1       7.302   4.295  16.256  0.00  0.00    +0.000 A 
ATOM     18  C   UNL     1       6.578   5.037  15.330  0.00  0.00    +0.000 A 
ATOM     19  C   UNL     1       5.751   6.052  15.791  0.00  0.00    +0.000 A 
BRANCH  19  20
ATOM     20  O   UNL     1       5.113   6.862  14.891  0.00  0.00    +0.000 OA
ATOM     21  H   UNL     1       4.392   7.321  15.351  0.00  0.00    +0.000 HD
ENDBRANCH  19  20
ENDBRANCH   3  14
TORSDOF 4
ENDMDL
MODEL 9
REMARK VINA RESULT:      -6.0      4.524      6.268
REMARK  Name = 
REMARK  7 active torsions:
REMARK  status: ('A' for Active; 'I' for Inactive)
REMARK    1  A    between atoms: C_1  and  C_2
REMARK    2  A    between atoms: C_2  and  N_3
REMARK    3  A    between atoms: C_4  and  C_5
REMARK    4  A    between atoms: C_7  and  C_8
REMARK    5  A    between atoms: N_10  and  C_11
REMARK    6  A    between atoms: C_16  and  O_17
REMARK    7  A    between atoms: C_18  and  C_19
REMARK                            x       y       z     vdW  Elec       q    Type
REMARK                         _______ _______ _______ _____ _____    ______ ____
ROOT
ATOM      1  C   UNL     1       5.059   4.849  16.298  0.00  0.00    +0.000 C 
ATOM      2  O   UNL     1       4.874   5.947  15.767  0.00  0.00    +0.000 OA
ATOM      3  N   UNL     1       5.782   3.829  15.704  0.00  0.00    +0.000 N 
ATOM      4  H   UNL     1       5.442   2.893  15.863  0.00  0.00    +0.000 HD
ENDROOT
BRANCH   1   9
ATOM      5  N   UNL     1       3.179   4.659  19.453  0.00  0.00    +0.000 N 
ATOM      6  C   UNL     1       3.787   3.422  19.495  0.00  0.00    +0.000 A 
ATOM      7  C   UNL     1       3.627   2.435  20.601  0.00  0.00    +0.000 C 
ATOM      8  C   UNL     1       4.546   3.303  18.341  0.00  0.00    +0.000 A 
ATOM      9  C   UNL     1       4.427   4.503  17.579  0.00  0.00    +0.000 A 
ATOM     10  C   UNL     1       3.581   5.337  18.315  0.00  0.00    +0.000 A 
ATOM     11  C   UNL     1       3.110   6.729  18.027  0.00  0.00    +0.000 C 
BRANCH   5  13
ATOM     12  C   UNL     1       0.897   4.440  20.412  0.00  0.00    +0.000 C 
ATOM     13  C   UNL     1       2.225   5.179  20.425  0.00  0.00    +0.000 C 
ENDBRANCH   5  13
ENDBRANCH   1   9
BRANCH   3  14
ATOM     14  C   UNL     1       6.369   4.021  14.445  0.00  0.00    +0.000 A 
ATOM     15  N   UNL     1       5.947   3.176  13.478  0.00  0.00    +0.000 NA
ATOM     16  C   UNL     1       6.336   3.465  12.214  0.00  0.00    +0.000 A 
ATOM     17  C   UNL     1       7.158   4.530  11.872  0.00  0.00    +0.000 A 
ATOM     18  C   UNL     1       7.656   5.332  12.892  0.00  0.00    +0.000 A 
ATOM     19  C   UNL     1       7.275   5.061  14.198  0.00  0.00    +0.000 A 
BRANCH  19  20
ATOM     20  O   UNL     1       7.838   5.769  15.225  0.00  0.00    +0.000 OA
ATOM     21  H   UNL     1       8.497   5.204  15.660  0.00  0.00    +0.000 HD
ENDBRANCH  19  20
ENDBRANCH   3  14
TORSDOF 4
ENDMDL
