MODEL 1
REMARK VINA RESULT:      -8.3      0.000      0.000
REMARK  Name = 
REMARK  9 active torsions:
REMARK  status: ('A' for Active; 'I' for Inactive)
REMARK    1  A    between atoms: C_1  and  O_2
REMARK    2  A    between atoms: O_2  and  C_3
REMARK    3  A    between atoms: C_8  and  O_9
REMARK    4  A    between atoms: O_9  and  C_10
REMARK    5  A    between atoms: C_10  and  C_11
REMARK    6  A    between atoms: N_13  and  N_14
REMARK    7  A    between atoms: N_17  and  C_18
REMARK    8  A    between atoms: C_21  and  C_22
REMARK    9  A    between atoms: C_22  and  C_23
REMARK                            x       y       z     vdW  Elec       q    Type
REMARK                         _______ _______ _______ _____ _____    ______ ____
ROOT
ATOM      1  C   UNL     1       6.592   5.263  18.067  0.00  0.00    +0.000 C 
ATOM      2  O   UNL     1       6.860   4.740  19.150  0.00  0.00    +0.000 OA
ATOM      3  N   UNL     1       7.221   6.414  17.629  0.00  0.00    +0.000 N 
ATOM      4  H   UNL     1       6.874   6.964  16.844  0.00  0.00    +0.000 HD
ENDROOT
BRANCH   3   5
ATOM      5  N   UNL     1       8.139   7.081  18.484  0.00  0.00    +0.000 N 
ATOM      6  C   UNL     1       8.184   8.466  18.368  0.00  0.00    +0.000 C 
ATOM      7  O   UNL     1       7.457   9.052  17.568  0.00  0.00    +0.000 OA
ATOM      8  N   UNL     1       9.163   9.036  19.160  0.00  0.00    +0.000 N 
ATOM      9  H   UNL     1       8.237   6.662  19.406  0.00  0.00    +0.000 HD
ATOM     10  H   UNL     1       9.858   8.398  19.517  0.00  0.00    +0.000 HD
BRANCH   8  11
ATOM     11  C   UNL     1       9.462  10.419  19.242  0.00  0.00    +0.000 A 
ATOM     12  C   UNL     1       9.320  11.161  20.416  0.00  0.00    +0.000 A 
ATOM     13  C   UNL     1       9.608  12.534  20.452  0.00  0.00    +0.000 A 
ATOM     14  C   UNL     1      10.049  13.198  19.306  0.00  0.00    +0.000 A 
ATOM     15  C   UNL     1      10.207  12.453  18.127  0.00  0.00    +0.000 A 
ATOM     16  C   UNL     1       9.929  11.075  18.097  0.00  0.00    +0.000 A 
BRANCH  14  17
ATOM     17  C   UNL     1      10.365  14.662  19.268  0.00  0.00    +0.000 C 
ATOM     18  C   UNL     1       9.400  15.689  19.811  0.00  0.00    +0.000 C 
ATOM     19  O   UNL     1      11.443  15.030  18.795  0.00  0.00    +0.000 OA
ENDBRANCH  14  17
ENDBRANCH   8  11
ENDBRANCH   3   5
BRANCH   1  20
ATOM     20  C   UNL     1       5.540   4.703  17.099  0.00  0.00    +0.000 C 
BRANCH  20  21
ATOM     21  O   UNL     1       4.423   4.204  17.828  0.00  0.00    +0.000 OA
BRANCH  21  27
ATOM     22  C   UNL     1       1.115   9.384  19.638  0.00  0.00    +0.000 A 
ATOM     23  C   UNL     1       1.568   9.525  18.330  0.00  0.00    +0.000 A 
ATOM     24  C   UNL     1       2.303   8.498  17.730  0.00  0.00    +0.000 A 
ATOM     25  C   UNL     1       2.601   7.313  18.426  0.00  0.00    +0.000 A 
ATOM     26  C   UNL     1       3.354   6.281  17.834  0.00  0.00    +0.000 A 
ATOM     27  C   UNL     1       3.661   5.103  18.529  0.00  0.00    +0.000 A 
ATOM     28  C   UNL     1       3.190   4.950  19.832  0.00  0.00    +0.000 A 
ATOM     29  C   UNL     1       2.437   5.970  20.433  0.00  0.00    +0.000 A 
ATOM     30  C   UNL     1       2.138   7.161  19.746  0.00  0.00    +0.000 A 
ATOM     31  C   UNL     1       1.396   8.202  20.335  0.00  0.00    +0.000 A 
BRANCH  22  33
ATOM     32  C   UNL     1      -0.619  11.015  19.625  0.00  0.00    +0.000 C 
ATOM     33  O   UNL     1       0.395  10.313  20.338  0.00  0.00    +0.000 OA
ENDBRANCH  22  33
ENDBRANCH  21  27
ENDBRANCH  20  21
ENDBRANCH   1  20
TORSDOF 7
ENDMDL
MODEL 2
REMARK VINA RESULT:      -8.3      5.464      8.022
REMARK  Name = 
REMARK  9 active torsions:
REMARK  status: ('A' for Active; 'I' for Inactive)
REMARK    1  A    between atoms: C_1  and  O_2
REMARK    2  A    between atoms: O_2  and  C_3
REMARK    3  A    between atoms: C_8  and  O_9
REMARK    4  A    between atoms: O_9  and  C_10
REMARK    5  A    between atoms: C_10  and  C_11
REMARK    6  A    between atoms: N_13  and  N_14
REMARK    7  A    between atoms: N_17  and  C_18
REMARK    8  A    between atoms: C_21  and  C_22
REMARK    9  A    between atoms: C_22  and  C_23
REMARK                            x       y       z     vdW  Elec       q    Type
REMARK                         _______ _______ _______ _____ _____    ______ ____
ROOT
ATOM      1  C   UNL     1       0.978   9.278  22.221  0.00  0.00    +0.000 C 
ATOM      2  O   UNL     1       1.989   9.377  22.917  0.00  0.00    +0.000 OA
ATOM      3  N   UNL     1       0.784   8.221  21.349  0.00  0.00    +0.000 N 
ATOM      4  H   UNL     1       0.061   8.229  20.629  0.00  0.00    +0.000 HD
ENDROOT
BRANCH   3   5
ATOM      5  N   UNL     1       1.816   7.262  21.167  0.00  0.00    +0.000 N 
ATOM      6  C   UNL     1       2.352   7.178  19.887  0.00  0.00    +0.000 C 
ATOM      7  O   UNL     1       1.942   7.908  18.987  0.00  0.00    +0.000 OA
ATOM      8  N   UNL     1       3.282   6.164  19.764  0.00  0.00    +0.000 N 
ATOM      9  H   UNL     1       2.435   7.152  21.967  0.00  0.00    +0.000 HD
ATOM     10  H   UNL     1       3.277   5.478  20.505  0.00  0.00    +0.000 HD
BRANCH   8  11
ATOM     11  C   UNL     1       3.984   5.821  18.581  0.00  0.00    +0.000 A 
ATOM     12  C   UNL     1       4.447   4.531  18.316  0.00  0.00    +0.000 A 
ATOM     13  C   UNL     1       5.156   4.236  17.141  0.00  0.00    +0.000 A 
ATOM     14  C   UNL     1       5.417   5.233  16.200  0.00  0.00    +0.000 A 
ATOM     15  C   UNL     1       4.941   6.528  16.456  0.00  0.00    +0.000 A 
ATOM     16  C   UNL     1       4.221   6.818  17.627  0.00  0.00    +0.000 A 
BRANCH  14  17
ATOM     17  C   UNL     1       6.176   4.993  14.929  0.00  0.00    +0.000 C 
ATOM     18  C   UNL     1       5.585   4.178  13.804  0.00  0.00    +0.000 C 
ATOM     19  O   UNL     1       7.300   5.484  14.801  0.00  0.00    +0.000 OA
ENDBRANCH  14  17
ENDBRANCH   8  11
ENDBRANCH   3   5
BRANCH   1  20
ATOM     20  C   UNL     1      -0.163  10.305  22.241  0.00  0.00    +0.000 C 
BRANCH  20  21
ATOM     21  O   UNL     1       0.036  11.275  21.219  0.00  0.00    +0.000 OA
BRANCH  21  27
ATOM     22  C   UNL     1      -3.390  10.528  15.857  0.00  0.00    +0.000 A 
ATOM     23  C   UNL     1      -2.329   9.629  15.888  0.00  0.00    +0.000 A 
ATOM     24  C   UNL     1      -1.459   9.613  16.982  0.00  0.00    +0.000 A 
ATOM     25  C   UNL     1      -1.632  10.494  18.064  0.00  0.00    +0.000 A 
ATOM     26  C   UNL     1      -0.752  10.494  19.163  0.00  0.00    +0.000 A 
ATOM     27  C   UNL     1      -0.916  11.379  20.238  0.00  0.00    +0.000 A 
ATOM     28  C   UNL     1      -1.991  12.266  20.218  0.00  0.00    +0.000 A 
ATOM     29  C   UNL     1      -2.878  12.275  19.130  0.00  0.00    +0.000 A 
ATOM     30  C   UNL     1      -2.709  11.400  18.042  0.00  0.00    +0.000 A 
ATOM     31  C   UNL     1      -3.579  11.402  16.935  0.00  0.00    +0.000 A 
BRANCH  22  33
ATOM     32  C   UNL     1      -3.985  10.018  13.609  0.00  0.00    +0.000 C 
ATOM     33  O   UNL     1      -4.303  10.648  14.846  0.00  0.00    +0.000 OA
ENDBRANCH  22  33
ENDBRANCH  21  27
ENDBRANCH  20  21
ENDBRANCH   1  20
TORSDOF 7
ENDMDL
MODEL 3
REMARK VINA RESULT:      -8.2      0.976      1.440
REMARK  Name = 
REMARK  9 active torsions:
REMARK  status: ('A' for Active; 'I' for Inactive)
REMARK    1  A    between atoms: C_1  and  O_2
REMARK    2  A    between atoms: O_2  and  C_3
REMARK    3  A    between atoms: C_8  and  O_9
REMARK    4  A    between atoms: O_9  and  C_10
REMARK    5  A    between atoms: C_10  and  C_11
REMARK    6  A    between atoms: N_13  and  N_14
REMARK    7  A    between atoms: N_17  and  C_18
REMARK    8  A    between atoms: C_21  and  C_22
REMARK    9  A    between atoms: C_22  and  C_23
REMARK                            x       y       z     vdW  Elec       q    Type
REMARK                         _______ _______ _______ _____ _____    ______ ____
ROOT
ATOM      1  C   UNL     1       6.956   5.376  17.794  0.00  0.00    +0.000 C 
ATOM      2  O   UNL     1       7.472   4.701  18.685  0.00  0.00    +0.000 OA
ATOM      3  N   UNL     1       7.312   6.693  17.567  0.00  0.00    +0.000 N 
ATOM      4  H   UNL     1       6.761   7.318  16.979  0.00  0.00    +0.000 HD
ENDROOT
BRANCH   3   5
ATOM      5  N   UNL     1       8.231   7.332  18.442  0.00  0.00    +0.000 N 
ATOM      6  C   UNL     1       8.288   8.719  18.360  0.00  0.00    +0.000 C 
ATOM      7  O   UNL     1       7.568   9.331  17.573  0.00  0.00    +0.000 OA
ATOM      8  N   UNL     1       9.267   9.262  19.170  0.00  0.00    +0.000 N 
ATOM      9  H   UNL     1       8.323   6.890  19.353  0.00  0.00    +0.000 HD
ATOM     10  H   UNL     1       9.957   8.610  19.513  0.00  0.00    +0.000 HD
BRANCH   8  11
ATOM     11  C   UNL     1       9.576  10.640  19.287  0.00  0.00    +0.000 A 
ATOM     12  C   UNL     1      10.059  11.406  18.225  0.00  0.00    +0.000 A 
ATOM     13  C   UNL     1      10.373  12.764  18.387  0.00  0.00    +0.000 A 
ATOM     14  C   UNL     1      10.207  13.390  19.624  0.00  0.00    +0.000 A 
ATOM     15  C   UNL     1       9.708  12.627  20.691  0.00  0.00    +0.000 A 
ATOM     16  C   UNL     1       9.384  11.270  20.523  0.00  0.00    +0.000 A 
BRANCH  14  17
ATOM     17  C   UNL     1      10.530  14.832  19.871  0.00  0.00    +0.000 C 
ATOM     18  C   UNL     1      10.359  15.872  18.790  0.00  0.00    +0.000 C 
ATOM     19  O   UNL     1      10.931  15.173  20.986  0.00  0.00    +0.000 OA
ENDBRANCH  14  17
ENDBRANCH   8  11
ENDBRANCH   3   5
BRANCH   1  20
ATOM     20  C   UNL     1       5.870   4.838  16.851  0.00  0.00    +0.000 C 
BRANCH  20  21
ATOM     21  O   UNL     1       4.906   5.852  16.588  0.00  0.00    +0.000 OA
BRANCH  21  27
ATOM     22  C   UNL     1       0.800   9.008  20.360  0.00  0.00    +0.000 A 
ATOM     23  C   UNL     1       1.052   9.732  19.199  0.00  0.00    +0.000 A 
ATOM     24  C   UNL     1       1.914   9.215  18.227  0.00  0.00    +0.000 A 
ATOM     25  C   UNL     1       2.542   7.968  18.398  0.00  0.00    +0.000 A 
ATOM     26  C   UNL     1       3.423   7.447  17.431  0.00  0.00    +0.000 A 
ATOM     27  C   UNL     1       4.057   6.209  17.604  0.00  0.00    +0.000 A 
ATOM     28  C   UNL     1       3.789   5.474  18.757  0.00  0.00    +0.000 A 
ATOM     29  C   UNL     1       2.911   5.979  19.728  0.00  0.00    +0.000 A 
ATOM     30  C   UNL     1       2.283   7.228  19.567  0.00  0.00    +0.000 A 
ATOM     31  C   UNL     1       1.410   7.760  20.535  0.00  0.00    +0.000 A 
BRANCH  22  33
ATOM     32  C   UNL     1       0.545   9.392  22.696  0.00  0.00    +0.000 C 
ATOM     33  O   UNL     1      -0.014   9.404  21.385  0.00  0.00    +0.000 OA
ENDBRANCH  22  33
ENDBRANCH  21  27
ENDBRANCH  20  21
ENDBRANCH   1  20
TORSDOF 7
ENDMDL
MODEL 4
REMARK VINA RESULT:      -8.2      0.746      1.163
REMARK  Name = 
REMARK  9 active torsions:
REMARK  status: ('A' for Active; 'I' for Inactive)
REMARK    1  A    between atoms: C_1  and  O_2
REMARK    2  A    between atoms: O_2  and  C_3
REMARK    3  A    between atoms: C_8  and  O_9
REMARK    4  A    between atoms: O_9  and  C_10
REMARK    5  A    between atoms: C_10  and  C_11
REMARK    6  A    between atoms: N_13  and  N_14
REMARK    7  A    between atoms: N_17  and  C_18
REMARK    8  A    between atoms: C_21  and  C_22
REMARK    9  A    between atoms: C_22  and  C_23
REMARK                            x       y       z     vdW  Elec       q    Type
REMARK                         _______ _______ _______ _____ _____    ______ ____
ROOT
ATOM      1  C   UNL     1       6.607   5.162  18.354  0.00  0.00    +0.000 C 
ATOM      2  O   UNL     1       6.720   4.787  19.522  0.00  0.00    +0.000 OA
ATOM      3  N   UNL     1       7.280   6.267  17.866  0.00  0.00    +0.000 N 
ATOM      4  H   UNL     1       7.045   6.704  16.976  0.00  0.00    +0.000 HD
ENDROOT
BRANCH   3   5
ATOM      5  N   UNL     1       8.057   7.062  18.751  0.00  0.00    +0.000 N 
ATOM      6  C   UNL     1       8.237   8.390  18.378  0.00  0.00    +0.000 C 
ATOM      7  O   UNL     1       7.736   8.824  17.342  0.00  0.00    +0.000 OA
ATOM      8  N   UNL     1       9.078   9.074  19.235  0.00  0.00    +0.000 N 
ATOM      9  H   UNL     1       7.933   6.841  19.736  0.00  0.00    +0.000 HD
ATOM     10  H   UNL     1       9.633   8.499  19.850  0.00  0.00    +0.000 HD
BRANCH   8  11
ATOM     11  C   UNL     1       9.465  10.432  19.107  0.00  0.00    +0.000 A 
ATOM     12  C   UNL     1       9.322  11.157  17.923  0.00  0.00    +0.000 A 
ATOM     13  C   UNL     1       9.736  12.495  17.831  0.00  0.00    +0.000 A 
ATOM     14  C   UNL     1      10.304  13.141  18.930  0.00  0.00    +0.000 A 
ATOM     15  C   UNL     1      10.436  12.420  20.127  0.00  0.00    +0.000 A 
ATOM     16  C   UNL     1      10.010  11.084  20.220  0.00  0.00    +0.000 A 
BRANCH  14  17
ATOM     17  C   UNL     1      10.777  14.563  18.901  0.00  0.00    +0.000 C 
ATOM     18  C   UNL     1      11.847  15.054  19.846  0.00  0.00    +0.000 C 
ATOM     19  O   UNL     1      10.288  15.339  18.078  0.00  0.00    +0.000 OA
ENDBRANCH  14  17
ENDBRANCH   8  11
ENDBRANCH   3   5
BRANCH   1  20
ATOM     20  C   UNL     1       5.712   4.455  17.326  0.00  0.00    +0.000 C 
BRANCH  20  21
ATOM     21  O   UNL     1       4.728   5.357  16.833  0.00  0.00    +0.000 OA
BRANCH  21  27
ATOM     22  C   UNL     1       0.930   9.483  19.932  0.00  0.00    +0.000 A 
ATOM     23  C   UNL     1       1.342  10.017  18.715  0.00  0.00    +0.000 A 
ATOM     24  C   UNL     1       2.170   9.272  17.869  0.00  0.00    +0.000 A 
ATOM     25  C   UNL     1       2.602   7.982  18.224  0.00  0.00    +0.000 A 
ATOM     26  C   UNL     1       3.448   7.231  17.385  0.00  0.00    +0.000 A 
ATOM     27  C   UNL     1       3.889   5.949  17.742  0.00  0.00    +0.000 A 
ATOM     28  C   UNL     1       3.460   5.404  18.950  0.00  0.00    +0.000 A 
ATOM     29  C   UNL     1       2.615   6.140  19.795  0.00  0.00    +0.000 A 
ATOM     30  C   UNL     1       2.181   7.434  19.450  0.00  0.00    +0.000 A 
ATOM     31  C   UNL     1       1.345   8.194  20.289  0.00  0.00    +0.000 A 
BRANCH  22  33
ATOM     32  C   UNL     1      -0.876  10.980  20.338  0.00  0.00    +0.000 C 
ATOM     33  O   UNL     1       0.130  10.110  20.847  0.00  0.00    +0.000 OA
ENDBRANCH  22  33
ENDBRANCH  21  27
ENDBRANCH  20  21
ENDBRANCH   1  20
TORSDOF 7
ENDMDL
MODEL 5
REMARK VINA RESULT:      -8.1      1.255      1.353
REMARK  Name = 
REMARK  9 active torsions:
REMARK  status: ('A' for Active; 'I' for Inactive)
REMARK    1  A    between atoms: C_1  and  O_2
REMARK    2  A    between atoms: O_2  and  C_3
REMARK    3  A    between atoms: C_8  and  O_9
REMARK    4  A    between atoms: O_9  and  C_10
REMARK    5  A    between atoms: C_10  and  C_11
REMARK    6  A    between atoms: N_13  and  N_14
REMARK    7  A    between atoms: N_17  and  C_18
REMARK    8  A    between atoms: C_21  and  C_22
REMARK    9  A    between atoms: C_22  and  C_23
REMARK                            x       y       z     vdW  Elec       q    Type
REMARK                         _______ _______ _______ _____ _____    ______ ____
ROOT
ATOM      1  C   UNL     1       6.791   6.472  17.439  0.00  0.00    +0.000 C 
ATOM      2  O   UNL     1       7.112   5.674  18.320  0.00  0.00    +0.000 OA
ATOM      3  N   UNL     1       7.366   7.726  17.335  0.00  0.00    +0.000 N 
ATOM      4  H   UNL     1       6.974   8.463  16.748  0.00  0.00    +0.000 HD
ENDROOT
BRANCH   3   5
ATOM      5  N   UNL     1       8.289   8.160  18.324  0.00  0.00    +0.000 N 
ATOM      6  C   UNL     1       8.493   9.532  18.408  0.00  0.00    +0.000 C 
ATOM      7  O   UNL     1       7.891  10.303  17.662  0.00  0.00    +0.000 OA
ATOM      8  N   UNL     1       9.469   9.871  19.325  0.00  0.00    +0.000 N 
ATOM      9  H   UNL     1       8.277   7.611  19.181  0.00  0.00    +0.000 HD
ATOM     10  H   UNL     1      10.065   9.113  19.624  0.00  0.00    +0.000 HD
BRANCH   8  11
ATOM     11  C   UNL     1       9.911  11.186  19.619  0.00  0.00    +0.000 A 
ATOM     12  C   UNL     1       9.544  11.871  20.778  0.00  0.00    +0.000 A 
ATOM     13  C   UNL     1       9.986  13.180  21.024  0.00  0.00    +0.000 A 
ATOM     14  C   UNL     1      10.812  13.835  20.108  0.00  0.00    +0.000 A 
ATOM     15  C   UNL     1      11.195  13.144  18.949  0.00  0.00    +0.000 A 
ATOM     16  C   UNL     1      10.760  11.829  18.711  0.00  0.00    +0.000 A 
BRANCH  14  17
ATOM     17  C   UNL     1      11.314  15.234  20.300  0.00  0.00    +0.000 C 
ATOM     18  C   UNL     1      11.734  16.086  19.126  0.00  0.00    +0.000 C 
ATOM     19  O   UNL     1      11.369  15.699  21.441  0.00  0.00    +0.000 OA
ENDBRANCH  14  17
ENDBRANCH   8  11
ENDBRANCH   3   5
BRANCH   1  20
ATOM     20  C   UNL     1       5.726   6.169  16.375  0.00  0.00    +0.000 C 
BRANCH  20  21
ATOM     21  O   UNL     1       4.689   5.371  16.936  0.00  0.00    +0.000 OA
BRANCH  21  27
ATOM     22  C   UNL     1       0.841   9.415  20.082  0.00  0.00    +0.000 A 
ATOM     23  C   UNL     1       1.176   9.930  18.834  0.00  0.00    +0.000 A 
ATOM     24  C   UNL     1       2.000   9.198  17.974  0.00  0.00    +0.000 A 
ATOM     25  C   UNL     1       2.506   7.939  18.346  0.00  0.00    +0.000 A 
ATOM     26  C   UNL     1       3.349   7.202  17.491  0.00  0.00    +0.000 A 
ATOM     27  C   UNL     1       3.863   5.952  17.864  0.00  0.00    +0.000 A 
ATOM     28  C   UNL     1       3.512   5.426  19.105  0.00  0.00    +0.000 A 
ATOM     29  C   UNL     1       2.671   6.148  19.966  0.00  0.00    +0.000 A 
ATOM     30  C   UNL     1       2.164   7.410  19.604  0.00  0.00    +0.000 A 
ATOM     31  C   UNL     1       1.330   8.157  20.457  0.00  0.00    +0.000 A 
BRANCH  22  33
ATOM     32  C   UNL     1      -0.110   9.368  22.264  0.00  0.00    +0.000 C 
ATOM     33  O   UNL     1       0.053  10.032  21.014  0.00  0.00    +0.000 OA
ENDBRANCH  22  33
ENDBRANCH  21  27
ENDBRANCH  20  21
ENDBRANCH   1  20
TORSDOF 7
ENDMDL
MODEL 6
REMARK VINA RESULT:      -8.0      5.347      9.180
REMARK  Name = 
REMARK  9 active torsions:
REMARK  status: ('A' for Active; 'I' for Inactive)
REMARK    1  A    between atoms: C_1  and  O_2
REMARK    2  A    between atoms: O_2  and  C_3
REMARK    3  A    between atoms: C_8  and  O_9
REMARK    4  A    between atoms: O_9  and  C_10
REMARK    5  A    between atoms: C_10  and  C_11
REMARK    6  A    between atoms: N_13  and  N_14
REMARK    7  A    between atoms: N_17  and  C_18
REMARK    8  A    between atoms: C_21  and  C_22
REMARK    9  A    between atoms: C_22  and  C_23
REMARK                            x       y       z     vdW  Elec       q    Type
REMARK                         _______ _______ _______ _____ _____    ______ ____
ROOT
ATOM      1  C   UNL     1       0.872   9.383  21.807  0.00  0.00    +0.000 C 
ATOM      2  O   UNL     1       1.796   9.453  22.618  0.00  0.00    +0.000 OA
ATOM      3  N   UNL     1       0.785   8.365  20.874  0.00  0.00    +0.000 N 
ATOM      4  H   UNL     1       0.150   8.403  20.078  0.00  0.00    +0.000 HD
ENDROOT
BRANCH   3   5
ATOM      5  N   UNL     1       1.837   7.415  20.773  0.00  0.00    +0.000 N 
ATOM      6  C   UNL     1       2.395   7.256  19.509  0.00  0.00    +0.000 C 
ATOM      7  O   UNL     1       1.987   7.917  18.556  0.00  0.00    +0.000 OA
ATOM      8  N   UNL     1       3.344   6.253  19.468  0.00  0.00    +0.000 N 
ATOM      9  H   UNL     1       2.444   7.370  21.587  0.00  0.00    +0.000 HD
ATOM     10  H   UNL     1       3.338   5.618  20.252  0.00  0.00    +0.000 HD
BRANCH   8  11
ATOM     11  C   UNL     1       4.071   5.846  18.320  0.00  0.00    +0.000 A 
ATOM     12  C   UNL     1       4.059   4.537  17.836  0.00  0.00    +0.000 A 
ATOM     13  C   UNL     1       4.808   4.169  16.708  0.00  0.00    +0.000 A 
ATOM     14  C   UNL     1       5.590   5.110  16.036  0.00  0.00    +0.000 A 
ATOM     15  C   UNL     1       5.593   6.430  16.511  0.00  0.00    +0.000 A 
ATOM     16  C   UNL     1       4.832   6.798  17.634  0.00  0.00    +0.000 A 
BRANCH  14  17
ATOM     17  C   UNL     1       6.422   4.786  14.832  0.00  0.00    +0.000 C 
ATOM     18  C   UNL     1       5.896   3.899  13.729  0.00  0.00    +0.000 C 
ATOM     19  O   UNL     1       7.554   5.266  14.739  0.00  0.00    +0.000 OA
ENDBRANCH  14  17
ENDBRANCH   8  11
ENDBRANCH   3   5
BRANCH   1  20
ATOM     20  C   UNL     1      -0.269  10.408  21.739  0.00  0.00    +0.000 C 
BRANCH  20  21
ATOM     21  O   UNL     1      -0.430  11.043  23.003  0.00  0.00    +0.000 OA
BRANCH  21  27
ATOM     22  C   UNL     1      -5.461  14.960  23.636  0.00  0.00    +0.000 A 
ATOM     23  C   UNL     1      -5.828  13.646  23.908  0.00  0.00    +0.000 A 
ATOM     24  C   UNL     1      -4.873  12.626  23.841  0.00  0.00    +0.000 A 
ATOM     25  C   UNL     1      -3.536  12.900  23.501  0.00  0.00    +0.000 A 
ATOM     26  C   UNL     1      -2.573  11.877  23.417  0.00  0.00    +0.000 A 
ATOM     27  C   UNL     1      -1.242  12.147  23.068  0.00  0.00    +0.000 A 
ATOM     28  C   UNL     1      -0.868  13.465  22.817  0.00  0.00    +0.000 A 
ATOM     29  C   UNL     1      -1.818  14.496  22.899  0.00  0.00    +0.000 A 
ATOM     30  C   UNL     1      -3.158  14.229  23.234  0.00  0.00    +0.000 A 
ATOM     31  C   UNL     1      -4.129  15.246  23.308  0.00  0.00    +0.000 A 
BRANCH  22  33
ATOM     32  C   UNL     1      -6.706  16.571  22.402  0.00  0.00    +0.000 C 
ATOM     33  O   UNL     1      -6.297  16.043  23.660  0.00  0.00    +0.000 OA
ENDBRANCH  22  33
ENDBRANCH  21  27
ENDBRANCH  20  21
ENDBRANCH   1  20
TORSDOF 7
ENDMDL
MODEL 7
REMARK VINA RESULT:      -7.9      5.529      9.277
REMARK  Name = 
REMARK  9 active torsions:
REMARK  status: ('A' for Active; 'I' for Inactive)
REMARK    1  A    between atoms: C_1  and  O_2
REMARK    2  A    between atoms: O_2  and  C_3
REMARK    3  A    between atoms: C_8  and  O_9
REMARK    4  A    between atoms: O_9  and  C_10
REMARK    5  A    between atoms: C_10  and  C_11
REMARK    6  A    between atoms: N_13  and  N_14
REMARK    7  A    between atoms: N_17  and  C_18
REMARK    8  A    between atoms: C_21  and  C_22
REMARK    9  A    between atoms: C_22  and  C_23
REMARK                            x       y       z     vdW  Elec       q    Type
REMARK                         _______ _______ _______ _____ _____    ______ ____
ROOT
ATOM      1  C   UNL     1       2.161   6.213  19.858  0.00  0.00    +0.000 C 
ATOM      2  O   UNL     1       2.598   6.935  18.961  0.00  0.00    +0.000 OA
ATOM      3  N   UNL     1       1.583   6.729  21.004  0.00  0.00    +0.000 N 
ATOM      4  H   UNL     1       1.404   6.163  21.832  0.00  0.00    +0.000 HD
ENDROOT
BRANCH   3   5
ATOM      5  N   UNL     1       1.572   8.135  21.212  0.00  0.00    +0.000 N 
ATOM      6  C   UNL     1       0.328   8.706  21.456  0.00  0.00    +0.000 C 
ATOM      7  O   UNL     1      -0.686   8.010  21.490  0.00  0.00    +0.000 OA
ATOM      8  N   UNL     1       0.383  10.083  21.555  0.00  0.00    +0.000 N 
ATOM      9  H   UNL     1       2.383   8.493  21.710  0.00  0.00    +0.000 HD
ATOM     10  H   UNL     1       1.229  10.509  21.205  0.00  0.00    +0.000 HD
BRANCH   8  11
ATOM     11  C   UNL     1      -0.721  10.943  21.781  0.00  0.00    +0.000 A 
ATOM     12  C   UNL     1      -1.340  11.671  20.763  0.00  0.00    +0.000 A 
ATOM     13  C   UNL     1      -2.419  12.528  21.031  0.00  0.00    +0.000 A 
ATOM     14  C   UNL     1      -2.905  12.675  22.331  0.00  0.00    +0.000 A 
ATOM     15  C   UNL     1      -2.294  11.934  23.355  0.00  0.00    +0.000 A 
ATOM     16  C   UNL     1      -1.221  11.067  23.082  0.00  0.00    +0.000 A 
BRANCH  14  17
ATOM     17  C   UNL     1      -4.045  13.578  22.691  0.00  0.00    +0.000 C 
ATOM     18  C   UNL     1      -4.998  14.096  21.641  0.00  0.00    +0.000 C 
ATOM     19  O   UNL     1      -4.211  13.891  23.872  0.00  0.00    +0.000 OA
ENDBRANCH  14  17
ENDBRANCH   8  11
ENDBRANCH   3   5
BRANCH   1  20
ATOM     20  C   UNL     1       2.212   4.679  19.806  0.00  0.00    +0.000 C 
BRANCH  20  21
ATOM     21  O   UNL     1       3.541   4.227  20.039  0.00  0.00    +0.000 OA
BRANCH  21  27
ATOM     22  C   UNL     1       7.002   5.016  14.705  0.00  0.00    +0.000 A 
ATOM     23  C   UNL     1       5.811   4.358  14.422  0.00  0.00    +0.000 A 
ATOM     24  C   UNL     1       4.896   4.095  15.446  0.00  0.00    +0.000 A 
ATOM     25  C   UNL     1       5.156   4.484  16.773  0.00  0.00    +0.000 A 
ATOM     26  C   UNL     1       4.247   4.210  17.812  0.00  0.00    +0.000 A 
ATOM     27  C   UNL     1       4.509   4.587  19.137  0.00  0.00    +0.000 A 
ATOM     28  C   UNL     1       5.693   5.266  19.420  0.00  0.00    +0.000 A 
ATOM     29  C   UNL     1       6.607   5.548  18.393  0.00  0.00    +0.000 A 
ATOM     30  C   UNL     1       6.357   5.158  17.064  0.00  0.00    +0.000 A 
ATOM     31  C   UNL     1       7.266   5.419  16.021  0.00  0.00    +0.000 A 
BRANCH  22  33
ATOM     32  C   UNL     1       7.694   5.060  12.428  0.00  0.00    +0.000 C 
ATOM     33  O   UNL     1       7.979   5.325  13.798  0.00  0.00    +0.000 OA
ENDBRANCH  22  33
ENDBRANCH  21  27
ENDBRANCH  20  21
ENDBRANCH   1  20
TORSDOF 7
ENDMDL
MODEL 8
REMARK VINA RESULT:      -7.9      2.471      3.601
REMARK  Name = 
REMARK  9 active torsions:
REMARK  status: ('A' for Active; 'I' for Inactive)
REMARK    1  A    between atoms: C_1  and  O_2
REMARK    2  A    between atoms: O_2  and  C_3
REMARK    3  A    between atoms: C_8  and  O_9
REMARK    4  A    between atoms: O_9  and  C_10
REMARK    5  A    between atoms: C_10  and  C_11
REMARK    6  A    between atoms: N_13  and  N_14
REMARK    7  A    between atoms: N_17  and  C_18
REMARK    8  A    between atoms: C_21  and  C_22
REMARK    9  A    between atoms: C_22  and  C_23
REMARK                            x       y       z     vdW  Elec       q    Type
REMARK                         _______ _______ _______ _____ _____    ______ ____
ROOT
ATOM      1  C   UNL     1       7.501   6.722  17.473  0.00  0.00    +0.000 C 
ATOM      2  O   UNL     1       7.607   5.961  18.436  0.00  0.00    +0.000 OA
ATOM      3  N   UNL     1       8.008   8.009  17.491  0.00  0.00    +0.000 N 
ATOM      4  H   UNL     1       7.755   8.708  16.793  0.00  0.00    +0.000 HD
ENDROOT
BRANCH   3   5
ATOM      5  N   UNL     1       8.588   8.518  18.683  0.00  0.00    +0.000 N 
ATOM      6  C   UNL     1       8.789   9.893  18.725  0.00  0.00    +0.000 C 
ATOM      7  O   UNL     1       8.468  10.603  17.774  0.00  0.00    +0.000 OA
ATOM      8  N   UNL     1       9.441  10.302  19.872  0.00  0.00    +0.000 N 
ATOM      9  H   UNL     1       8.298   8.038  19.532  0.00  0.00    +0.000 HD
ATOM     10  H   UNL     1       9.896   9.570  20.397  0.00  0.00    +0.000 HD
BRANCH   8  11
ATOM     11  C   UNL     1       9.801  11.636  20.191  0.00  0.00    +0.000 A 
ATOM     12  C   UNL     1       9.167  12.378  21.188  0.00  0.00    +0.000 A 
ATOM     13  C   UNL     1       9.539  13.704  21.461  0.00  0.00    +0.000 A 
ATOM     14  C   UNL     1      10.562  14.318  20.736  0.00  0.00    +0.000 A 
ATOM     15  C   UNL     1      11.212  13.570  19.742  0.00  0.00    +0.000 A 
ATOM     16  C   UNL     1      10.844  12.239  19.480  0.00  0.00    +0.000 A 
BRANCH  14  17
ATOM     17  C   UNL     1      11.005  15.732  20.966  0.00  0.00    +0.000 C 
ATOM     18  C   UNL     1      12.333  16.232  20.450  0.00  0.00    +0.000 C 
ATOM     19  O   UNL     1      10.260  16.501  21.577  0.00  0.00    +0.000 OA
ENDBRANCH  14  17
ENDBRANCH   8  11
ENDBRANCH   3   5
BRANCH   1  20
ATOM     20  C   UNL     1       6.798   6.332  16.165  0.00  0.00    +0.000 C 
BRANCH  20  21
ATOM     21  O   UNL     1       5.500   6.912  16.116  0.00  0.00    +0.000 OA
BRANCH  21  27
ATOM     22  C   UNL     1       1.707   3.272  19.779  0.00  0.00    +0.000 A 
ATOM     23  C   UNL     1       2.589   2.481  19.051  0.00  0.00    +0.000 A 
ATOM     24  C   UNL     1       3.519   3.077  18.195  0.00  0.00    +0.000 A 
ATOM     25  C   UNL     1       3.584   4.475  18.048  0.00  0.00    +0.000 A 
ATOM     26  C   UNL     1       4.507   5.082  17.176  0.00  0.00    +0.000 A 
ATOM     27  C   UNL     1       4.566   6.474  17.021  0.00  0.00    +0.000 A 
ATOM     28  C   UNL     1       3.698   7.270  17.765  0.00  0.00    +0.000 A 
ATOM     29  C   UNL     1       2.773   6.678  18.640  0.00  0.00    +0.000 A 
ATOM     30  C   UNL     1       2.699   5.280  18.789  0.00  0.00    +0.000 A 
ATOM     31  C   UNL     1       1.771   4.665  19.650  0.00  0.00    +0.000 A 
BRANCH  22  33
ATOM     32  C   UNL     1       1.191   2.386  21.928  0.00  0.00    +0.000 C 
ATOM     33  O   UNL     1       0.750   2.813  20.642  0.00  0.00    +0.000 OA
ENDBRANCH  22  33
ENDBRANCH  21  27
ENDBRANCH  20  21
ENDBRANCH   1  20
TORSDOF 7
ENDMDL
MODEL 9
REMARK VINA RESULT:      -7.8      5.579      8.246
REMARK  Name = 
REMARK  9 active torsions:
REMARK  status: ('A' for Active; 'I' for Inactive)
REMARK    1  A    between atoms: C_1  and  O_2
REMARK    2  A    between atoms: O_2  and  C_3
REMARK    3  A    between atoms: C_8  and  O_9
REMARK    4  A    between atoms: O_9  and  C_10
REMARK    5  A    between atoms: C_10  and  C_11
REMARK    6  A    between atoms: N_13  and  N_14
REMARK    7  A    between atoms: N_17  and  C_18
REMARK    8  A    between atoms: C_21  and  C_22
REMARK    9  A    between atoms: C_22  and  C_23
REMARK                            x       y       z     vdW  Elec       q    Type
REMARK                         _______ _______ _______ _____ _____    ______ ____
ROOT
ATOM      1  C   UNL     1       1.611   5.258  20.785  0.00  0.00    +0.000 C 
ATOM      2  O   UNL     1       0.510   5.030  20.282  0.00  0.00    +0.000 OA
ATOM      3  N   UNL     1       2.101   6.543  20.934  0.00  0.00    +0.000 N 
ATOM      4  H   UNL     1       3.077   6.736  21.157  0.00  0.00    +0.000 HD
ENDROOT
BRANCH   3   5
ATOM      5  N   UNL     1       1.366   7.640  20.409  0.00  0.00    +0.000 N 
ATOM      6  C   UNL     1       1.195   8.724  21.263  0.00  0.00    +0.000 C 
ATOM      7  O   UNL     1       1.669   8.709  22.398  0.00  0.00    +0.000 OA
ATOM      8  N   UNL     1       0.394   9.709  20.719  0.00  0.00    +0.000 N 
ATOM      9  H   UNL     1       1.518   7.813  19.419  0.00  0.00    +0.000 HD
ATOM     10  H   UNL     1      -0.150   9.432  19.916  0.00  0.00    +0.000 HD
BRANCH   8  11
ATOM     11  C   UNL     1       0.024  10.922  21.354  0.00  0.00    +0.000 A 
ATOM     12  C   UNL     1      -0.910  10.986  22.389  0.00  0.00    +0.000 A 
ATOM     13  C   UNL     1      -1.264  12.209  22.979  0.00  0.00    +0.000 A 
ATOM     14  C   UNL     1      -0.685  13.402  22.543  0.00  0.00    +0.000 A 
ATOM     15  C   UNL     1       0.266  13.341  21.513  0.00  0.00    +0.000 A 
ATOM     16  C   UNL     1       0.627  12.113  20.932  0.00  0.00    +0.000 A 
BRANCH  14  17
ATOM     17  C   UNL     1      -1.022  14.744  23.120  0.00  0.00    +0.000 C 
ATOM     18  C   UNL     1      -2.455  15.189  23.289  0.00  0.00    +0.000 C 
ATOM     19  O   UNL     1      -0.107  15.491  23.474  0.00  0.00    +0.000 OA
ENDBRANCH  14  17
ENDBRANCH   8  11
ENDBRANCH   3   5
BRANCH   1  20
ATOM     20  C   UNL     1       2.551   4.154  21.292  0.00  0.00    +0.000 C 
BRANCH  20  21
ATOM     21  O   UNL     1       2.628   3.103  20.336  0.00  0.00    +0.000 OA
BRANCH  21  27
ATOM     22  C   UNL     1       6.935   4.930  15.958  0.00  0.00    +0.000 A 
ATOM     23  C   UNL     1       7.424   5.141  17.243  0.00  0.00    +0.000 A 
ATOM     24  C   UNL     1       6.646   4.796  18.352  0.00  0.00    +0.000 A 
ATOM     25  C   UNL     1       5.365   4.236  18.199  0.00  0.00    +0.000 A 
ATOM     26  C   UNL     1       4.570   3.900  19.311  0.00  0.00    +0.000 A 
ATOM     27  C   UNL     1       3.289   3.351  19.160  0.00  0.00    +0.000 A 
ATOM     28  C   UNL     1       2.805   3.120  17.873  0.00  0.00    +0.000 A 
ATOM     29  C   UNL     1       3.588   3.448  16.756  0.00  0.00    +0.000 A 
ATOM     30  C   UNL     1       4.869   4.013  16.901  0.00  0.00    +0.000 A 
ATOM     31  C   UNL     1       5.665   4.362  15.794  0.00  0.00    +0.000 A 
BRANCH  22  33
ATOM     32  C   UNL     1       7.014   4.747  13.585  0.00  0.00    +0.000 C 
ATOM     33  O   UNL     1       7.591   5.229  14.796  0.00  0.00    +0.000 OA
ENDBRANCH  22  33
ENDBRANCH  21  27
ENDBRANCH  20  21
ENDBRANCH   1  20
TORSDOF 7
ENDMDL
