MODEL 1
REMARK VINA RESULT:      -7.4      0.000      0.000
REMARK  Name = 
REMARK  3 active torsions:
REMARK  status: ('A' for Active; 'I' for Inactive)
REMARK    1  A    between atoms: C_2  and  C_3
REMARK    2  A    between atoms: C_3  and  N_4
REMARK    3  A    between atoms: N_17  and  C_18
REMARK                            x       y       z     vdW  Elec       q    Type
REMARK                         _______ _______ _______ _____ _____    ______ ____
ROOT
ATOM      1  O   UNL     1      -0.794  11.596  23.244  0.00  0.00    +0.000 OA
ATOM      2  C   UNL     1      -0.851  11.432  22.025  0.00  0.00    +0.000 C 
ATOM      3  N   UNL     1      -0.456  10.238  21.437  0.00  0.00    +0.000 N 
ATOM      4  C   UNL     1      -0.404   9.965  19.992  0.00  0.00    +0.000 C 
ATOM      5  C   UNL     1       1.008   9.547  19.542  0.00  0.00    +0.000 C 
ATOM      6  N   UNL     1       1.470   8.432  20.379  0.00  0.00    +0.000 N 
ATOM      7  C   UNL     1       1.462   8.700  21.829  0.00  0.00    +0.000 C 
ATOM      8  C   UNL     1       0.059   9.144  22.278  0.00  0.00    +0.000 C 
ENDROOT
BRANCH   6   9
ATOM      9  C   UNL     1       1.965   7.263  19.853  0.00  0.00    +0.000 A 
ATOM     10  C   UNL     1       1.905   6.051  20.553  0.00  0.00    +0.000 A 
ATOM     11  C   UNL     1       2.416   4.866  20.013  0.00  0.00    +0.000 A 
ATOM     12  C   UNL     1       3.015   4.879  18.760  0.00  0.00    +0.000 A 
ATOM     13 CL   UNL     1       3.657   3.430  18.096  0.00  0.00    +0.000 Cl
ATOM     14  C   UNL     1       3.099   6.066  18.043  0.00  0.00    +0.000 A 
ATOM     15  C   UNL     1       2.575   7.239  18.585  0.00  0.00    +0.000 A 
ENDBRANCH   6   9
BRANCH   2  16
ATOM     16  C   UNL     1      -1.305  12.570  21.105  0.00  0.00    +0.000 C 
BRANCH  16  17
ATOM     17  N   UNL     1      -2.744  12.516  20.862  0.00  0.00    +0.000 N 
ATOM     18  N   UNL     1      -3.589  12.756  21.958  0.00  0.00    +0.000 NA
ATOM     19  C   UNL     1      -4.881  12.735  21.792  0.00  0.00    +0.000 A 
ATOM     20  C   UNL     1      -5.470  12.464  20.509  0.00  0.00    +0.000 A 
ATOM     21  C   UNL     1      -6.842  12.381  20.132  0.00  0.00    +0.000 A 
ATOM     22  C   UNL     1      -6.984  12.097  18.788  0.00  0.00    +0.000 A 
ATOM     23  S   UNL     1      -5.469  11.941  17.998  0.00  0.00    +0.000 S 
ATOM     24  C   UNL     1      -4.634  12.242  19.443  0.00  0.00    +0.000 A 
ATOM     25  C   UNL     1      -3.196  12.272  19.547  0.00  0.00    +0.000 A 
ATOM     26  O   UNL     1      -2.436  12.127  18.594  0.00  0.00    +0.000 OA
ENDBRANCH  16  17
ENDBRANCH   2  16
TORSDOF 3
ENDMDL
MODEL 2
REMARK VINA RESULT:      -7.0      1.287      1.888
REMARK  Name = 
REMARK  3 active torsions:
REMARK  status: ('A' for Active; 'I' for Inactive)
REMARK    1  A    between atoms: C_2  and  C_3
REMARK    2  A    between atoms: C_3  and  N_4
REMARK    3  A    between atoms: N_17  and  C_18
REMARK                            x       y       z     vdW  Elec       q    Type
REMARK                         _______ _______ _______ _____ _____    ______ ____
ROOT
ATOM      1  O   UNL     1      -1.159  11.351  22.480  0.00  0.00    +0.000 OA
ATOM      2  C   UNL     1      -1.015  11.247  21.261  0.00  0.00    +0.000 C 
ATOM      3  N   UNL     1      -0.485  10.098  20.691  0.00  0.00    +0.000 N 
ATOM      4  C   UNL     1      -0.194   9.900  19.261  0.00  0.00    +0.000 C 
ATOM      5  C   UNL     1       1.286   9.551  19.025  0.00  0.00    +0.000 C 
ATOM      6  N   UNL     1       1.654   8.411  19.875  0.00  0.00    +0.000 N 
ATOM      7  C   UNL     1       1.407   8.605  21.315  0.00  0.00    +0.000 C 
ATOM      8  C   UNL     1      -0.066   8.980  21.554  0.00  0.00    +0.000 C 
ENDROOT
BRANCH   6   9
ATOM      9  C   UNL     1       2.273   7.287  19.382  0.00  0.00    +0.000 A 
ATOM     10  C   UNL     1       2.974   7.297  18.168  0.00  0.00    +0.000 A 
ATOM     11  C   UNL     1       3.596   6.148  17.670  0.00  0.00    +0.000 A 
ATOM     12  C   UNL     1       3.512   4.955  18.377  0.00  0.00    +0.000 A 
ATOM     13 CL   UNL     1       4.262   3.536  17.765  0.00  0.00    +0.000 Cl
ATOM     14  C   UNL     1       2.817   4.907  19.579  0.00  0.00    +0.000 A 
ATOM     15  C   UNL     1       2.211   6.062  20.073  0.00  0.00    +0.000 A 
ENDBRANCH   6   9
BRANCH   2  16
ATOM     16  C   UNL     1      -1.363  12.415  20.332  0.00  0.00    +0.000 C 
BRANCH  16  17
ATOM     17  N   UNL     1      -2.715  12.283  19.794  0.00  0.00    +0.000 N 
ATOM     18  N   UNL     1      -2.853  11.639  18.554  0.00  0.00    +0.000 NA
ATOM     19  C   UNL     1      -4.038  11.481  18.038  0.00  0.00    +0.000 A 
ATOM     20  C   UNL     1      -5.218  11.961  18.706  0.00  0.00    +0.000 A 
ATOM     21  C   UNL     1      -6.585  11.901  18.303  0.00  0.00    +0.000 A 
ATOM     22  C   UNL     1      -7.416  12.482  19.239  0.00  0.00    +0.000 A 
ATOM     23  S   UNL     1      -6.547  13.083  20.590  0.00  0.00    +0.000 S 
ATOM     24  C   UNL     1      -5.072  12.578  19.923  0.00  0.00    +0.000 A 
ATOM     25  C   UNL     1      -3.794  12.767  20.565  0.00  0.00    +0.000 A 
ATOM     26  O   UNL     1      -3.652  13.270  21.675  0.00  0.00    +0.000 OA
ENDBRANCH  16  17
ENDBRANCH   2  16
TORSDOF 3
ENDMDL
MODEL 3
REMARK VINA RESULT:      -7.0      3.853      5.180
REMARK  Name = 
REMARK  3 active torsions:
REMARK  status: ('A' for Active; 'I' for Inactive)
REMARK    1  A    between atoms: C_2  and  C_3
REMARK    2  A    between atoms: C_3  and  N_4
REMARK    3  A    between atoms: N_17  and  C_18
REMARK                            x       y       z     vdW  Elec       q    Type
REMARK                         _______ _______ _______ _____ _____    ______ ____
ROOT
ATOM      1  O   UNL     1      -0.650  12.106  20.710  0.00  0.00    +0.000 OA
ATOM      2  C   UNL     1      -0.345  11.610  19.624  0.00  0.00    +0.000 C 
ATOM      3  N   UNL     1       0.008  10.272  19.514  0.00  0.00    +0.000 N 
ATOM      4  C   UNL     1       0.468   9.600  18.288  0.00  0.00    +0.000 C 
ATOM      5  C   UNL     1       1.856   8.963  18.475  0.00  0.00    +0.000 C 
ATOM      6  N   UNL     1       1.833   8.096  19.660  0.00  0.00    +0.000 N 
ATOM      7  C   UNL     1       1.412   8.760  20.907  0.00  0.00    +0.000 C 
ATOM      8  C   UNL     1       0.036   9.422  20.716  0.00  0.00    +0.000 C 
ENDROOT
BRANCH   6   9
ATOM      9  C   UNL     1       2.263   6.791  19.634  0.00  0.00    +0.000 A 
ATOM     10  C   UNL     1       1.841   5.852  20.585  0.00  0.00    +0.000 A 
ATOM     11  C   UNL     1       2.287   4.526  20.556  0.00  0.00    +0.000 A 
ATOM     12  C   UNL     1       3.184   4.121  19.576  0.00  0.00    +0.000 A 
ATOM     13 CL   UNL     1       3.747   2.498  19.542  0.00  0.00    +0.000 Cl
ATOM     14  C   UNL     1       3.631   5.029  18.624  0.00  0.00    +0.000 A 
ATOM     15  C   UNL     1       3.170   6.344  18.655  0.00  0.00    +0.000 A 
ENDBRANCH   6   9
BRANCH   2  16
ATOM     16  C   UNL     1      -0.283  12.475  18.361  0.00  0.00    +0.000 C 
BRANCH  16  17
ATOM     17  N   UNL     1       0.595  13.627  18.548  0.00  0.00    +0.000 N 
ATOM     18  N   UNL     1       0.006  14.817  19.006  0.00  0.00    +0.000 NA
ATOM     19  C   UNL     1       0.748  15.869  19.203  0.00  0.00    +0.000 A 
ATOM     20  C   UNL     1       2.165  15.847  18.956  0.00  0.00    +0.000 A 
ATOM     21  C   UNL     1       3.132  16.885  19.093  0.00  0.00    +0.000 A 
ATOM     22  C   UNL     1       4.397  16.449  18.750  0.00  0.00    +0.000 A 
ATOM     23  S   UNL     1       4.405  14.800  18.277  0.00  0.00    +0.000 S 
ATOM     24  C   UNL     1       2.731  14.675  18.520  0.00  0.00    +0.000 A 
ATOM     25  C   UNL     1       1.976  13.466  18.301  0.00  0.00    +0.000 A 
ATOM     26  O   UNL     1       2.476  12.398  17.961  0.00  0.00    +0.000 OA
ENDBRANCH  16  17
ENDBRANCH   2  16
TORSDOF 3
ENDMDL
MODEL 4
REMARK VINA RESULT:      -6.9      4.433      8.975
REMARK  Name = 
REMARK  3 active torsions:
REMARK  status: ('A' for Active; 'I' for Inactive)
REMARK    1  A    between atoms: C_2  and  C_3
REMARK    2  A    between atoms: C_3  and  N_4
REMARK    3  A    between atoms: N_17  and  C_18
REMARK                            x       y       z     vdW  Elec       q    Type
REMARK                         _______ _______ _______ _____ _____    ______ ____
ROOT
ATOM      1  O   UNL     1       2.064   8.955  17.329  0.00  0.00    +0.000 OA
ATOM      2  C   UNL     1       1.882   8.705  18.521  0.00  0.00    +0.000 C 
ATOM      3  N   UNL     1       0.807   9.243  19.217  0.00  0.00    +0.000 N 
ATOM      4  C   UNL     1       0.543   9.078  20.655  0.00  0.00    +0.000 C 
ATOM      5  C   UNL     1       0.460  10.435  21.377  0.00  0.00    +0.000 C 
ATOM      6  N   UNL     1      -0.512  11.291  20.684  0.00  0.00    +0.000 N 
ATOM      7  C   UNL     1      -0.242  11.500  19.250  0.00  0.00    +0.000 C 
ATOM      8  C   UNL     1      -0.132  10.145  18.529  0.00  0.00    +0.000 C 
ENDROOT
BRANCH   6   9
ATOM      9  C   UNL     1      -1.538  11.930  21.337  0.00  0.00    +0.000 A 
ATOM     10  C   UNL     1      -1.724  11.810  22.722  0.00  0.00    +0.000 A 
ATOM     11  C   UNL     1      -2.775  12.459  23.379  0.00  0.00    +0.000 A 
ATOM     12  C   UNL     1      -3.673  13.230  22.653  0.00  0.00    +0.000 A 
ATOM     13 CL   UNL     1      -4.974  14.019  23.452  0.00  0.00    +0.000 Cl
ATOM     14  C   UNL     1      -3.523  13.362  21.278  0.00  0.00    +0.000 A 
ATOM     15  C   UNL     1      -2.465  12.721  20.635  0.00  0.00    +0.000 A 
ENDBRANCH   6   9
BRANCH   2  16
ATOM     16  C   UNL     1       2.877   7.836  19.297  0.00  0.00    +0.000 C 
BRANCH  16  17
ATOM     17  N   UNL     1       2.756   6.429  18.927  0.00  0.00    +0.000 N 
ATOM     18  N   UNL     1       3.397   6.018  17.747  0.00  0.00    +0.000 NA
ATOM     19  C   UNL     1       3.333   4.770  17.380  0.00  0.00    +0.000 A 
ATOM     20  C   UNL     1       2.611   3.795  18.153  0.00  0.00    +0.000 A 
ATOM     21  C   UNL     1       2.412   2.404  17.913  0.00  0.00    +0.000 A 
ATOM     22  C   UNL     1       1.651   1.821  18.906  0.00  0.00    +0.000 A 
ATOM     23  S   UNL     1       1.193   2.950  20.115  0.00  0.00    +0.000 S 
ATOM     24  C   UNL     1       1.998   4.206  19.310  0.00  0.00    +0.000 A 
ATOM     25  C   UNL     1       2.047   5.566  19.789  0.00  0.00    +0.000 A 
ATOM     26  O   UNL     1       1.548   5.937  20.848  0.00  0.00    +0.000 OA
ENDBRANCH  16  17
ENDBRANCH   2  16
TORSDOF 3
ENDMDL
MODEL 5
REMARK VINA RESULT:      -6.9      2.739      3.697
REMARK  Name = 
REMARK  3 active torsions:
REMARK  status: ('A' for Active; 'I' for Inactive)
REMARK    1  A    between atoms: C_2  and  C_3
REMARK    2  A    between atoms: C_3  and  N_4
REMARK    3  A    between atoms: N_17  and  C_18
REMARK                            x       y       z     vdW  Elec       q    Type
REMARK                         _______ _______ _______ _____ _____    ______ ____
ROOT
ATOM      1  O   UNL     1      -0.926  12.779  20.611  0.00  0.00    +0.000 OA
ATOM      2  C   UNL     1      -0.512  11.884  21.350  0.00  0.00    +0.000 C 
ATOM      3  N   UNL     1       0.463  10.991  20.928  0.00  0.00    +0.000 N 
ATOM      4  C   UNL     1       0.968   9.840  21.694  0.00  0.00    +0.000 C 
ATOM      5  C   UNL     1       0.781   8.519  20.926  0.00  0.00    +0.000 C 
ATOM      6  N   UNL     1       1.370   8.652  19.588  0.00  0.00    +0.000 N 
ATOM      7  C   UNL     1       0.849   9.776  18.789  0.00  0.00    +0.000 C 
ATOM      8  C   UNL     1       1.010  11.096  19.564  0.00  0.00    +0.000 C 
ENDROOT
BRANCH   6   9
ATOM      9  C   UNL     1       2.266   7.744  19.077  0.00  0.00    +0.000 A 
ATOM     10  C   UNL     1       2.934   7.962  17.864  0.00  0.00    +0.000 A 
ATOM     11  C   UNL     1       3.840   7.031  17.348  0.00  0.00    +0.000 A 
ATOM     12  C   UNL     1       4.082   5.848  18.034  0.00  0.00    +0.000 A 
ATOM     13 CL   UNL     1       5.184   4.693  17.399  0.00  0.00    +0.000 Cl
ATOM     14  C   UNL     1       3.429   5.595  19.235  0.00  0.00    +0.000 A 
ATOM     15  C   UNL     1       2.537   6.536  19.747  0.00  0.00    +0.000 A 
ENDBRANCH   6   9
BRANCH   2  16
ATOM     16  C   UNL     1      -1.109  11.688  22.748  0.00  0.00    +0.000 C 
BRANCH  16  17
ATOM     17  N   UNL     1      -1.704  12.923  23.250  0.00  0.00    +0.000 N 
ATOM     18  N   UNL     1      -0.830  13.899  23.754  0.00  0.00    +0.000 NA
ATOM     19  C   UNL     1      -1.309  15.025  24.199  0.00  0.00    +0.000 A 
ATOM     20  C   UNL     1      -2.722  15.295  24.197  0.00  0.00    +0.000 A 
ATOM     21  C   UNL     1      -3.434  16.444  24.651  0.00  0.00    +0.000 A 
ATOM     22  C   UNL     1      -4.795  16.303  24.468  0.00  0.00    +0.000 A 
ATOM     23  S   UNL     1      -5.197  14.798  23.749  0.00  0.00    +0.000 S 
ATOM     24  C   UNL     1      -3.565  14.338  23.691  0.00  0.00    +0.000 A 
ATOM     25  C   UNL     1      -3.104  13.079  23.160  0.00  0.00    +0.000 A 
ATOM     26  O   UNL     1      -3.842  12.236  22.658  0.00  0.00    +0.000 OA
ENDBRANCH  16  17
ENDBRANCH   2  16
TORSDOF 3
ENDMDL
MODEL 6
REMARK VINA RESULT:      -6.9      1.425      1.772
REMARK  Name = 
REMARK  3 active torsions:
REMARK  status: ('A' for Active; 'I' for Inactive)
REMARK    1  A    between atoms: C_2  and  C_3
REMARK    2  A    between atoms: C_3  and  N_4
REMARK    3  A    between atoms: N_17  and  C_18
REMARK                            x       y       z     vdW  Elec       q    Type
REMARK                         _______ _______ _______ _____ _____    ______ ____
ROOT
ATOM      1  O   UNL     1      -1.150  11.062  22.368  0.00  0.00    +0.000 OA
ATOM      2  C   UNL     1      -0.970  11.096  21.150  0.00  0.00    +0.000 C 
ATOM      3  N   UNL     1      -0.404  10.024  20.472  0.00  0.00    +0.000 N 
ATOM      4  C   UNL     1      -0.070   9.991  19.039  0.00  0.00    +0.000 C 
ATOM      5  C   UNL     1       1.422   9.691  18.810  0.00  0.00    +0.000 C 
ATOM      6  N   UNL     1       1.786   8.469  19.538  0.00  0.00    +0.000 N 
ATOM      7  C   UNL     1       1.494   8.497  20.983  0.00  0.00    +0.000 C 
ATOM      8  C   UNL     1       0.009   8.823  21.217  0.00  0.00    +0.000 C 
ENDROOT
BRANCH   6   9
ATOM      9  C   UNL     1       2.437   7.415  18.943  0.00  0.00    +0.000 A 
ATOM     10  C   UNL     1       2.317   6.103  19.422  0.00  0.00    +0.000 A 
ATOM     11  C   UNL     1       2.987   5.036  18.814  0.00  0.00    +0.000 A 
ATOM     12  C   UNL     1       3.808   5.270  17.718  0.00  0.00    +0.000 A 
ATOM     13 CL   UNL     1       4.644   3.966  16.975  0.00  0.00    +0.000 Cl
ATOM     14  C   UNL     1       3.956   6.559  17.223  0.00  0.00    +0.000 A 
ATOM     15  C   UNL     1       3.274   7.614  17.829  0.00  0.00    +0.000 A 
ENDBRANCH   6   9
BRANCH   2  16
ATOM     16  C   UNL     1      -1.311  12.355  20.345  0.00  0.00    +0.000 C 
BRANCH  16  17
ATOM     17  N   UNL     1      -2.673  12.299  19.822  0.00  0.00    +0.000 N 
ATOM     18  N   UNL     1      -2.866  11.629  18.603  0.00  0.00    +0.000 NA
ATOM     19  C   UNL     1      -4.064  11.537  18.100  0.00  0.00    +0.000 A 
ATOM     20  C   UNL     1      -5.203  12.115  18.762  0.00  0.00    +0.000 A 
ATOM     21  C   UNL     1      -6.574  12.136  18.370  0.00  0.00    +0.000 A 
ATOM     22  C   UNL     1      -7.356  12.799  19.294  0.00  0.00    +0.000 A 
ATOM     23  S   UNL     1      -6.436  13.380  20.620  0.00  0.00    +0.000 S 
ATOM     24  C   UNL     1      -5.004  12.756  19.958  0.00  0.00    +0.000 A 
ATOM     25  C   UNL     1      -3.711  12.877  20.585  0.00  0.00    +0.000 A 
ATOM     26  O   UNL     1      -3.525  13.402  21.679  0.00  0.00    +0.000 OA
ENDBRANCH  16  17
ENDBRANCH   2  16
TORSDOF 3
ENDMDL
MODEL 7
REMARK VINA RESULT:      -6.9      2.627      3.483
REMARK  Name = 
REMARK  3 active torsions:
REMARK  status: ('A' for Active; 'I' for Inactive)
REMARK    1  A    between atoms: C_2  and  C_3
REMARK    2  A    between atoms: C_3  and  N_4
REMARK    3  A    between atoms: N_17  and  C_18
REMARK                            x       y       z     vdW  Elec       q    Type
REMARK                         _______ _______ _______ _____ _____    ______ ____
ROOT
ATOM      1  O   UNL     1      -0.943  12.975  20.806  0.00  0.00    +0.000 OA
ATOM      2  C   UNL     1      -0.543  12.064  21.532  0.00  0.00    +0.000 C 
ATOM      3  N   UNL     1       0.406  11.152  21.090  0.00  0.00    +0.000 N 
ATOM      4  C   UNL     1       0.891   9.982  21.840  0.00  0.00    +0.000 C 
ATOM      5  C   UNL     1       0.663   8.673  21.062  0.00  0.00    +0.000 C 
ATOM      6  N   UNL     1       1.240   8.804  19.718  0.00  0.00    +0.000 N 
ATOM      7  C   UNL     1       0.738   9.949  18.936  0.00  0.00    +0.000 C 
ATOM      8  C   UNL     1       0.939  11.256  19.721  0.00  0.00    +0.000 C 
ENDROOT
BRANCH   6   9
ATOM      9  C   UNL     1       2.108   7.880  19.189  0.00  0.00    +0.000 A 
ATOM     10  C   UNL     1       2.372   6.660  19.827  0.00  0.00    +0.000 A 
ATOM     11  C   UNL     1       3.261   5.726  19.285  0.00  0.00    +0.000 A 
ATOM     12  C   UNL     1       3.918   6.007  18.095  0.00  0.00    +0.000 A 
ATOM     13 CL   UNL     1       5.021   4.870  17.430  0.00  0.00    +0.000 Cl
ATOM     14  C   UNL     1       3.687   7.211  17.441  0.00  0.00    +0.000 A 
ATOM     15  C   UNL     1       2.789   8.130  17.984  0.00  0.00    +0.000 A 
ENDBRANCH   6   9
BRANCH   2  16
ATOM     16  C   UNL     1      -1.128  11.869  22.934  0.00  0.00    +0.000 C 
BRANCH  16  17
ATOM     17  N   UNL     1      -2.275  12.745  23.159  0.00  0.00    +0.000 N 
ATOM     18  N   UNL     1      -3.537  12.262  22.776  0.00  0.00    +0.000 NA
ATOM     19  C   UNL     1      -4.594  12.998  22.969  0.00  0.00    +0.000 A 
ATOM     20  C   UNL     1      -4.502  14.305  23.561  0.00  0.00    +0.000 A 
ATOM     21  C   UNL     1      -5.527  15.258  23.835  0.00  0.00    +0.000 A 
ATOM     22  C   UNL     1      -5.015  16.402  24.414  0.00  0.00    +0.000 A 
ATOM     23  S   UNL     1      -3.315  16.312  24.626  0.00  0.00    +0.000 S 
ATOM     24  C   UNL     1      -3.265  14.762  23.941  0.00  0.00    +0.000 A 
ATOM     25  C   UNL     1      -2.055  13.994  23.779  0.00  0.00    +0.000 A 
ATOM     26  O   UNL     1      -0.950  14.367  24.162  0.00  0.00    +0.000 OA
ENDBRANCH  16  17
ENDBRANCH   2  16
TORSDOF 3
ENDMDL
MODEL 8
REMARK VINA RESULT:      -6.9      0.745      1.200
REMARK  Name = 
REMARK  3 active torsions:
REMARK  status: ('A' for Active; 'I' for Inactive)
REMARK    1  A    between atoms: C_2  and  C_3
REMARK    2  A    between atoms: C_3  and  N_4
REMARK    3  A    between atoms: N_17  and  C_18
REMARK                            x       y       z     vdW  Elec       q    Type
REMARK                         _______ _______ _______ _____ _____    ______ ____
ROOT
ATOM      1  O   UNL     1      -1.152  11.613  22.382  0.00  0.00    +0.000 OA
ATOM      2  C   UNL     1      -1.040  11.417  21.172  0.00  0.00    +0.000 C 
ATOM      3  N   UNL     1      -0.532  10.224  20.676  0.00  0.00    +0.000 N 
ATOM      4  C   UNL     1      -0.278   9.917  19.259  0.00  0.00    +0.000 C 
ATOM      5  C   UNL     1       1.194   9.538  19.014  0.00  0.00    +0.000 C 
ATOM      6  N   UNL     1       1.575   8.462  19.937  0.00  0.00    +0.000 N 
ATOM      7  C   UNL     1       1.364   8.765  21.365  0.00  0.00    +0.000 C 
ATOM      8  C   UNL     1      -0.100   9.170  21.610  0.00  0.00    +0.000 C 
ENDROOT
BRANCH   6   9
ATOM      9  C   UNL     1       2.173   7.298  19.515  0.00  0.00    +0.000 A 
ATOM     10  C   UNL     1       2.854   7.216  18.293  0.00  0.00    +0.000 A 
ATOM     11  C   UNL     1       3.456   6.027  17.868  0.00  0.00    +0.000 A 
ATOM     12  C   UNL     1       3.369   4.887  18.658  0.00  0.00    +0.000 A 
ATOM     13 CL   UNL     1       4.094   3.420  18.135  0.00  0.00    +0.000 Cl
ATOM     14  C   UNL     1       2.693   4.932  19.870  0.00  0.00    +0.000 A 
ATOM     15  C   UNL     1       2.108   6.126  20.291  0.00  0.00    +0.000 A 
ENDBRANCH   6   9
BRANCH   2  16
ATOM     16  C   UNL     1      -1.402  12.515  20.166  0.00  0.00    +0.000 C 
BRANCH  16  17
ATOM     17  N   UNL     1      -2.847  12.709  20.088  0.00  0.00    +0.000 N 
ATOM     18  N   UNL     1      -3.424  13.611  20.998  0.00  0.00    +0.000 NA
ATOM     19  C   UNL     1      -4.707  13.832  20.960  0.00  0.00    +0.000 A 
ATOM     20  C   UNL     1      -5.557  13.166  20.009  0.00  0.00    +0.000 A 
ATOM     21  C   UNL     1      -6.967  13.259  19.822  0.00  0.00    +0.000 A 
ATOM     22  C   UNL     1      -7.397  12.448  18.791  0.00  0.00    +0.000 A 
ATOM     23  S   UNL     1      -6.102  11.594  18.059  0.00  0.00    +0.000 S 
ATOM     24  C   UNL     1      -4.980  12.297  19.118  0.00  0.00    +0.000 A 
ATOM     25  C   UNL     1      -3.565  12.021  19.086  0.00  0.00    +0.000 A 
ATOM     26  O   UNL     1      -3.028  11.286  18.263  0.00  0.00    +0.000 OA
ENDBRANCH  16  17
ENDBRANCH   2  16
TORSDOF 3
ENDMDL
MODEL 9
REMARK VINA RESULT:      -6.9      1.292      1.487
REMARK  Name = 
REMARK  3 active torsions:
REMARK  status: ('A' for Active; 'I' for Inactive)
REMARK    1  A    between atoms: C_2  and  C_3
REMARK    2  A    between atoms: C_3  and  N_4
REMARK    3  A    between atoms: N_17  and  C_18
REMARK                            x       y       z     vdW  Elec       q    Type
REMARK                         _______ _______ _______ _____ _____    ______ ____
ROOT
ATOM      1  O   UNL     1      -0.805  10.862  21.811  0.00  0.00    +0.000 OA
ATOM      2  C   UNL     1      -0.689  10.860  20.585  0.00  0.00    +0.000 C 
ATOM      3  N   UNL     1      -0.122   9.784  19.914  0.00  0.00    +0.000 N 
ATOM      4  C   UNL     1       0.139   9.712  18.467  0.00  0.00    +0.000 C 
ATOM      5  C   UNL     1       1.628   9.452  18.171  0.00  0.00    +0.000 C 
ATOM      6  N   UNL     1       2.069   8.268  18.919  0.00  0.00    +0.000 N 
ATOM      7  C   UNL     1       1.851   8.338  20.376  0.00  0.00    +0.000 C 
ATOM      8  C   UNL     1       0.369   8.624  20.676  0.00  0.00    +0.000 C 
ENDROOT
BRANCH   6   9
ATOM      9  C   UNL     1       2.724   7.215  18.326  0.00  0.00    +0.000 A 
ATOM     10  C   UNL     1       2.307   5.889  18.501  0.00  0.00    +0.000 A 
ATOM     11  C   UNL     1       2.982   4.822  17.899  0.00  0.00    +0.000 A 
ATOM     12  C   UNL     1       4.105   5.067  17.119  0.00  0.00    +0.000 A 
ATOM     13 CL   UNL     1       4.947   3.761  16.387  0.00  0.00    +0.000 Cl
ATOM     14  C   UNL     1       4.551   6.369  16.933  0.00  0.00    +0.000 A 
ATOM     15  C   UNL     1       3.863   7.426  17.528  0.00  0.00    +0.000 A 
ENDBRANCH   6   9
BRANCH   2  16
ATOM     16  C   UNL     1      -1.113  12.078  19.758  0.00  0.00    +0.000 C 
BRANCH  16  17
ATOM     17  N   UNL     1      -2.559  12.274  19.802  0.00  0.00    +0.000 N 
ATOM     18  N   UNL     1      -3.079  12.984  20.896  0.00  0.00    +0.000 NA
ATOM     19  C   UNL     1      -4.361  13.199  20.975  0.00  0.00    +0.000 A 
ATOM     20  C   UNL     1      -5.267  12.718  19.966  0.00  0.00    +0.000 A 
ATOM     21  C   UNL     1      -6.686  12.834  19.882  0.00  0.00    +0.000 A 
ATOM     22  C   UNL     1      -7.178  12.229  18.743  0.00  0.00    +0.000 A 
ATOM     23  S   UNL     1      -5.931  11.537  17.790  0.00  0.00    +0.000 S 
ATOM     24  C   UNL     1      -4.746  12.036  18.896  0.00  0.00    +0.000 A 
ATOM     25  C   UNL     1      -3.336  11.780  18.731  0.00  0.00    +0.000 A 
ATOM     26  O   UNL     1      -2.851  11.217  17.754  0.00  0.00    +0.000 OA
ENDBRANCH  16  17
ENDBRANCH   2  16
TORSDOF 3
ENDMDL
