MODEL 1
REMARK VINA RESULT:      -8.2      0.000      0.000
REMARK  Name = 
REMARK  9 active torsions:
REMARK  status: ('A' for Active; 'I' for Inactive)
REMARK    1  A    between atoms: C_2  and  C_3
REMARK    2  A    between atoms: C_3  and  C_4
REMARK    3  A    between atoms: C_4  and  C_5
REMARK    4  A    between atoms: C_5  and  C_6
REMARK    5  A    between atoms: C_6  and  C_7
REMARK    6  A    between atoms: N_12  and  C_13
REMARK    7  A    between atoms: C_13  and  C_14
REMARK    8  A    between atoms: C_14  and  C_15
REMARK    9  A    between atoms: C_15  and  N_16
REMARK                            x       y       z     vdW  Elec       q    Type
REMARK                         _______ _______ _______ _____ _____    ______ ____
ROOT
ATOM      1  C   UNL     1       5.134   4.050  16.303  0.00  0.00    +0.000 C 
ENDROOT
BRANCH   1   2
ATOM      2  N   UNL     1       4.245   5.066  16.838  0.00  0.00    +0.000 NA
ATOM      3  C   UNL     1       3.477   4.912  17.841  0.00  0.00    +0.000 A 
ATOM      4  C   UNL     1       2.873   6.186  18.402  0.00  0.00    +0.000 A 
ATOM      5  C   UNL     1       2.948   7.394  17.701  0.00  0.00    +0.000 A 
ATOM      6  C   UNL     1       2.396   8.545  18.253  0.00  0.00    +0.000 A 
ATOM      7  C   UNL     1       1.740   8.481  19.483  0.00  0.00    +0.000 A 
ATOM      8 CL   UNL     1       1.024   9.903  20.140  0.00  0.00    +0.000 Cl
ATOM      9  C   UNL     1       1.700   7.292  20.208  0.00  0.00    +0.000 A 
ATOM     10  C   UNL     1       2.303   6.139  19.696  0.00  0.00    +0.000 A 
ATOM     11  N   UNL     1       2.453   5.020  20.556  0.00  0.00    +0.000 NA
ATOM     12  C   UNL     1       2.911   3.961  19.974  0.00  0.00    +0.000 A 
ATOM     13  N   UNL     1       3.139   3.815  18.618  0.00  0.00    +0.000 N 
ATOM     14  C   UNL     1       3.334   2.402  18.367  0.00  0.00    +0.000 C 
ATOM     15  C   UNL     1       4.167   2.035  19.586  0.00  0.00    +0.000 C 
ATOM     16  C   UNL     1       3.394   2.737  20.716  0.00  0.00    +0.000 C 
ENDBRANCH   1   2
BRANCH   1  17
ATOM     17  C   UNL     1       6.442   4.722  15.901  0.00  0.00    +0.000 C 
BRANCH  17  18
ATOM     18  C   UNL     1       7.174   5.341  17.090  0.00  0.00    +0.000 C 
BRANCH  18  21
ATOM     19  O   UNL     1       8.412   7.025  19.011  0.00  0.00    +0.000 OA
ATOM     20  C   UNL     1       7.919   7.519  18.005  0.00  0.00    +0.000 C 
ATOM     21  N   UNL     1       7.275   6.788  17.030  0.00  0.00    +0.000 N 
ATOM     22  H   UNL     1       6.954   7.259  16.195  0.00  0.00    +0.000 HD
BRANCH  20  23
ATOM     23  C   UNL     1       7.991   9.007  17.719  0.00  0.00    +0.000 C 
BRANCH  23  24
ATOM     24  C   UNL     1       8.816   9.761  18.760  0.00  0.00    +0.000 C 
BRANCH  24  25
ATOM     25  C   UNL     1       9.749  10.774  18.093  0.00  0.00    +0.000 C 
BRANCH  25  26
ATOM     26  C   UNL     1       9.152  12.188  18.123  0.00  0.00    +0.000 C 
BRANCH  26  27
ATOM     27  C   UNL     1      10.093  13.268  17.558  0.00  0.00    +0.000 C 
ATOM     28  C   UNL     1      11.547  13.088  18.022  0.00  0.00    +0.000 C 
ATOM     29  C   UNL     1      11.703  13.413  19.506  0.00  0.00    +0.000 C 
ATOM     30  S   UNL     1      10.731  14.900  19.869  0.00  0.00    +0.000 S 
ATOM     31  S   UNL     1       9.663  14.946  18.121  0.00  0.00    +0.000 S 
ENDBRANCH  26  27
ENDBRANCH  25  26
ENDBRANCH  24  25
ENDBRANCH  23  24
ENDBRANCH  20  23
ENDBRANCH  18  21
ENDBRANCH  17  18
ENDBRANCH   1  17
TORSDOF 9
ENDMDL
MODEL 2
REMARK VINA RESULT:      -8.0      1.051      1.096
REMARK  Name = 
REMARK  9 active torsions:
REMARK  status: ('A' for Active; 'I' for Inactive)
REMARK    1  A    between atoms: C_2  and  C_3
REMARK    2  A    between atoms: C_3  and  C_4
REMARK    3  A    between atoms: C_4  and  C_5
REMARK    4  A    between atoms: C_5  and  C_6
REMARK    5  A    between atoms: C_6  and  C_7
REMARK    6  A    between atoms: N_12  and  C_13
REMARK    7  A    between atoms: C_13  and  C_14
REMARK    8  A    between atoms: C_14  and  C_15
REMARK    9  A    between atoms: C_15  and  N_16
REMARK                            x       y       z     vdW  Elec       q    Type
REMARK                         _______ _______ _______ _____ _____    ______ ____
ROOT
ATOM      1  C   UNL     1       4.785   4.404  16.622  0.00  0.00    +0.000 C 
ENDROOT
BRANCH   1   2
ATOM      2  N   UNL     1       3.895   5.382  17.223  0.00  0.00    +0.000 NA
ATOM      3  C   UNL     1       3.129   5.163  18.215  0.00  0.00    +0.000 A 
ATOM      4  C   UNL     1       2.525   6.399  18.858  0.00  0.00    +0.000 A 
ATOM      5  C   UNL     1       2.598   7.649  18.236  0.00  0.00    +0.000 A 
ATOM      6  C   UNL     1       2.045   8.762  18.862  0.00  0.00    +0.000 A 
ATOM      7  C   UNL     1       1.392   8.618  20.086  0.00  0.00    +0.000 A 
ATOM      8 CL   UNL     1       0.676   9.994  20.835  0.00  0.00    +0.000 Cl
ATOM      9  C   UNL     1       1.353   7.384  20.733  0.00  0.00    +0.000 A 
ATOM     10  C   UNL     1       1.957   6.268  20.147  0.00  0.00    +0.000 A 
ATOM     11  N   UNL     1       2.109   5.096  20.933  0.00  0.00    +0.000 NA
ATOM     12  C   UNL     1       2.567   4.076  20.283  0.00  0.00    +0.000 A 
ATOM     13  N   UNL     1       2.793   4.018  18.921  0.00  0.00    +0.000 N 
ATOM     14  C   UNL     1       2.989   2.625  18.579  0.00  0.00    +0.000 C 
ATOM     15  C   UNL     1       3.823   2.181  19.770  0.00  0.00    +0.000 C 
ATOM     16  C   UNL     1       3.052   2.807  20.943  0.00  0.00    +0.000 C 
ENDBRANCH   1   2
BRANCH   1  17
ATOM     17  C   UNL     1       5.774   5.142  15.729  0.00  0.00    +0.000 C 
BRANCH  17  18
ATOM     18  C   UNL     1       7.058   5.522  16.463  0.00  0.00    +0.000 C 
BRANCH  18  21
ATOM     19  O   UNL     1       8.159   6.796  18.749  0.00  0.00    +0.000 OA
ATOM     20  C   UNL     1       7.792   7.475  17.798  0.00  0.00    +0.000 C 
ATOM     21  N   UNL     1       7.224   6.951  16.658  0.00  0.00    +0.000 N 
ATOM     22  H   UNL     1       7.009   7.570  15.887  0.00  0.00    +0.000 HD
BRANCH  20  23
ATOM     23  C   UNL     1       7.954   8.983  17.776  0.00  0.00    +0.000 C 
BRANCH  23  24
ATOM     24  C   UNL     1       8.928   9.480  18.841  0.00  0.00    +0.000 C 
BRANCH  24  25
ATOM     25  C   UNL     1       9.775  10.641  18.312  0.00  0.00    +0.000 C 
BRANCH  25  26
ATOM     26  C   UNL     1       8.942  11.921  18.167  0.00  0.00    +0.000 C 
BRANCH  26  27
ATOM     27  C   UNL     1       9.584  13.155  18.827  0.00  0.00    +0.000 C 
ATOM     28  C   UNL     1      10.679  12.782  19.838  0.00  0.00    +0.000 C 
ATOM     29  C   UNL     1      10.085  12.146  21.094  0.00  0.00    +0.000 C 
ATOM     30  S   UNL     1       8.595  13.072  21.551  0.00  0.00    +0.000 S 
ATOM     31  S   UNL     1       8.400  14.130  19.808  0.00  0.00    +0.000 S 
ENDBRANCH  26  27
ENDBRANCH  25  26
ENDBRANCH  24  25
ENDBRANCH  23  24
ENDBRANCH  20  23
ENDBRANCH  18  21
ENDBRANCH  17  18
ENDBRANCH   1  17
TORSDOF 9
ENDMDL
MODEL 3
REMARK VINA RESULT:      -7.8      6.048      8.510
REMARK  Name = 
REMARK  9 active torsions:
REMARK  status: ('A' for Active; 'I' for Inactive)
REMARK    1  A    between atoms: C_2  and  C_3
REMARK    2  A    between atoms: C_3  and  C_4
REMARK    3  A    between atoms: C_4  and  C_5
REMARK    4  A    between atoms: C_5  and  C_6
REMARK    5  A    between atoms: C_6  and  C_7
REMARK    6  A    between atoms: N_12  and  C_13
REMARK    7  A    between atoms: C_13  and  C_14
REMARK    8  A    between atoms: C_14  and  C_15
REMARK    9  A    between atoms: C_15  and  N_16
REMARK                            x       y       z     vdW  Elec       q    Type
REMARK                         _______ _______ _______ _____ _____    ______ ____
ROOT
ATOM      1  C   UNL     1       1.511   6.899  20.669  0.00  0.00    +0.000 C 
ENDROOT
BRANCH   1   2
ATOM      2  N   UNL     1       2.544   6.626  19.685  0.00  0.00    +0.000 NA
ATOM      3  C   UNL     1       3.006   5.473  19.410  0.00  0.00    +0.000 A 
ATOM      4  C   UNL     1       3.850   5.393  18.150  0.00  0.00    +0.000 A 
ATOM      5  C   UNL     1       4.298   6.549  17.502  0.00  0.00    +0.000 A 
ATOM      6  C   UNL     1       5.057   6.437  16.342  0.00  0.00    +0.000 A 
ATOM      7  C   UNL     1       5.397   5.175  15.852  0.00  0.00    +0.000 A 
ATOM      8 CL   UNL     1       6.370   5.045  14.438  0.00  0.00    +0.000 Cl
ATOM      9  C   UNL     1       4.918   4.019  16.467  0.00  0.00    +0.000 A 
ATOM     10  C   UNL     1       4.103   4.115  17.599  0.00  0.00    +0.000 A 
ATOM     11  N   UNL     1       3.441   2.944  18.052  0.00  0.00    +0.000 NA
ATOM     12  C   UNL     1       2.805   3.091  19.167  0.00  0.00    +0.000 A 
ATOM     13  N   UNL     1       2.822   4.218  19.968  0.00  0.00    +0.000 N 
ATOM     14  C   UNL     1       2.252   3.843  21.246  0.00  0.00    +0.000 C 
ATOM     15  C   UNL     1       1.119   2.948  20.771  0.00  0.00    +0.000 C 
ATOM     16  C   UNL     1       1.825   2.081  19.716  0.00  0.00    +0.000 C 
ENDBRANCH   1   2
BRANCH   1  17
ATOM     17  C   UNL     1       1.632   8.356  21.099  0.00  0.00    +0.000 C 
BRANCH  17  18
ATOM     18  C   UNL     1       0.898   9.309  20.159  0.00  0.00    +0.000 C 
BRANCH  18  21
ATOM     19  O   UNL     1       1.441  11.867  21.265  0.00  0.00    +0.000 OA
ATOM     20  C   UNL     1       0.302  11.419  21.312  0.00  0.00    +0.000 C 
ATOM     21  N   UNL     1      -0.053  10.179  20.828  0.00  0.00    +0.000 N 
ATOM     22  H   UNL     1      -1.027   9.907  20.842  0.00  0.00    +0.000 HD
BRANCH  20  23
ATOM     23  C   UNL     1      -0.851  12.210  21.901  0.00  0.00    +0.000 C 
BRANCH  23  24
ATOM     24  C   UNL     1      -1.965  12.458  20.887  0.00  0.00    +0.000 C 
BRANCH  24  25
ATOM     25  C   UNL     1      -1.434  13.203  19.658  0.00  0.00    +0.000 C 
BRANCH  25  26
ATOM     26  C   UNL     1      -1.618  12.374  18.380  0.00  0.00    +0.000 C 
BRANCH  26  27
ATOM     27  C   UNL     1      -2.563  11.171  18.554  0.00  0.00    +0.000 C 
ATOM     28  C   UNL     1      -2.138   9.958  17.712  0.00  0.00    +0.000 C 
ATOM     29  C   UNL     1      -2.369  10.206  16.222  0.00  0.00    +0.000 C 
ATOM     30  S   UNL     1      -3.971  11.030  16.023  0.00  0.00    +0.000 S 
ATOM     31  S   UNL     1      -4.260  11.516  17.992  0.00  0.00    +0.000 S 
ENDBRANCH  26  27
ENDBRANCH  25  26
ENDBRANCH  24  25
ENDBRANCH  23  24
ENDBRANCH  20  23
ENDBRANCH  18  21
ENDBRANCH  17  18
ENDBRANCH   1  17
TORSDOF 9
ENDMDL
MODEL 4
REMARK VINA RESULT:      -7.8      1.423      1.739
REMARK  Name = 
REMARK  9 active torsions:
REMARK  status: ('A' for Active; 'I' for Inactive)
REMARK    1  A    between atoms: C_2  and  C_3
REMARK    2  A    between atoms: C_3  and  C_4
REMARK    3  A    between atoms: C_4  and  C_5
REMARK    4  A    between atoms: C_5  and  C_6
REMARK    5  A    between atoms: C_6  and  C_7
REMARK    6  A    between atoms: N_12  and  C_13
REMARK    7  A    between atoms: C_13  and  C_14
REMARK    8  A    between atoms: C_14  and  C_15
REMARK    9  A    between atoms: C_15  and  N_16
REMARK                            x       y       z     vdW  Elec       q    Type
REMARK                         _______ _______ _______ _____ _____    ______ ____
ROOT
ATOM      1  C   UNL     1       4.822   3.659  17.559  0.00  0.00    +0.000 C 
ENDROOT
BRANCH   1   2
ATOM      2  N   UNL     1       4.034   4.876  17.645  0.00  0.00    +0.000 NA
ATOM      3  C   UNL     1       3.092   5.082  18.476  0.00  0.00    +0.000 A 
ATOM      4  C   UNL     1       2.619   6.520  18.583  0.00  0.00    +0.000 A 
ATOM      5  C   UNL     1       3.008   7.483  17.646  0.00  0.00    +0.000 A 
ATOM      6  C   UNL     1       2.567   8.795  17.785  0.00  0.00    +0.000 A 
ATOM      7  C   UNL     1       1.711   9.134  18.833  0.00  0.00    +0.000 A 
ATOM      8 CL   UNL     1       1.137  10.751  18.974  0.00  0.00    +0.000 Cl
ATOM      9  C   UNL     1       1.354   8.190  19.795  0.00  0.00    +0.000 A 
ATOM     10  C   UNL     1       1.838   6.882  19.705  0.00  0.00    +0.000 A 
ATOM     11  N   UNL     1       1.655   6.020  20.818  0.00  0.00    +0.000 NA
ATOM     12  C   UNL     1       2.024   4.799  20.610  0.00  0.00    +0.000 A 
ATOM     13  N   UNL     1       2.452   4.275  19.404  0.00  0.00    +0.000 N 
ATOM     14  C   UNL     1       2.453   2.833  19.540  0.00  0.00    +0.000 C 
ATOM     15  C   UNL     1       2.995   2.707  20.955  0.00  0.00    +0.000 C 
ATOM     16  C   UNL     1       2.168   3.766  21.703  0.00  0.00    +0.000 C 
ENDBRANCH   1   2
BRANCH   1  17
ATOM     17  C   UNL     1       5.101   3.372  16.089  0.00  0.00    +0.000 C 
BRANCH  17  18
ATOM     18  C   UNL     1       6.266   4.192  15.540  0.00  0.00    +0.000 C 
BRANCH  18  21
ATOM     19  O   UNL     1       6.074   7.005  15.871  0.00  0.00    +0.000 OA
ATOM     20  C   UNL     1       6.771   6.354  16.639  0.00  0.00    +0.000 C 
ATOM     21  N   UNL     1       6.947   4.991  16.543  0.00  0.00    +0.000 N 
ATOM     22  H   UNL     1       7.484   4.514  17.256  0.00  0.00    +0.000 HD
BRANCH  20  23
ATOM     23  C   UNL     1       7.502   6.995  17.804  0.00  0.00    +0.000 C 
BRANCH  23  24
ATOM     24  C   UNL     1       7.551   8.517  17.694  0.00  0.00    +0.000 C 
BRANCH  24  25
ATOM     25  C   UNL     1       8.754   9.084  18.453  0.00  0.00    +0.000 C 
BRANCH  25  26
ATOM     26  C   UNL     1       8.758  10.618  18.428  0.00  0.00    +0.000 C 
BRANCH  26  27
ATOM     27  C   UNL     1      10.160  11.230  18.258  0.00  0.00    +0.000 C 
ATOM     28  C   UNL     1      10.945  11.289  19.577  0.00  0.00    +0.000 C 
ATOM     29  C   UNL     1      10.362  12.335  20.526  0.00  0.00    +0.000 C 
ATOM     30  S   UNL     1       9.947  13.812  19.561  0.00  0.00    +0.000 S 
ATOM     31  S   UNL     1      10.113  12.964  17.703  0.00  0.00    +0.000 S 
ENDBRANCH  26  27
ENDBRANCH  25  26
ENDBRANCH  24  25
ENDBRANCH  23  24
ENDBRANCH  20  23
ENDBRANCH  18  21
ENDBRANCH  17  18
ENDBRANCH   1  17
TORSDOF 9
ENDMDL
MODEL 5
REMARK VINA RESULT:      -7.6      6.682     10.005
REMARK  Name = 
REMARK  9 active torsions:
REMARK  status: ('A' for Active; 'I' for Inactive)
REMARK    1  A    between atoms: C_2  and  C_3
REMARK    2  A    between atoms: C_3  and  C_4
REMARK    3  A    between atoms: C_4  and  C_5
REMARK    4  A    between atoms: C_5  and  C_6
REMARK    5  A    between atoms: C_6  and  C_7
REMARK    6  A    between atoms: N_12  and  C_13
REMARK    7  A    between atoms: C_13  and  C_14
REMARK    8  A    between atoms: C_14  and  C_15
REMARK    9  A    between atoms: C_15  and  N_16
REMARK                            x       y       z     vdW  Elec       q    Type
REMARK                         _______ _______ _______ _____ _____    ______ ____
ROOT
ATOM      1  C   UNL     1       1.801   7.952  19.850  0.00  0.00    +0.000 C 
ENDROOT
BRANCH   1   2
ATOM      2  N   UNL     1       2.804   7.412  18.949  0.00  0.00    +0.000 NA
ATOM      3  C   UNL     1       3.100   6.179  18.837  0.00  0.00    +0.000 A 
ATOM      4  C   UNL     1       3.948   5.819  17.631  0.00  0.00    +0.000 A 
ATOM      5  C   UNL     1       4.573   6.807  16.862  0.00  0.00    +0.000 A 
ATOM      6  C   UNL     1       5.331   6.440  15.756  0.00  0.00    +0.000 A 
ATOM      7  C   UNL     1       5.495   5.090  15.441  0.00  0.00    +0.000 A 
ATOM      8 CL   UNL     1       6.468   4.643  14.093  0.00  0.00    +0.000 Cl
ATOM      9  C   UNL     1       4.840   4.103  16.176  0.00  0.00    +0.000 A 
ATOM     10  C   UNL     1       4.025   4.458  17.254  0.00  0.00    +0.000 A 
ATOM     11  N   UNL     1       3.191   3.460  17.823  0.00  0.00    +0.000 NA
ATOM     12  C   UNL     1       2.560   3.838  18.886  0.00  0.00    +0.000 A 
ATOM     13  N   UNL     1       2.723   5.045  19.539  0.00  0.00    +0.000 N 
ATOM     14  C   UNL     1       2.079   4.923  20.831  0.00  0.00    +0.000 C 
ATOM     15  C   UNL     1       0.838   4.143  20.427  0.00  0.00    +0.000 C 
ATOM     16  C   UNL     1       1.433   3.056  19.517  0.00  0.00    +0.000 C 
ENDBRANCH   1   2
BRANCH   1  17
ATOM     17  C   UNL     1       1.240   9.227  19.231  0.00  0.00    +0.000 C 
BRANCH  17  18
ATOM     18  C   UNL     1       0.054   9.787  20.014  0.00  0.00    +0.000 C 
BRANCH  18  21
ATOM     19  O   UNL     1      -1.093   9.425  17.442  0.00  0.00    +0.000 OA
ATOM     20  C   UNL     1      -1.268  10.481  18.038  0.00  0.00    +0.000 C 
ATOM     21  N   UNL     1      -0.732  10.759  19.276  0.00  0.00    +0.000 N 
ATOM     22  H   UNL     1      -0.979  11.627  19.734  0.00  0.00    +0.000 HD
BRANCH  20  23
ATOM     23  C   UNL     1      -2.128  11.594  17.468  0.00  0.00    +0.000 C 
BRANCH  23  24
ATOM     24  C   UNL     1      -3.185  11.075  16.496  0.00  0.00    +0.000 C 
BRANCH  24  25
ATOM     25  C   UNL     1      -4.573  11.609  16.858  0.00  0.00    +0.000 C 
BRANCH  25  26
ATOM     26  C   UNL     1      -5.110  10.952  18.136  0.00  0.00    +0.000 C 
BRANCH  26  27
ATOM     27  C   UNL     1      -6.640  11.045  18.284  0.00  0.00    +0.000 C 
ATOM     28  C   UNL     1      -7.188  12.428  17.899  0.00  0.00    +0.000 C 
ATOM     29  C   UNL     1      -6.803  13.488  18.930  0.00  0.00    +0.000 C 
ATOM     30  S   UNL     1      -7.005  12.774  20.583  0.00  0.00    +0.000 S 
ATOM     31  S   UNL     1      -7.200  10.819  20.002  0.00  0.00    +0.000 S 
ENDBRANCH  26  27
ENDBRANCH  25  26
ENDBRANCH  24  25
ENDBRANCH  23  24
ENDBRANCH  20  23
ENDBRANCH  18  21
ENDBRANCH  17  18
ENDBRANCH   1  17
TORSDOF 9
ENDMDL
MODEL 6
REMARK VINA RESULT:      -7.5      5.230      8.510
REMARK  Name = 
REMARK  9 active torsions:
REMARK  status: ('A' for Active; 'I' for Inactive)
REMARK    1  A    between atoms: C_2  and  C_3
REMARK    2  A    between atoms: C_3  and  C_4
REMARK    3  A    between atoms: C_4  and  C_5
REMARK    4  A    between atoms: C_5  and  C_6
REMARK    5  A    between atoms: C_6  and  C_7
REMARK    6  A    between atoms: N_12  and  C_13
REMARK    7  A    between atoms: C_13  and  C_14
REMARK    8  A    between atoms: C_14  and  C_15
REMARK    9  A    between atoms: C_15  and  N_16
REMARK                            x       y       z     vdW  Elec       q    Type
REMARK                         _______ _______ _______ _____ _____    ______ ____
ROOT
ATOM      1  C   UNL     1       1.618   9.968  18.135  0.00  0.00    +0.000 C 
ENDROOT
BRANCH   1   2
ATOM      2  N   UNL     1       0.169  10.038  18.197  0.00  0.00    +0.000 NA
ATOM      3  C   UNL     1      -0.495  10.780  18.991  0.00  0.00    +0.000 A 
ATOM      4  C   UNL     1      -1.973  10.915  18.674  0.00  0.00    +0.000 A 
ATOM      5  C   UNL     1      -2.595  10.075  17.744  0.00  0.00    +0.000 A 
ATOM      6  C   UNL     1      -3.949  10.238  17.468  0.00  0.00    +0.000 A 
ATOM      7  C   UNL     1      -4.685  11.212  18.145  0.00  0.00    +0.000 A 
ATOM      8 CL   UNL     1      -6.369  11.380  17.827  0.00  0.00    +0.000 Cl
ATOM      9  C   UNL     1      -4.063  12.080  19.040  0.00  0.00    +0.000 A 
ATOM     10  C   UNL     1      -2.691  11.970  19.284  0.00  0.00    +0.000 A 
ATOM     11  N   UNL     1      -2.051  13.011  20.006  0.00  0.00    +0.000 NA
ATOM     12  C   UNL     1      -0.811  12.777  20.290  0.00  0.00    +0.000 A 
ATOM     13  N   UNL     1      -0.135  11.594  20.053  0.00  0.00    +0.000 N 
ATOM     14  C   UNL     1       1.102  11.652  20.803  0.00  0.00    +0.000 C 
ATOM     15  C   UNL     1       1.480  13.106  20.567  0.00  0.00    +0.000 C 
ATOM     16  C   UNL     1       0.143  13.822  20.818  0.00  0.00    +0.000 C 
ENDBRANCH   1   2
BRANCH   1  17
ATOM     17  C   UNL     1       2.015   8.528  17.832  0.00  0.00    +0.000 C 
BRANCH  17  18
ATOM     18  C   UNL     1       2.270   7.710  19.096  0.00  0.00    +0.000 C 
BRANCH  18  21
ATOM     19  O   UNL     1       1.666   5.637  20.939  0.00  0.00    +0.000 OA
ATOM     20  C   UNL     1       2.051   5.349  19.812  0.00  0.00    +0.000 C 
ATOM     21  N   UNL     1       2.392   6.283  18.859  0.00  0.00    +0.000 N 
ATOM     22  H   UNL     1       2.636   5.969  17.929  0.00  0.00    +0.000 HD
BRANCH  20  23
ATOM     23  C   UNL     1       2.169   3.911  19.344  0.00  0.00    +0.000 C 
BRANCH  23  24
ATOM     24  C   UNL     1       1.917   3.764  17.845  0.00  0.00    +0.000 C 
BRANCH  24  25
ATOM     25  C   UNL     1       3.059   3.000  17.169  0.00  0.00    +0.000 C 
BRANCH  25  26
ATOM     26  C   UNL     1       4.410   3.689  17.407  0.00  0.00    +0.000 C 
BRANCH  26  27
ATOM     27  C   UNL     1       4.934   4.461  16.183  0.00  0.00    +0.000 C 
ATOM     28  C   UNL     1       6.364   4.055  15.795  0.00  0.00    +0.000 C 
ATOM     29  C   UNL     1       7.383   4.550  16.821  0.00  0.00    +0.000 C 
ATOM     30  S   UNL     1       6.935   6.240  17.298  0.00  0.00    +0.000 S 
ATOM     31  S   UNL     1       5.058   6.254  16.478  0.00  0.00    +0.000 S 
ENDBRANCH  26  27
ENDBRANCH  25  26
ENDBRANCH  24  25
ENDBRANCH  23  24
ENDBRANCH  20  23
ENDBRANCH  18  21
ENDBRANCH  17  18
ENDBRANCH   1  17
TORSDOF 9
ENDMDL
MODEL 7
REMARK VINA RESULT:      -7.4      6.601      9.547
REMARK  Name = 
REMARK  9 active torsions:
REMARK  status: ('A' for Active; 'I' for Inactive)
REMARK    1  A    between atoms: C_2  and  C_3
REMARK    2  A    between atoms: C_3  and  C_4
REMARK    3  A    between atoms: C_4  and  C_5
REMARK    4  A    between atoms: C_5  and  C_6
REMARK    5  A    between atoms: C_6  and  C_7
REMARK    6  A    between atoms: N_12  and  C_13
REMARK    7  A    between atoms: C_13  and  C_14
REMARK    8  A    between atoms: C_14  and  C_15
REMARK    9  A    between atoms: C_15  and  N_16
REMARK                            x       y       z     vdW  Elec       q    Type
REMARK                         _______ _______ _______ _____ _____    ______ ____
ROOT
ATOM      1  C   UNL     1       1.507   6.950  20.318  0.00  0.00    +0.000 C 
ENDROOT
BRANCH   1   2
ATOM      2  N   UNL     1       2.576   6.667  19.375  0.00  0.00    +0.000 NA
ATOM      3  C   UNL     1       3.083   5.518  19.167  0.00  0.00    +0.000 A 
ATOM      4  C   UNL     1       3.963   5.407  17.936  0.00  0.00    +0.000 A 
ATOM      5  C   UNL     1       4.391   6.546  17.245  0.00  0.00    +0.000 A 
ATOM      6  C   UNL     1       5.185   6.405  16.111  0.00  0.00    +0.000 A 
ATOM      7  C   UNL     1       5.579   5.133  15.692  0.00  0.00    +0.000 A 
ATOM      8 CL   UNL     1       6.595   4.970  14.311  0.00  0.00    +0.000 Cl
ATOM      9  C   UNL     1       5.121   3.993  16.349  0.00  0.00    +0.000 A 
ATOM     10  C   UNL     1       4.273   4.114  17.453  0.00  0.00    +0.000 A 
ATOM     11  N   UNL     1       3.638   2.943  17.945  0.00  0.00    +0.000 NA
ATOM     12  C   UNL     1       2.966   3.121  19.035  0.00  0.00    +0.000 A 
ATOM     13  N   UNL     1       2.924   4.285  19.780  0.00  0.00    +0.000 N 
ATOM     14  C   UNL     1       2.332   3.952  21.060  0.00  0.00    +0.000 C 
ATOM     15  C   UNL     1       1.242   2.997  20.599  0.00  0.00    +0.000 C 
ATOM     16  C   UNL     1       2.005   2.106  19.606  0.00  0.00    +0.000 C 
ENDBRANCH   1   2
BRANCH   1  17
ATOM     17  C   UNL     1       1.703   8.364  20.852  0.00  0.00    +0.000 C 
BRANCH  17  18
ATOM     18  C   UNL     1       0.386   9.120  21.011  0.00  0.00    +0.000 C 
BRANCH  18  21
ATOM     19  O   UNL     1      -1.235  11.446  20.865  0.00  0.00    +0.000 OA
ATOM     20  C   UNL     1      -0.830  10.926  19.832  0.00  0.00    +0.000 C 
ATOM     21  N   UNL     1      -0.062   9.784  19.800  0.00  0.00    +0.000 N 
ATOM     22  H   UNL     1       0.291   9.453  18.912  0.00  0.00    +0.000 HD
BRANCH  20  23
ATOM     23  C   UNL     1      -1.124  11.516  18.465  0.00  0.00    +0.000 C 
BRANCH  23  24
ATOM     24  C   UNL     1      -1.908  10.556  17.573  0.00  0.00    +0.000 C 
BRANCH  24  25
ATOM     25  C   UNL     1      -3.302  11.108  17.264  0.00  0.00    +0.000 C 
BRANCH  25  26
ATOM     26  C   UNL     1      -4.141  11.256  18.541  0.00  0.00    +0.000 C 
BRANCH  26  27
ATOM     27  C   UNL     1      -5.291  12.271  18.411  0.00  0.00    +0.000 C 
ATOM     28  C   UNL     1      -5.436  13.164  19.653  0.00  0.00    +0.000 C 
ATOM     29  C   UNL     1      -5.971  12.375  20.847  0.00  0.00    +0.000 C 
ATOM     30  S   UNL     1      -7.293  11.281  20.261  0.00  0.00    +0.000 S 
ATOM     31  S   UNL     1      -6.922  11.475  18.256  0.00  0.00    +0.000 S 
ENDBRANCH  26  27
ENDBRANCH  25  26
ENDBRANCH  24  25
ENDBRANCH  23  24
ENDBRANCH  20  23
ENDBRANCH  18  21
ENDBRANCH  17  18
ENDBRANCH   1  17
TORSDOF 9
ENDMDL
MODEL 8
REMARK VINA RESULT:      -7.4      1.259      1.548
REMARK  Name = 
REMARK  9 active torsions:
REMARK  status: ('A' for Active; 'I' for Inactive)
REMARK    1  A    between atoms: C_2  and  C_3
REMARK    2  A    between atoms: C_3  and  C_4
REMARK    3  A    between atoms: C_4  and  C_5
REMARK    4  A    between atoms: C_5  and  C_6
REMARK    5  A    between atoms: C_6  and  C_7
REMARK    6  A    between atoms: N_12  and  C_13
REMARK    7  A    between atoms: C_13  and  C_14
REMARK    8  A    between atoms: C_14  and  C_15
REMARK    9  A    between atoms: C_15  and  N_16
REMARK                            x       y       z     vdW  Elec       q    Type
REMARK                         _______ _______ _______ _____ _____    ______ ____
ROOT
ATOM      1  C   UNL     1       3.725   3.619  16.961  0.00  0.00    +0.000 C 
ENDROOT
BRANCH   1   2
ATOM      2  N   UNL     1       3.120   4.898  17.287  0.00  0.00    +0.000 NA
ATOM      3  C   UNL     1       2.437   5.140  18.333  0.00  0.00    +0.000 A 
ATOM      4  C   UNL     1       2.166   6.607  18.611  0.00  0.00    +0.000 A 
ATOM      5  C   UNL     1       2.420   7.587  17.646  0.00  0.00    +0.000 A 
ATOM      6  C   UNL     1       2.173   8.924  17.941  0.00  0.00    +0.000 A 
ATOM      7  C   UNL     1       1.640   9.275  19.182  0.00  0.00    +0.000 A 
ATOM      8 CL   UNL     1       1.300  10.928  19.525  0.00  0.00    +0.000 Cl
ATOM      9  C   UNL     1       1.425   8.310  20.164  0.00  0.00    +0.000 A 
ATOM     10  C   UNL     1       1.725   6.969  19.906  0.00  0.00    +0.000 A 
ATOM     11  N   UNL     1       1.724   6.058  20.994  0.00  0.00    +0.000 NA
ATOM     12  C   UNL     1       1.894   4.823  20.653  0.00  0.00    +0.000 A 
ATOM     13  N   UNL     1       1.956   4.340  19.358  0.00  0.00    +0.000 N 
ATOM     14  C   UNL     1       1.830   2.899  19.433  0.00  0.00    +0.000 C 
ATOM     15  C   UNL     1       2.682   2.629  20.663  0.00  0.00    +0.000 C 
ATOM     16  C   UNL     1       2.184   3.712  21.634  0.00  0.00    +0.000 C 
ENDBRANCH   1   2
BRANCH   1  17
ATOM     17  C   UNL     1       5.160   3.868  16.513  0.00  0.00    +0.000 C 
BRANCH  17  18
ATOM     18  C   UNL     1       5.325   5.199  15.782  0.00  0.00    +0.000 C 
BRANCH  18  21
ATOM     19  O   UNL     1       7.773   5.559  17.174  0.00  0.00    +0.000 OA
ATOM     20  C   UNL     1       6.895   6.408  17.267  0.00  0.00    +0.000 C 
ATOM     21  N   UNL     1       5.666   6.310  16.652  0.00  0.00    +0.000 N 
ATOM     22  H   UNL     1       5.019   7.084  16.720  0.00  0.00    +0.000 HD
BRANCH  20  23
ATOM     23  C   UNL     1       7.089   7.683  18.066  0.00  0.00    +0.000 C 
BRANCH  23  24
ATOM     24  C   UNL     1       8.322   8.467  17.622  0.00  0.00    +0.000 C 
BRANCH  24  25
ATOM     25  C   UNL     1       8.115   9.972  17.816  0.00  0.00    +0.000 C 
BRANCH  25  26
ATOM     26  C   UNL     1       9.395  10.651  18.322  0.00  0.00    +0.000 C 
BRANCH  26  27
ATOM     27  C   UNL     1       9.485  12.145  17.963  0.00  0.00    +0.000 C 
ATOM     28  C   UNL     1      10.870  12.543  17.428  0.00  0.00    +0.000 C 
ATOM     29  C   UNL     1      11.923  12.518  18.535  0.00  0.00    +0.000 C 
ATOM     30  S   UNL     1      11.198  13.246  20.028  0.00  0.00    +0.000 S 
ATOM     31  S   UNL     1       9.247  13.235  19.402  0.00  0.00    +0.000 S 
ENDBRANCH  26  27
ENDBRANCH  25  26
ENDBRANCH  24  25
ENDBRANCH  23  24
ENDBRANCH  20  23
ENDBRANCH  18  21
ENDBRANCH  17  18
ENDBRANCH   1  17
TORSDOF 9
ENDMDL
MODEL 9
REMARK VINA RESULT:      -7.4      6.193      9.353
REMARK  Name = 
REMARK  9 active torsions:
REMARK  status: ('A' for Active; 'I' for Inactive)
REMARK    1  A    between atoms: C_2  and  C_3
REMARK    2  A    between atoms: C_3  and  C_4
REMARK    3  A    between atoms: C_4  and  C_5
REMARK    4  A    between atoms: C_5  and  C_6
REMARK    5  A    between atoms: C_6  and  C_7
REMARK    6  A    between atoms: N_12  and  C_13
REMARK    7  A    between atoms: C_13  and  C_14
REMARK    8  A    between atoms: C_14  and  C_15
REMARK    9  A    between atoms: C_15  and  N_16
REMARK                            x       y       z     vdW  Elec       q    Type
REMARK                         _______ _______ _______ _____ _____    ______ ____
ROOT
ATOM      1  C   UNL     1       1.795   6.775  20.319  0.00  0.00    +0.000 C 
ENDROOT
BRANCH   1   2
ATOM      2  N   UNL     1       2.825   6.459  19.346  0.00  0.00    +0.000 NA
ATOM      3  C   UNL     1       3.231   5.287  19.063  0.00  0.00    +0.000 A 
ATOM      4  C   UNL     1       4.085   5.176  17.813  0.00  0.00    +0.000 A 
ATOM      5  C   UNL     1       4.601   6.313  17.184  0.00  0.00    +0.000 A 
ATOM      6  C   UNL     1       5.368   6.174  16.032  0.00  0.00    +0.000 A 
ATOM      7  C   UNL     1       5.648   4.901  15.533  0.00  0.00    +0.000 A 
ATOM      8 CL   UNL     1       6.632   4.735  14.129  0.00  0.00    +0.000 Cl
ATOM      9  C   UNL     1       5.102   3.766  16.129  0.00  0.00    +0.000 A 
ATOM     10  C   UNL     1       4.278   3.892  17.251  0.00  0.00    +0.000 A 
ATOM     11  N   UNL     1       3.551   2.752  17.683  0.00  0.00    +0.000 NA
ATOM     12  C   UNL     1       2.909   2.920  18.792  0.00  0.00    +0.000 A 
ATOM     13  N   UNL     1       2.974   4.037  19.605  0.00  0.00    +0.000 N 
ATOM     14  C   UNL     1       2.369   3.679  20.872  0.00  0.00    +0.000 C 
ATOM     15  C   UNL     1       1.197   2.849  20.373  0.00  0.00    +0.000 C 
ATOM     16  C   UNL     1       1.871   1.957  19.318  0.00  0.00    +0.000 C 
ENDBRANCH   1   2
BRANCH   1  17
ATOM     17  C   UNL     1       1.558   8.281  20.294  0.00  0.00    +0.000 C 
BRANCH  17  18
ATOM     18  C   UNL     1       1.398   8.874  21.692  0.00  0.00    +0.000 C 
BRANCH  18  21
ATOM     19  O   UNL     1       0.113   9.680  24.092  0.00  0.00    +0.000 OA
ATOM     20  C   UNL     1      -0.242  10.166  23.025  0.00  0.00    +0.000 C 
ATOM     21  N   UNL     1       0.303   9.820  21.808  0.00  0.00    +0.000 N 
ATOM     22  H   UNL     1       0.004  10.315  20.978  0.00  0.00    +0.000 HD
BRANCH  20  23
ATOM     23  C   UNL     1      -1.318  11.232  22.944  0.00  0.00    +0.000 C 
BRANCH  23  24
ATOM     24  C   UNL     1      -1.421  11.852  21.552  0.00  0.00    +0.000 C 
BRANCH  24  25
ATOM     25  C   UNL     1      -2.769  12.552  21.361  0.00  0.00    +0.000 C 
BRANCH  25  26
ATOM     26  C   UNL     1      -3.443  12.845  22.708  0.00  0.00    +0.000 C 
BRANCH  26  27
ATOM     27  C   UNL     1      -3.700  14.342  22.958  0.00  0.00    +0.000 C 
ATOM     28  C   UNL     1      -5.066  14.608  23.609  0.00  0.00    +0.000 C 
ATOM     29  C   UNL     1      -6.210  14.347  22.631  0.00  0.00    +0.000 C 
ATOM     30  S   UNL     1      -5.743  15.022  21.015  0.00  0.00    +0.000 S 
ATOM     31  S   UNL     1      -3.756  15.317  21.420  0.00  0.00    +0.000 S 
ENDBRANCH  26  27
ENDBRANCH  25  26
ENDBRANCH  24  25
ENDBRANCH  23  24
ENDBRANCH  20  23
ENDBRANCH  18  21
ENDBRANCH  17  18
ENDBRANCH   1  17
TORSDOF 9
ENDMDL
