MODEL 1
REMARK VINA RESULT:      -8.3      0.000      0.000
REMARK  Name = 
REMARK  5 active torsions:
REMARK  status: ('A' for Active; 'I' for Inactive)
REMARK    1  A    between atoms: C_1  and  C_2
REMARK    2  A    between atoms: C_2  and  C_3
REMARK    3  A    between atoms: C_2  and  N_18
REMARK    4  A    between atoms: N_9  and  C_10
REMARK    5  A    between atoms: C_21  and  C_22
REMARK                            x       y       z     vdW  Elec       q    Type
REMARK                         _______ _______ _______ _____ _____    ______ ____
ROOT
ATOM      1  C   UNL     1       5.873   4.821  18.796  0.00  0.00    +0.000 A 
ATOM      2  N   UNL     1       4.979   5.763  18.922  0.00  0.00    +0.000 NA
ATOM      3  C   UNL     1       3.783   5.320  19.383  0.00  0.00    +0.000 A 
ATOM      4  C   UNL     1       3.445   4.030  19.712  0.00  0.00    +0.000 A 
ATOM      5  C   UNL     1       2.118   4.091  20.148  0.00  0.00    +0.000 A 
ATOM      6  N   UNL     1       1.631   5.338  20.103  0.00  0.00    +0.000 NA
ATOM      7  N   UNL     1       2.668   6.079  19.629  0.00  0.00    +0.000 N 
ATOM      8  C   UNL     1       4.424   2.992  19.558  0.00  0.00    +0.000 A 
ATOM      9  O   UNL     1       4.219   1.805  19.782  0.00  0.00    +0.000 OA
ATOM     10  N   UNL     1       5.638   3.484  19.110  0.00  0.00    +0.000 N 
ATOM     11  H   UNL     1       6.376   2.817  18.929  0.00  0.00    +0.000 HD
ENDROOT
BRANCH   7  12
ATOM     12  C   UNL     1       2.518   7.505  19.425  0.00  0.00    +0.000 C 
ATOM     13  C   UNL     1       2.111   7.886  18.001  0.00  0.00    +0.000 C 
ATOM     14  C   UNL     1       1.623   9.321  18.134  0.00  0.00    +0.000 C 
ATOM     15  C   UNL     1       1.056   9.443  19.547  0.00  0.00    +0.000 C 
ATOM     16  C   UNL     1       1.428   8.155  20.281  0.00  0.00    +0.000 C 
ENDBRANCH   7  12
BRANCH   1  18
ATOM     17  C   UNL     1       7.763   6.518  18.892  0.00  0.00    +0.000 C 
ATOM     18  C   UNL     1       7.323   5.145  18.371  0.00  0.00    +0.000 C 
BRANCH  18  19
ATOM     19  N   UNL     1       7.510   4.891  16.915  0.00  0.00    +0.000 NA
ATOM     20  C   UNL     1       7.242   6.087  16.094  0.00  0.00    +0.000 C 
ATOM     21  C   UNL     1       5.805   5.972  15.617  0.00  0.00    +0.000 C 
ATOM     22  C   UNL     1       5.601   4.473  15.435  0.00  0.00    +0.000 C 
ATOM     23  C   UNL     1       6.643   3.823  16.370  0.00  0.00    +0.000 C 
BRANCH  22  24
ATOM     24  C   UNL     1       5.700   4.084  13.973  0.00  0.00    +0.000 A 
ATOM     25  C   UNL     1       4.606   3.621  13.237  0.00  0.00    +0.000 A 
ATOM     26  C   UNL     1       4.782   3.296  11.901  0.00  0.00    +0.000 A 
ATOM     27  N   UNL     1       5.964   3.377  11.258  0.00  0.00    +0.000 NA
ATOM     28  C   UNL     1       7.020   3.792  11.988  0.00  0.00    +0.000 A 
ATOM     29  C   UNL     1       6.941   4.147  13.327  0.00  0.00    +0.000 A 
ENDBRANCH  22  24
ENDBRANCH  18  19
ENDBRANCH   1  18
TORSDOF 4
ENDMDL
MODEL 2
REMARK VINA RESULT:      -7.8      4.716     10.501
REMARK  Name = 
REMARK  5 active torsions:
REMARK  status: ('A' for Active; 'I' for Inactive)
REMARK    1  A    between atoms: C_1  and  C_2
REMARK    2  A    between atoms: C_2  and  C_3
REMARK    3  A    between atoms: C_2  and  N_18
REMARK    4  A    between atoms: N_9  and  C_10
REMARK    5  A    between atoms: C_21  and  C_22
REMARK                            x       y       z     vdW  Elec       q    Type
REMARK                         _______ _______ _______ _____ _____    ______ ____
ROOT
ATOM      1  C   UNL     1       1.252   9.070  20.720  0.00  0.00    +0.000 A 
ATOM      2  N   UNL     1       1.518   7.799  20.851  0.00  0.00    +0.000 NA
ATOM      3  C   UNL     1       1.996   7.224  19.720  0.00  0.00    +0.000 A 
ATOM      4  C   UNL     1       2.213   7.831  18.507  0.00  0.00    +0.000 A 
ATOM      5  C   UNL     1       2.724   6.829  17.675  0.00  0.00    +0.000 A 
ATOM      6  N   UNL     1       2.828   5.654  18.308  0.00  0.00    +0.000 NA
ATOM      7  N   UNL     1       2.375   5.915  19.563  0.00  0.00    +0.000 N 
ATOM      8  C   UNL     1       1.907   9.225  18.360  0.00  0.00    +0.000 A 
ATOM      9  O   UNL     1       2.023   9.855  17.316  0.00  0.00    +0.000 OA
ATOM     10  N   UNL     1       1.445   9.784  19.539  0.00  0.00    +0.000 N 
ATOM     11  H   UNL     1       1.160  10.753  19.519  0.00  0.00    +0.000 HD
ENDROOT
BRANCH   7  12
ATOM     12  C   UNL     1       2.320   4.864  20.558  0.00  0.00    +0.000 C 
ATOM     13  C   UNL     1       1.009   4.077  20.553  0.00  0.00    +0.000 C 
ATOM     14  C   UNL     1       1.337   2.820  21.348  0.00  0.00    +0.000 C 
ATOM     15  C   UNL     1       2.822   2.552  21.114  0.00  0.00    +0.000 C 
ATOM     16  C   UNL     1       3.378   3.772  20.382  0.00  0.00    +0.000 C 
ENDBRANCH   7  12
BRANCH   1  18
ATOM     17  C   UNL     1       1.248   9.305  23.251  0.00  0.00    +0.000 C 
ATOM     18  C   UNL     1       0.785   9.918  21.925  0.00  0.00    +0.000 C 
BRANCH  18  19
ATOM     19  N   UNL     1      -0.666  10.238  21.807  0.00  0.00    +0.000 NA
ATOM     20  C   UNL     1      -0.928  11.328  20.849  0.00  0.00    +0.000 C 
ATOM     21  C   UNL     1      -1.026  12.606  21.663  0.00  0.00    +0.000 C 
ATOM     22  C   UNL     1      -1.652  12.153  22.977  0.00  0.00    +0.000 C 
ATOM     23  C   UNL     1      -1.300  10.653  23.078  0.00  0.00    +0.000 C 
BRANCH  22  24
ATOM     24  C   UNL     1      -3.131  12.483  23.016  0.00  0.00    +0.000 A 
ATOM     25  C   UNL     1      -3.883  12.445  24.194  0.00  0.00    +0.000 A 
ATOM     26  C   UNL     1      -5.229  12.770  24.144  0.00  0.00    +0.000 A 
ATOM     27  N   UNL     1      -5.880  13.105  23.011  0.00  0.00    +0.000 NA
ATOM     28  C   UNL     1      -5.150  13.104  21.876  0.00  0.00    +0.000 A 
ATOM     29  C   UNL     1      -3.798  12.801  21.827  0.00  0.00    +0.000 A 
ENDBRANCH  22  24
ENDBRANCH  18  19
ENDBRANCH   1  18
TORSDOF 4
ENDMDL
MODEL 3
REMARK VINA RESULT:      -7.7      2.870      7.722
REMARK  Name = 
REMARK  5 active torsions:
REMARK  status: ('A' for Active; 'I' for Inactive)
REMARK    1  A    between atoms: C_1  and  C_2
REMARK    2  A    between atoms: C_2  and  C_3
REMARK    3  A    between atoms: C_2  and  N_18
REMARK    4  A    between atoms: N_9  and  C_10
REMARK    5  A    between atoms: C_21  and  C_22
REMARK                            x       y       z     vdW  Elec       q    Type
REMARK                         _______ _______ _______ _____ _____    ______ ____
ROOT
ATOM      1  C   UNL     1       2.429   6.739  20.002  0.00  0.00    +0.000 A 
ATOM      2  N   UNL     1       3.256   6.406  19.050  0.00  0.00    +0.000 NA
ATOM      3  C   UNL     1       3.551   5.083  19.024  0.00  0.00    +0.000 A 
ATOM      4  C   UNL     1       3.080   4.109  19.871  0.00  0.00    +0.000 A 
ATOM      5  C   UNL     1       3.657   2.916  19.426  0.00  0.00    +0.000 A 
ATOM      6  N   UNL     1       4.449   3.106  18.363  0.00  0.00    +0.000 NA
ATOM      7  N   UNL     1       4.372   4.444  18.131  0.00  0.00    +0.000 N 
ATOM      8  C   UNL     1       2.182   4.480  20.928  0.00  0.00    +0.000 A 
ATOM      9  O   UNL     1       1.735   3.703  21.763  0.00  0.00    +0.000 OA
ATOM     10  N   UNL     1       1.885   5.832  20.909  0.00  0.00    +0.000 N 
ATOM     11  H   UNL     1       1.295   6.192  21.645  0.00  0.00    +0.000 HD
ENDROOT
BRANCH   7  12
ATOM     12  C   UNL     1       5.120   5.045  17.046  0.00  0.00    +0.000 C 
ATOM     13  C   UNL     1       6.637   4.939  17.209  0.00  0.00    +0.000 C 
ATOM     14  C   UNL     1       7.174   5.241  15.817  0.00  0.00    +0.000 C 
ATOM     15  C   UNL     1       6.101   4.763  14.840  0.00  0.00    +0.000 C 
ATOM     16  C   UNL     1       4.875   4.404  15.678  0.00  0.00    +0.000 C 
ENDBRANCH   7  12
BRANCH   1  18
ATOM     17  C   UNL     1       1.533   8.513  21.588  0.00  0.00    +0.000 C 
ATOM     18  C   UNL     1       1.904   8.187  20.137  0.00  0.00    +0.000 C 
BRANCH  18  19
ATOM     19  N   UNL     1       0.868   8.465  19.103  0.00  0.00    +0.000 NA
ATOM     20  C   UNL     1       1.295   9.494  18.137  0.00  0.00    +0.000 C 
ATOM     21  C   UNL     1       0.723  10.813  18.626  0.00  0.00    +0.000 C 
ATOM     22  C   UNL     1      -0.604  10.419  19.262  0.00  0.00    +0.000 C 
ATOM     23  C   UNL     1      -0.424   8.936  19.652  0.00  0.00    +0.000 C 
BRANCH  22  24
ATOM     24  C   UNL     1      -1.763  10.715  18.331  0.00  0.00    +0.000 A 
ATOM     25  C   UNL     1      -2.811  11.574  18.676  0.00  0.00    +0.000 A 
ATOM     26  C   UNL     1      -3.828  11.797  17.761  0.00  0.00    +0.000 A 
ATOM     27  N   UNL     1      -3.887  11.214  16.547  0.00  0.00    +0.000 NA
ATOM     28  C   UNL     1      -2.889  10.360  16.240  0.00  0.00    +0.000 A 
ATOM     29  C   UNL     1      -1.825  10.079  17.085  0.00  0.00    +0.000 A 
ENDBRANCH  22  24
ENDBRANCH  18  19
ENDBRANCH   1  18
TORSDOF 4
ENDMDL
MODEL 4
REMARK VINA RESULT:      -7.7      2.086      7.402
REMARK  Name = 
REMARK  5 active torsions:
REMARK  status: ('A' for Active; 'I' for Inactive)
REMARK    1  A    between atoms: C_1  and  C_2
REMARK    2  A    between atoms: C_2  and  C_3
REMARK    3  A    between atoms: C_2  and  N_18
REMARK    4  A    between atoms: N_9  and  C_10
REMARK    5  A    between atoms: C_21  and  C_22
REMARK                            x       y       z     vdW  Elec       q    Type
REMARK                         _______ _______ _______ _____ _____    ______ ____
ROOT
ATOM      1  C   UNL     1       5.249   4.011  17.472  0.00  0.00    +0.000 A 
ATOM      2  N   UNL     1       5.169   3.684  16.211  0.00  0.00    +0.000 NA
ATOM      3  C   UNL     1       6.085   4.306  15.429  0.00  0.00    +0.000 A 
ATOM      4  C   UNL     1       7.043   5.208  15.826  0.00  0.00    +0.000 A 
ATOM      5  C   UNL     1       7.744   5.544  14.664  0.00  0.00    +0.000 A 
ATOM      6  N   UNL     1       7.271   4.904  13.588  0.00  0.00    +0.000 NA
ATOM      7  N   UNL     1       6.251   4.148  14.077  0.00  0.00    +0.000 N 
ATOM      8  C   UNL     1       7.119   5.579  17.211  0.00  0.00    +0.000 A 
ATOM      9  O   UNL     1       7.904   6.401  17.667  0.00  0.00    +0.000 OA
ATOM     10  N   UNL     1       6.187   4.906  17.982  0.00  0.00    +0.000 N 
ATOM     11  H   UNL     1       6.137   5.137  18.964  0.00  0.00    +0.000 HD
ENDROOT
BRANCH   7  12
ATOM     12  C   UNL     1       5.469   3.308  13.192  0.00  0.00    +0.000 C 
ATOM     13  C   UNL     1       4.522   4.087  12.279  0.00  0.00    +0.000 C 
ATOM     14  C   UNL     1       4.145   3.078  11.203  0.00  0.00    +0.000 C 
ATOM     15  C   UNL     1       5.346   2.146  11.061  0.00  0.00    +0.000 C 
ATOM     16  C   UNL     1       6.301   2.485  12.205  0.00  0.00    +0.000 C 
ENDBRANCH   7  12
BRANCH   1  18
ATOM     17  C   UNL     1       3.589   2.144  17.941  0.00  0.00    +0.000 C 
ATOM     18  C   UNL     1       4.349   3.337  18.532  0.00  0.00    +0.000 C 
BRANCH  18  19
ATOM     19  N   UNL     1       3.536   4.357  19.252  0.00  0.00    +0.000 NA
ATOM     20  C   UNL     1       2.109   4.305  18.883  0.00  0.00    +0.000 C 
ATOM     21  C   UNL     1       1.903   5.350  17.800  0.00  0.00    +0.000 C 
ATOM     22  C   UNL     1       2.878   6.459  18.176  0.00  0.00    +0.000 C 
ATOM     23  C   UNL     1       3.966   5.753  19.013  0.00  0.00    +0.000 C 
BRANCH  22  24
ATOM     24  C   UNL     1       2.162   7.603  18.865  0.00  0.00    +0.000 A 
ATOM     25  C   UNL     1       1.796   8.778  18.199  0.00  0.00    +0.000 A 
ATOM     26  C   UNL     1       1.134   9.772  18.903  0.00  0.00    +0.000 A 
ATOM     27  N   UNL     1       0.835   9.692  20.215  0.00  0.00    +0.000 NA
ATOM     28  C   UNL     1       1.224   8.569  20.854  0.00  0.00    +0.000 A 
ATOM     29  C   UNL     1       1.883   7.517  20.234  0.00  0.00    +0.000 A 
ENDBRANCH  22  24
ENDBRANCH  18  19
ENDBRANCH   1  18
TORSDOF 4
ENDMDL
MODEL 5
REMARK VINA RESULT:      -7.6      3.253      5.590
REMARK  Name = 
REMARK  5 active torsions:
REMARK  status: ('A' for Active; 'I' for Inactive)
REMARK    1  A    between atoms: C_1  and  C_2
REMARK    2  A    between atoms: C_2  and  C_3
REMARK    3  A    between atoms: C_2  and  N_18
REMARK    4  A    between atoms: N_9  and  C_10
REMARK    5  A    between atoms: C_21  and  C_22
REMARK                            x       y       z     vdW  Elec       q    Type
REMARK                         _______ _______ _______ _____ _____    ______ ____
ROOT
ATOM      1  C   UNL     1       1.258   7.608  20.546  0.00  0.00    +0.000 A 
ATOM      2  N   UNL     1       0.585   8.369  19.729  0.00  0.00    +0.000 NA
ATOM      3  C   UNL     1       0.290   9.590  20.241  0.00  0.00    +0.000 A 
ATOM      4  C   UNL     1       0.620  10.071  21.484  0.00  0.00    +0.000 A 
ATOM      5  C   UNL     1       0.112  11.373  21.528  0.00  0.00    +0.000 A 
ATOM      6  N   UNL     1      -0.508  11.710  20.389  0.00  0.00    +0.000 NA
ATOM      7  N   UNL     1      -0.389  10.601  19.611  0.00  0.00    +0.000 N 
ATOM      8  C   UNL     1       1.348   9.227  22.388  0.00  0.00    +0.000 A 
ATOM      9  O   UNL     1       1.658   9.538  23.531  0.00  0.00    +0.000 OA
ATOM     10  N   UNL     1       1.652   8.000  21.824  0.00  0.00    +0.000 N 
ATOM     11  H   UNL     1       2.125   7.321  22.403  0.00  0.00    +0.000 HD
ENDROOT
BRANCH   7  12
ATOM     12  C   UNL     1      -0.960  10.573  18.279  0.00  0.00    +0.000 C 
ATOM     13  C   UNL     1      -2.148   9.622  18.136  0.00  0.00    +0.000 C 
ATOM     14  C   UNL     1      -2.812  10.062  16.839  0.00  0.00    +0.000 C 
ATOM     15  C   UNL     1      -2.536  11.559  16.713  0.00  0.00    +0.000 C 
ATOM     16  C   UNL     1      -1.533  11.913  17.810  0.00  0.00    +0.000 C 
ENDBRANCH   7  12
BRANCH   1  18
ATOM     17  C   UNL     1       1.941   5.282  21.312  0.00  0.00    +0.000 C 
ATOM     18  C   UNL     1       1.764   6.214  20.108  0.00  0.00    +0.000 C 
BRANCH  18  19
ATOM     19  N   UNL     1       2.929   6.347  19.189  0.00  0.00    +0.000 NA
ATOM     20  C   UNL     1       2.570   6.092  17.781  0.00  0.00    +0.000 C 
ATOM     21  C   UNL     1       2.907   4.637  17.504  0.00  0.00    +0.000 C 
ATOM     22  C   UNL     1       4.138   4.379  18.365  0.00  0.00    +0.000 C 
ATOM     23  C   UNL     1       4.049   5.429  19.494  0.00  0.00    +0.000 C 
BRANCH  22  24
ATOM     24  C   UNL     1       5.403   4.420  17.531  0.00  0.00    +0.000 A 
ATOM     25  C   UNL     1       6.670   4.623  18.087  0.00  0.00    +0.000 A 
ATOM     26  C   UNL     1       7.776   4.636  17.253  0.00  0.00    +0.000 A 
ATOM     27  N   UNL     1       7.710   4.487  15.914  0.00  0.00    +0.000 NA
ATOM     28  C   UNL     1       6.479   4.327  15.386  0.00  0.00    +0.000 A 
ATOM     29  C   UNL     1       5.315   4.291  16.139  0.00  0.00    +0.000 A 
ENDBRANCH  22  24
ENDBRANCH  18  19
ENDBRANCH   1  18
TORSDOF 4
ENDMDL
MODEL 6
REMARK VINA RESULT:      -7.6      1.929      7.281
REMARK  Name = 
REMARK  5 active torsions:
REMARK  status: ('A' for Active; 'I' for Inactive)
REMARK    1  A    between atoms: C_1  and  C_2
REMARK    2  A    between atoms: C_2  and  C_3
REMARK    3  A    between atoms: C_2  and  N_18
REMARK    4  A    between atoms: N_9  and  C_10
REMARK    5  A    between atoms: C_21  and  C_22
REMARK                            x       y       z     vdW  Elec       q    Type
REMARK                         _______ _______ _______ _____ _____    ______ ____
ROOT
ATOM      1  C   UNL     1       5.133   3.811  17.922  0.00  0.00    +0.000 A 
ATOM      2  N   UNL     1       5.110   3.586  16.637  0.00  0.00    +0.000 NA
ATOM      3  C   UNL     1       6.100   4.214  15.957  0.00  0.00    +0.000 A 
ATOM      4  C   UNL     1       7.078   5.029  16.476  0.00  0.00    +0.000 A 
ATOM      5  C   UNL     1       7.862   5.413  15.383  0.00  0.00    +0.000 A 
ATOM      6  N   UNL     1       7.420   4.883  14.235  0.00  0.00    +0.000 NA
ATOM      7  N   UNL     1       6.336   4.151  14.608  0.00  0.00    +0.000 N 
ATOM      8  C   UNL     1       7.093   5.288  17.887  0.00  0.00    +0.000 A 
ATOM      9  O   UNL     1       7.891   6.029  18.448  0.00  0.00    +0.000 OA
ATOM     10  N   UNL     1       6.084   4.612  18.551  0.00  0.00    +0.000 N 
ATOM     11  H   UNL     1       5.989   4.770  19.544  0.00  0.00    +0.000 HD
ENDROOT
BRANCH   7  12
ATOM     12  C   UNL     1       5.565   3.425  13.619  0.00  0.00    +0.000 C 
ATOM     13  C   UNL     1       4.649   4.313  12.777  0.00  0.00    +0.000 C 
ATOM     14  C   UNL     1       4.285   3.435  11.588  0.00  0.00    +0.000 C 
ATOM     15  C   UNL     1       5.478   2.507  11.370  0.00  0.00    +0.000 C 
ATOM     16  C   UNL     1       6.410   2.703  12.565  0.00  0.00    +0.000 C 
ENDBRANCH   7  12
BRANCH   1  18
ATOM     17  C   UNL     1       3.498   1.886  18.210  0.00  0.00    +0.000 C 
ATOM     18  C   UNL     1       4.139   3.110  18.876  0.00  0.00    +0.000 C 
BRANCH  18  19
ATOM     19  N   UNL     1       3.211   4.103  19.486  0.00  0.00    +0.000 NA
ATOM     20  C   UNL     1       1.951   4.238  18.730  0.00  0.00    +0.000 C 
ATOM     21  C   UNL     1       2.127   5.428  17.804  0.00  0.00    +0.000 C 
ATOM     22  C   UNL     1       3.012   6.380  18.599  0.00  0.00    +0.000 C 
ATOM     23  C   UNL     1       3.769   5.469  19.590  0.00  0.00    +0.000 C 
BRANCH  22  24
ATOM     24  C   UNL     1       2.192   7.490  19.226  0.00  0.00    +0.000 A 
ATOM     25  C   UNL     1       1.738   7.443  20.548  0.00  0.00    +0.000 A 
ATOM     26  C   UNL     1       1.002   8.506  21.045  0.00  0.00    +0.000 A 
ATOM     27  N   UNL     1       0.667   9.593  20.320  0.00  0.00    +0.000 NA
ATOM     28  C   UNL     1       1.082   9.611  19.036  0.00  0.00    +0.000 A 
ATOM     29  C   UNL     1       1.830   8.599  18.452  0.00  0.00    +0.000 A 
ENDBRANCH  22  24
ENDBRANCH  18  19
ENDBRANCH   1  18
TORSDOF 4
ENDMDL
MODEL 7
REMARK VINA RESULT:      -7.6      0.911      1.276
REMARK  Name = 
REMARK  5 active torsions:
REMARK  status: ('A' for Active; 'I' for Inactive)
REMARK    1  A    between atoms: C_1  and  C_2
REMARK    2  A    between atoms: C_2  and  C_3
REMARK    3  A    between atoms: C_2  and  N_18
REMARK    4  A    between atoms: N_9  and  C_10
REMARK    5  A    between atoms: C_21  and  C_22
REMARK                            x       y       z     vdW  Elec       q    Type
REMARK                         _______ _______ _______ _____ _____    ______ ____
ROOT
ATOM      1  C   UNL     1       5.342   4.927  18.486  0.00  0.00    +0.000 A 
ATOM      2  N   UNL     1       4.511   5.913  18.684  0.00  0.00    +0.000 NA
ATOM      3  C   UNL     1       3.453   5.584  19.465  0.00  0.00    +0.000 A 
ATOM      4  C   UNL     1       3.190   4.363  20.038  0.00  0.00    +0.000 A 
ATOM      5  C   UNL     1       2.003   4.535  20.757  0.00  0.00    +0.000 A 
ATOM      6  N   UNL     1       1.530   5.784  20.655  0.00  0.00    +0.000 NA
ATOM      7  N   UNL     1       2.433   6.414  19.856  0.00  0.00    +0.000 N 
ATOM      8  C   UNL     1       4.097   3.275  19.806  0.00  0.00    +0.000 A 
ATOM      9  O   UNL     1       3.939   2.137  20.232  0.00  0.00    +0.000 OA
ATOM     10  N   UNL     1       5.176   3.653  19.026  0.00  0.00    +0.000 N 
ATOM     11  H   UNL     1       5.844   2.940  18.773  0.00  0.00    +0.000 HD
ENDROOT
BRANCH   7  12
ATOM     12  C   UNL     1       2.253   7.806  19.498  0.00  0.00    +0.000 C 
ATOM     13  C   UNL     1       1.814   8.018  18.049  0.00  0.00    +0.000 C 
ATOM     14  C   UNL     1       1.300   9.451  18.031  0.00  0.00    +0.000 C 
ATOM     15  C   UNL     1       0.755   9.718  19.432  0.00  0.00    +0.000 C 
ATOM     16  C   UNL     1       1.164   8.527  20.297  0.00  0.00    +0.000 C 
ENDBRANCH   7  12
BRANCH   1  18
ATOM     17  C   UNL     1       6.908   6.618  17.415  0.00  0.00    +0.000 C 
ATOM     18  C   UNL     1       6.655   5.133  17.696  0.00  0.00    +0.000 C 
BRANCH  18  19
ATOM     19  N   UNL     1       6.711   4.212  16.527  0.00  0.00    +0.000 NA
ATOM     20  C   UNL     1       7.733   4.612  15.541  0.00  0.00    +0.000 C 
ATOM     21  C   UNL     1       7.016   5.425  14.478  0.00  0.00    +0.000 C 
ATOM     22  C   UNL     1       5.637   4.781  14.398  0.00  0.00    +0.000 C 
ATOM     23  C   UNL     1       5.441   4.110  15.774  0.00  0.00    +0.000 C 
BRANCH  22  24
ATOM     24  C   UNL     1       5.535   3.859  13.199  0.00  0.00    +0.000 A 
ATOM     25  C   UNL     1       6.613   3.099  12.735  0.00  0.00    +0.000 A 
ATOM     26  C   UNL     1       6.432   2.273  11.637  0.00  0.00    +0.000 A 
ATOM     27  N   UNL     1       5.271   2.169  10.959  0.00  0.00    +0.000 NA
ATOM     28  C   UNL     1       4.249   2.934  11.395  0.00  0.00    +0.000 A 
ATOM     29  C   UNL     1       4.331   3.783  12.489  0.00  0.00    +0.000 A 
ENDBRANCH  22  24
ENDBRANCH  18  19
ENDBRANCH   1  18
TORSDOF 4
ENDMDL
MODEL 8
REMARK VINA RESULT:      -7.5      3.350      7.737
REMARK  Name = 
REMARK  5 active torsions:
REMARK  status: ('A' for Active; 'I' for Inactive)
REMARK    1  A    between atoms: C_1  and  C_2
REMARK    2  A    between atoms: C_2  and  C_3
REMARK    3  A    between atoms: C_2  and  N_18
REMARK    4  A    between atoms: N_9  and  C_10
REMARK    5  A    between atoms: C_21  and  C_22
REMARK                            x       y       z     vdW  Elec       q    Type
REMARK                         _______ _______ _______ _____ _____    ______ ____
ROOT
ATOM      1  C   UNL     1       2.965   7.231  18.208  0.00  0.00    +0.000 A 
ATOM      2  N   UNL     1       2.744   6.013  18.618  0.00  0.00    +0.000 NA
ATOM      3  C   UNL     1       3.488   5.079  17.975  0.00  0.00    +0.000 A 
ATOM      4  C   UNL     1       4.410   5.293  16.978  0.00  0.00    +0.000 A 
ATOM      5  C   UNL     1       4.916   4.029  16.660  0.00  0.00    +0.000 A 
ATOM      6  N   UNL     1       4.359   3.063  17.401  0.00  0.00    +0.000 NA
ATOM      7  N   UNL     1       3.483   3.727  18.202  0.00  0.00    +0.000 N 
ATOM      8  C   UNL     1       4.640   6.633  16.518  0.00  0.00    +0.000 A 
ATOM      9  O   UNL     1       5.406   6.933  15.610  0.00  0.00    +0.000 OA
ATOM     10  N   UNL     1       3.882   7.560  17.212  0.00  0.00    +0.000 N 
ATOM     11  H   UNL     1       3.945   8.527  16.926  0.00  0.00    +0.000 HD
ENDROOT
BRANCH   7  12
ATOM     12  C   UNL     1       2.664   3.004  19.154  0.00  0.00    +0.000 C 
ATOM     13  C   UNL     1       3.095   3.195  20.609  0.00  0.00    +0.000 C 
ATOM     14  C   UNL     1       1.893   2.714  21.409  0.00  0.00    +0.000 C 
ATOM     15  C   UNL     1       0.669   3.000  20.541  0.00  0.00    +0.000 C 
ATOM     16  C   UNL     1       1.193   3.427  19.171  0.00  0.00    +0.000 C 
ENDBRANCH   7  12
BRANCH   1  18
ATOM     17  C   UNL     1       1.786   8.085  20.293  0.00  0.00    +0.000 C 
ATOM     18  C   UNL     1       2.277   8.440  18.884  0.00  0.00    +0.000 C 
BRANCH  18  19
ATOM     19  N   UNL     1       1.281   9.056  17.964  0.00  0.00    +0.000 NA
ATOM     20  C   UNL     1       1.349  10.530  17.962  0.00  0.00    +0.000 C 
ATOM     21  C   UNL     1       0.291  11.014  18.939  0.00  0.00    +0.000 C 
ATOM     22  C   UNL     1      -0.827   9.987  18.800  0.00  0.00    +0.000 C 
ATOM     23  C   UNL     1      -0.125   8.716  18.277  0.00  0.00    +0.000 C 
BRANCH  22  24
ATOM     24  C   UNL     1      -1.949  10.520  17.932  0.00  0.00    +0.000 A 
ATOM     25  C   UNL     1      -2.974  11.330  18.431  0.00  0.00    +0.000 A 
ATOM     26  C   UNL     1      -3.957  11.782  17.566  0.00  0.00    +0.000 A 
ATOM     27  N   UNL     1      -4.007  11.469  16.255  0.00  0.00    +0.000 NA
ATOM     28  C   UNL     1      -3.032  10.658  15.793  0.00  0.00    +0.000 A 
ATOM     29  C   UNL     1      -2.002  10.163  16.579  0.00  0.00    +0.000 A 
ENDBRANCH  22  24
ENDBRANCH  18  19
ENDBRANCH   1  18
TORSDOF 4
ENDMDL
MODEL 9
REMARK VINA RESULT:      -7.5      4.925     10.659
REMARK  Name = 
REMARK  5 active torsions:
REMARK  status: ('A' for Active; 'I' for Inactive)
REMARK    1  A    between atoms: C_1  and  C_2
REMARK    2  A    between atoms: C_2  and  C_3
REMARK    3  A    between atoms: C_2  and  N_18
REMARK    4  A    between atoms: N_9  and  C_10
REMARK    5  A    between atoms: C_21  and  C_22
REMARK                            x       y       z     vdW  Elec       q    Type
REMARK                         _______ _______ _______ _____ _____    ______ ____
ROOT
ATOM      1  C   UNL     1       1.084   9.287  20.779  0.00  0.00    +0.000 A 
ATOM      2  N   UNL     1       1.371   8.019  20.891  0.00  0.00    +0.000 NA
ATOM      3  C   UNL     1       1.892   7.477  19.763  0.00  0.00    +0.000 A 
ATOM      4  C   UNL     1       2.133   8.115  18.569  0.00  0.00    +0.000 A 
ATOM      5  C   UNL     1       2.687   7.142  17.732  0.00  0.00    +0.000 A 
ATOM      6  N   UNL     1       2.796   5.955  18.342  0.00  0.00    +0.000 NA
ATOM      7  N   UNL     1       2.301   6.180  19.589  0.00  0.00    +0.000 N 
ATOM      8  C   UNL     1       1.802   9.505  18.443  0.00  0.00    +0.000 A 
ATOM      9  O   UNL     1       1.936  10.160  17.416  0.00  0.00    +0.000 OA
ATOM     10  N   UNL     1       1.296  10.030  19.620  0.00  0.00    +0.000 N 
ATOM     11  H   UNL     1       0.993  10.993  19.612  0.00  0.00    +0.000 HD
ENDROOT
BRANCH   7  12
ATOM     12  C   UNL     1       2.239   5.107  20.560  0.00  0.00    +0.000 C 
ATOM     13  C   UNL     1       0.945   4.295  20.500  0.00  0.00    +0.000 C 
ATOM     14  C   UNL     1       1.275   3.028  21.277  0.00  0.00    +0.000 C 
ATOM     15  C   UNL     1       2.771   2.793  21.082  0.00  0.00    +0.000 C 
ATOM     16  C   UNL     1       3.324   4.040  20.392  0.00  0.00    +0.000 C 
ENDBRANCH   7  12
BRANCH   1  18
ATOM     17  C   UNL     1       0.439   9.221  23.237  0.00  0.00    +0.000 C 
ATOM     18  C   UNL     1       0.565  10.099  21.987  0.00  0.00    +0.000 C 
BRANCH  18  19
ATOM     19  N   UNL     1      -0.636  10.894  21.605  0.00  0.00    +0.000 NA
ATOM     20  C   UNL     1      -0.286  12.217  21.053  0.00  0.00    +0.000 C 
ATOM     21  C   UNL     1      -0.376  13.205  22.203  0.00  0.00    +0.000 C 
ATOM     22  C   UNL     1      -1.514  12.662  23.059  0.00  0.00    +0.000 C 
ATOM     23  C   UNL     1      -1.570  11.157  22.723  0.00  0.00    +0.000 C 
BRANCH  22  24
ATOM     24  C   UNL     1      -2.795  13.435  22.814  0.00  0.00    +0.000 A 
ATOM     25  C   UNL     1      -4.026  12.810  22.591  0.00  0.00    +0.000 A 
ATOM     26  C   UNL     1      -5.150  13.593  22.385  0.00  0.00    +0.000 A 
ATOM     27  N   UNL     1      -5.134  14.941  22.362  0.00  0.00    +0.000 NA
ATOM     28  C   UNL     1      -3.934  15.532  22.544  0.00  0.00    +0.000 A 
ATOM     29  C   UNL     1      -2.756  14.834  22.766  0.00  0.00    +0.000 A 
ENDBRANCH  22  24
ENDBRANCH  18  19
ENDBRANCH   1  18
TORSDOF 4
ENDMDL
