MODEL 1
REMARK VINA RESULT:      -5.8      0.000      0.000
REMARK  Name = 
REMARK  21 active torsions:
REMARK  status: ('A' for Active; 'I' for Inactive)
REMARK    1  A    between atoms: C_1  and  C_2
REMARK    2  A    between atoms: C_2  and  C_3
REMARK    3  A    between atoms: C_3  and  C_4
REMARK    4  A    between atoms: C_4  and  C_5
REMARK    5  A    between atoms: C_5  and  C_6
REMARK    6  A    between atoms: C_6  and  C_8
REMARK    7  A    between atoms: C_9  and  C_10
REMARK    8  A    between atoms: C_11  and  C_12
REMARK    9  A    between atoms: C_12  and  C_13
REMARK   10  A    between atoms: C_13  and  C_14
REMARK   11  A    between atoms: C_14  and  C_15
REMARK   12  A    between atoms: C_15  and  C_16
REMARK   13  A    between atoms: C_16  and  C_17
REMARK   14  A    between atoms: C_17  and  C_18
REMARK   15  A    between atoms: C_18  and  C_19
REMARK   16  A    between atoms: C_19  and  O_21
REMARK   17  A    between atoms: O_21  and  C_22
REMARK   18  A    between atoms: C_22  and  C_23
REMARK   19  A    between atoms: C_23  and  O_24
REMARK   20  A    between atoms: C_23  and  C_25
REMARK   21  A    between atoms: C_25  and  O_26
REMARK                            x       y       z     vdW  Elec       q    Type
REMARK                         _______ _______ _______ _____ _____    ______ ____
ROOT
ATOM      1  C   UNL     1       4.798   6.743  16.996  0.00  0.00    +0.000 C 
ENDROOT
BRANCH   1   2
ATOM      2  C   UNL     1       4.224   6.022  18.213  0.00  0.00    +0.000 C 
BRANCH   2   3
ATOM      3  C   UNL     1       2.979   6.736  18.742  0.00  0.00    +0.000 C 
BRANCH   3   4
ATOM      4  C   UNL     1       2.165   5.802  19.633  0.00  0.00    +0.000 C 
BRANCH   4   5
ATOM      5  C   UNL     1       3.042   4.905  20.510  0.00  0.00    +0.000 C 
BRANCH   5   6
ATOM      6  C   UNL     1       2.251   3.700  20.969  0.00  0.00    +0.000 C 
ATOM      7  O   UNL     1       2.374   3.163  22.057  0.00  0.00    +0.000 OA
BRANCH   6   8
ATOM      8  O   UNL     1       1.427   3.258  19.971  0.00  0.00    +0.000 OA
BRANCH   8   9
ATOM      9  C   UNL     1       1.865   2.028  19.362  0.00  0.00    +0.000 C 
BRANCH   9  10
ATOM     10  C   UNL     1       3.155   2.298  18.582  0.00  0.00    +0.000 C 
BRANCH  10  11
ATOM     11  O   UNL     1       3.915   1.096  18.477  0.00  0.00    +0.000 OA
ATOM     12  H   UNL     1       3.791   0.733  17.583  0.00  0.00    +0.000 HD
ENDBRANCH  10  11
BRANCH  10  13
ATOM     13  C   UNL     1       2.869   2.810  17.175  0.00  0.00    +0.000 C 
BRANCH  13  14
ATOM     14  O   UNL     1       1.664   3.559  17.180  0.00  0.00    +0.000 OA
ATOM     15  H   UNL     1       0.937   2.969  16.932  0.00  0.00    +0.000 HD
ENDBRANCH  13  14
ENDBRANCH  10  13
ENDBRANCH   9  10
ENDBRANCH   8   9
ENDBRANCH   6   8
ENDBRANCH   5   6
ENDBRANCH   4   5
ENDBRANCH   3   4
ENDBRANCH   2   3
ENDBRANCH   1   2
BRANCH   1  16
ATOM     16  C   UNL     1       6.180   6.199  16.640  0.00  0.00    +0.000 C 
BRANCH  16  17
ATOM     17  C   UNL     1       7.009   5.959  17.901  0.00  0.00    +0.000 C 
BRANCH  17  19
ATOM     18  C   UNL     1       7.681   8.349  17.644  0.00  0.00    +0.000 C 
ATOM     19  C   UNL     1       7.825   7.163  18.261  0.00  0.00    +0.000 C 
BRANCH  18  21
ATOM     20  C   UNL     1       9.159   9.629  19.141  0.00  0.00    +0.000 C 
ATOM     21  C   UNL     1       8.470   9.511  17.995  0.00  0.00    +0.000 C 
BRANCH  20  22
ATOM     22  C   UNL     1       9.954  10.872  19.436  0.00  0.00    +0.000 C 
ATOM     23  O   UNL     1      10.826  11.278  18.677  0.00  0.00    +0.000 OA
BRANCH  22  24
ATOM     24  C   UNL     1       9.626  11.587  20.735  0.00  0.00    +0.000 C 
BRANCH  24  25
ATOM     25  C   UNL     1      10.365  12.923  20.798  0.00  0.00    +0.000 C 
BRANCH  25  26
ATOM     26  C   UNL     1       9.721  13.894  21.782  0.00  0.00    +0.000 C 
BRANCH  26  28
ATOM     27  C   UNL     1      10.068  16.082  22.963  0.00  0.00    +0.000 C 
ATOM     28  C   UNL     1      10.429  15.247  21.747  0.00  0.00    +0.000 C 
ENDBRANCH  26  28
ENDBRANCH  25  26
ENDBRANCH  24  25
ENDBRANCH  22  24
ENDBRANCH  20  22
ENDBRANCH  18  21
ENDBRANCH  17  19
ENDBRANCH  16  17
ENDBRANCH   1  16
TORSDOF 20
ENDMDL
MODEL 2
REMARK VINA RESULT:      -5.8      2.586     11.647
REMARK  Name = 
REMARK  21 active torsions:
REMARK  status: ('A' for Active; 'I' for Inactive)
REMARK    1  A    between atoms: C_1  and  C_2
REMARK    2  A    between atoms: C_2  and  C_3
REMARK    3  A    between atoms: C_3  and  C_4
REMARK    4  A    between atoms: C_4  and  C_5
REMARK    5  A    between atoms: C_5  and  C_6
REMARK    6  A    between atoms: C_6  and  C_8
REMARK    7  A    between atoms: C_9  and  C_10
REMARK    8  A    between atoms: C_11  and  C_12
REMARK    9  A    between atoms: C_12  and  C_13
REMARK   10  A    between atoms: C_13  and  C_14
REMARK   11  A    between atoms: C_14  and  C_15
REMARK   12  A    between atoms: C_15  and  C_16
REMARK   13  A    between atoms: C_16  and  C_17
REMARK   14  A    between atoms: C_17  and  C_18
REMARK   15  A    between atoms: C_18  and  C_19
REMARK   16  A    between atoms: C_19  and  O_21
REMARK   17  A    between atoms: O_21  and  C_22
REMARK   18  A    between atoms: C_22  and  C_23
REMARK   19  A    between atoms: C_23  and  O_24
REMARK   20  A    between atoms: C_23  and  C_25
REMARK   21  A    between atoms: C_25  and  O_26
REMARK                            x       y       z     vdW  Elec       q    Type
REMARK                         _______ _______ _______ _____ _____    ______ ____
ROOT
ATOM      1  C   UNL     1       8.584   9.527  17.812  0.00  0.00    +0.000 C 
ENDROOT
BRANCH   1   2
ATOM      2  C   UNL     1       8.930   9.762  19.280  0.00  0.00    +0.000 C 
BRANCH   2   3
ATOM      3  C   UNL     1       9.811  11.001  19.448  0.00  0.00    +0.000 C 
BRANCH   3   4
ATOM      4  C   UNL     1      10.823  11.096  18.311  0.00  0.00    +0.000 C 
BRANCH   4   5
ATOM      5  C   UNL     1      11.856  12.205  18.527  0.00  0.00    +0.000 C 
BRANCH   5   6
ATOM      6  C   UNL     1      11.690  13.277  17.472  0.00  0.00    +0.000 C 
ATOM      7  O   UNL     1      12.333  13.338  16.437  0.00  0.00    +0.000 OA
BRANCH   6   8
ATOM      8  O   UNL     1      10.766  14.203  17.870  0.00  0.00    +0.000 OA
BRANCH   8   9
ATOM      9  C   UNL     1      11.275  15.157  18.821  0.00  0.00    +0.000 C 
BRANCH   9  10
ATOM     10  C   UNL     1      11.188  16.558  18.207  0.00  0.00    +0.000 C 
BRANCH  10  11
ATOM     11  O   UNL     1      12.296  16.772  17.336  0.00  0.00    +0.000 OA
ATOM     12  H   UNL     1      12.066  17.488  16.719  0.00  0.00    +0.000 HD
ENDBRANCH  10  11
BRANCH  10  13
ATOM     13  C   UNL     1       9.904  16.746  17.407  0.00  0.00    +0.000 C 
BRANCH  13  14
ATOM     14  O   UNL     1       8.803  16.259  18.158  0.00  0.00    +0.000 OA
ATOM     15  H   UNL     1       8.844  15.292  18.169  0.00  0.00    +0.000 HD
ENDBRANCH  13  14
ENDBRANCH  10  13
ENDBRANCH   9  10
ENDBRANCH   8   9
ENDBRANCH   6   8
ENDBRANCH   5   6
ENDBRANCH   4   5
ENDBRANCH   3   4
ENDBRANCH   2   3
ENDBRANCH   1   2
BRANCH   1  16
ATOM     16  C   UNL     1       7.530   8.430  17.668  0.00  0.00    +0.000 C 
BRANCH  16  17
ATOM     17  C   UNL     1       8.005   7.134  18.323  0.00  0.00    +0.000 C 
BRANCH  17  19
ATOM     18  C   UNL     1       6.433   5.466  19.312  0.00  0.00    +0.000 C 
ATOM     19  C   UNL     1       6.967   6.057  18.229  0.00  0.00    +0.000 C 
BRANCH  18  21
ATOM     20  C   UNL     1       4.828   4.069  18.072  0.00  0.00    +0.000 C 
ATOM     21  C   UNL     1       5.429   4.428  19.219  0.00  0.00    +0.000 C 
BRANCH  20  22
ATOM     22  C   UNL     1       3.790   2.981  18.056  0.00  0.00    +0.000 C 
ATOM     23  O   UNL     1       3.970   1.905  18.615  0.00  0.00    +0.000 OA
BRANCH  22  24
ATOM     24  C   UNL     1       2.511   3.284  17.296  0.00  0.00    +0.000 C 
BRANCH  24  25
ATOM     25  C   UNL     1       1.620   4.213  18.119  0.00  0.00    +0.000 C 
BRANCH  25  26
ATOM     26  C   UNL     1       1.003   3.508  19.321  0.00  0.00    +0.000 C 
BRANCH  26  28
ATOM     27  C   UNL     1       1.770   5.588  20.500  0.00  0.00    +0.000 C 
ATOM     28  C   UNL     1       1.543   4.093  20.626  0.00  0.00    +0.000 C 
ENDBRANCH  26  28
ENDBRANCH  25  26
ENDBRANCH  24  25
ENDBRANCH  22  24
ENDBRANCH  20  22
ENDBRANCH  18  21
ENDBRANCH  17  19
ENDBRANCH  16  17
ENDBRANCH   1  16
TORSDOF 20
ENDMDL
MODEL 3
REMARK VINA RESULT:      -5.7      2.444     11.205
REMARK  Name = 
REMARK  21 active torsions:
REMARK  status: ('A' for Active; 'I' for Inactive)
REMARK    1  A    between atoms: C_1  and  C_2
REMARK    2  A    between atoms: C_2  and  C_3
REMARK    3  A    between atoms: C_3  and  C_4
REMARK    4  A    between atoms: C_4  and  C_5
REMARK    5  A    between atoms: C_5  and  C_6
REMARK    6  A    between atoms: C_6  and  C_8
REMARK    7  A    between atoms: C_9  and  C_10
REMARK    8  A    between atoms: C_11  and  C_12
REMARK    9  A    between atoms: C_12  and  C_13
REMARK   10  A    between atoms: C_13  and  C_14
REMARK   11  A    between atoms: C_14  and  C_15
REMARK   12  A    between atoms: C_15  and  C_16
REMARK   13  A    between atoms: C_16  and  C_17
REMARK   14  A    between atoms: C_17  and  C_18
REMARK   15  A    between atoms: C_18  and  C_19
REMARK   16  A    between atoms: C_19  and  O_21
REMARK   17  A    between atoms: O_21  and  C_22
REMARK   18  A    between atoms: C_22  and  C_23
REMARK   19  A    between atoms: C_23  and  O_24
REMARK   20  A    between atoms: C_23  and  C_25
REMARK   21  A    between atoms: C_25  and  O_26
REMARK                            x       y       z     vdW  Elec       q    Type
REMARK                         _______ _______ _______ _____ _____    ______ ____
ROOT
ATOM      1  C   UNL     1       7.493   7.123  18.025  0.00  0.00    +0.000 C 
ENDROOT
BRANCH   1   2
ATOM      2  C   UNL     1       7.456   8.609  17.680  0.00  0.00    +0.000 C 
BRANCH   2   3
ATOM      3  C   UNL     1       8.857   9.222  17.727  0.00  0.00    +0.000 C 
BRANCH   3   4
ATOM      4  C   UNL     1       9.052  10.011  19.018  0.00  0.00    +0.000 C 
BRANCH   4   5
ATOM      5  C   UNL     1       9.263  11.507  18.773  0.00  0.00    +0.000 C 
BRANCH   5   6
ATOM      6  C   UNL     1      10.720  11.780  18.469  0.00  0.00    +0.000 C 
ATOM      7  O   UNL     1      11.654  11.401  19.155  0.00  0.00    +0.000 OA
BRANCH   6   8
ATOM      8  O   UNL     1      10.839  12.566  17.356  0.00  0.00    +0.000 OA
BRANCH   8   9
ATOM      9  C   UNL     1      12.144  13.157  17.202  0.00  0.00    +0.000 C 
BRANCH   9  10
ATOM     10  C   UNL     1      11.985  14.678  17.105  0.00  0.00    +0.000 C 
BRANCH  10  11
ATOM     11  O   UNL     1      10.991  14.998  16.134  0.00  0.00    +0.000 OA
ATOM     12  H   UNL     1      11.056  15.947  15.931  0.00  0.00    +0.000 HD
ENDBRANCH  10  11
BRANCH  10  13
ATOM     13  C   UNL     1      11.568  15.289  18.438  0.00  0.00    +0.000 C 
BRANCH  13  14
ATOM     14  O   UNL     1      10.153  15.292  18.536  0.00  0.00    +0.000 OA
ATOM     15  H   UNL     1       9.786  15.059  17.671  0.00  0.00    +0.000 HD
ENDBRANCH  13  14
ENDBRANCH  10  13
ENDBRANCH   9  10
ENDBRANCH   8   9
ENDBRANCH   6   8
ENDBRANCH   5   6
ENDBRANCH   4   5
ENDBRANCH   3   4
ENDBRANCH   2   3
ENDBRANCH   1   2
BRANCH   1  16
ATOM     16  C   UNL     1       7.301   6.267  16.773  0.00  0.00    +0.000 C 
BRANCH  16  17
ATOM     17  C   UNL     1       5.932   6.522  16.148  0.00  0.00    +0.000 C 
BRANCH  17  19
ATOM     18  C   UNL     1       3.989   5.494  17.331  0.00  0.00    +0.000 C 
ATOM     19  C   UNL     1       4.845   6.518  17.181  0.00  0.00    +0.000 C 
BRANCH  18  21
ATOM     20  C   UNL     1       3.136   5.154  19.616  0.00  0.00    +0.000 C 
ATOM     21  C   UNL     1       2.942   5.492  18.331  0.00  0.00    +0.000 C 
BRANCH  20  22
ATOM     22  C   UNL     1       1.995   5.173  20.596  0.00  0.00    +0.000 C 
ATOM     23  O   UNL     1       1.440   6.215  20.924  0.00  0.00    +0.000 OA
BRANCH  22  24
ATOM     24  C   UNL     1       1.578   3.829  21.169  0.00  0.00    +0.000 C 
BRANCH  24  25
ATOM     25  C   UNL     1       2.238   2.697  20.383  0.00  0.00    +0.000 C 
BRANCH  25  26
ATOM     26  C   UNL     1       1.347   2.176  19.262  0.00  0.00    +0.000 C 
BRANCH  26  28
ATOM     27  C   UNL     1       3.567   1.644  18.217  0.00  0.00    +0.000 C 
ATOM     28  C   UNL     1       2.132   2.063  17.956  0.00  0.00    +0.000 C 
ENDBRANCH  26  28
ENDBRANCH  25  26
ENDBRANCH  24  25
ENDBRANCH  22  24
ENDBRANCH  20  22
ENDBRANCH  18  21
ENDBRANCH  17  19
ENDBRANCH  16  17
ENDBRANCH   1  16
TORSDOF 20
ENDMDL
MODEL 4
REMARK VINA RESULT:      -5.7      4.515      8.732
REMARK  Name = 
REMARK  21 active torsions:
REMARK  status: ('A' for Active; 'I' for Inactive)
REMARK    1  A    between atoms: C_1  and  C_2
REMARK    2  A    between atoms: C_2  and  C_3
REMARK    3  A    between atoms: C_3  and  C_4
REMARK    4  A    between atoms: C_4  and  C_5
REMARK    5  A    between atoms: C_5  and  C_6
REMARK    6  A    between atoms: C_6  and  C_8
REMARK    7  A    between atoms: C_9  and  C_10
REMARK    8  A    between atoms: C_11  and  C_12
REMARK    9  A    between atoms: C_12  and  C_13
REMARK   10  A    between atoms: C_13  and  C_14
REMARK   11  A    between atoms: C_14  and  C_15
REMARK   12  A    between atoms: C_15  and  C_16
REMARK   13  A    between atoms: C_16  and  C_17
REMARK   14  A    between atoms: C_17  and  C_18
REMARK   15  A    between atoms: C_18  and  C_19
REMARK   16  A    between atoms: C_19  and  O_21
REMARK   17  A    between atoms: O_21  and  C_22
REMARK   18  A    between atoms: C_22  and  C_23
REMARK   19  A    between atoms: C_23  and  O_24
REMARK   20  A    between atoms: C_23  and  C_25
REMARK   21  A    between atoms: C_25  and  O_26
REMARK                            x       y       z     vdW  Elec       q    Type
REMARK                         _______ _______ _______ _____ _____    ______ ____
ROOT
ATOM      1  C   UNL     1       1.213   4.303  19.673  0.00  0.00    +0.000 C 
ENDROOT
BRANCH   1   2
ATOM      2  C   UNL     1       1.710   2.938  20.140  0.00  0.00    +0.000 C 
BRANCH   2   3
ATOM      3  C   UNL     1       2.955   2.507  19.362  0.00  0.00    +0.000 C 
BRANCH   3   4
ATOM      4  C   UNL     1       2.773   2.774  17.872  0.00  0.00    +0.000 C 
BRANCH   4   5
ATOM      5  C   UNL     1       4.099   3.030  17.149  0.00  0.00    +0.000 C 
BRANCH   5   6
ATOM      6  C   UNL     1       4.733   4.301  17.669  0.00  0.00    +0.000 C 
ATOM      7  O   UNL     1       4.360   5.428  17.388  0.00  0.00    +0.000 OA
BRANCH   6   8
ATOM      8  O   UNL     1       5.821   4.012  18.446  0.00  0.00    +0.000 OA
BRANCH   8   9
ATOM      9  C   UNL     1       7.033   4.654  18.006  0.00  0.00    +0.000 C 
BRANCH   9  10
ATOM     10  C   UNL     1       7.310   5.856  18.915  0.00  0.00    +0.000 C 
BRANCH  10  11
ATOM     11  O   UNL     1       8.288   5.507  19.892  0.00  0.00    +0.000 OA
ATOM     12  H   UNL     1       7.942   5.741  20.770  0.00  0.00    +0.000 HD
ENDBRANCH  10  11
BRANCH  10  13
ATOM     13  C   UNL     1       7.825   7.055  18.127  0.00  0.00    +0.000 C 
BRANCH  13  14
ATOM     14  O   UNL     1       8.703   7.816  18.941  0.00  0.00    +0.000 OA
ATOM     15  H   UNL     1       9.515   7.306  19.076  0.00  0.00    +0.000 HD
ENDBRANCH  13  14
ENDBRANCH  10  13
ENDBRANCH   9  10
ENDBRANCH   8   9
ENDBRANCH   6   8
ENDBRANCH   5   6
ENDBRANCH   4   5
ENDBRANCH   3   4
ENDBRANCH   2   3
ENDBRANCH   1   2
BRANCH   1  16
ATOM     16  C   UNL     1       1.591   5.394  20.674  0.00  0.00    +0.000 C 
BRANCH  16  17
ATOM     17  C   UNL     1       2.504   6.432  20.025  0.00  0.00    +0.000 C 
BRANCH  17  19
ATOM     18  C   UNL     1       1.445   8.551  20.811  0.00  0.00    +0.000 C 
ATOM     19  C   UNL     1       1.790   7.731  19.804  0.00  0.00    +0.000 C 
BRANCH  18  21
ATOM     20  C   UNL     1      -0.107  10.022  19.591  0.00  0.00    +0.000 C 
ATOM     21  C   UNL     1       0.757   9.806  20.595  0.00  0.00    +0.000 C 
BRANCH  20  22
ATOM     22  C   UNL     1      -0.781  11.357  19.429  0.00  0.00    +0.000 C 
ATOM     23  O   UNL     1      -0.379  12.360  20.007  0.00  0.00    +0.000 OA
BRANCH  22  24
ATOM     24  C   UNL     1      -1.998  11.390  18.521  0.00  0.00    +0.000 C 
BRANCH  24  25
ATOM     25  C   UNL     1      -2.396   9.968  18.126  0.00  0.00    +0.000 C 
BRANCH  25  26
ATOM     26  C   UNL     1      -3.335   9.944  16.925  0.00  0.00    +0.000 C 
BRANCH  26  28
ATOM     27  C   UNL     1      -3.356  10.224  14.430  0.00  0.00    +0.000 C 
ATOM     28  C   UNL     1      -2.550   9.755  15.628  0.00  0.00    +0.000 C 
ENDBRANCH  26  28
ENDBRANCH  25  26
ENDBRANCH  24  25
ENDBRANCH  22  24
ENDBRANCH  20  22
ENDBRANCH  18  21
ENDBRANCH  17  19
ENDBRANCH  16  17
ENDBRANCH   1  16
TORSDOF 20
ENDMDL
MODEL 5
REMARK VINA RESULT:      -5.7      5.493      8.447
REMARK  Name = 
REMARK  21 active torsions:
REMARK  status: ('A' for Active; 'I' for Inactive)
REMARK    1  A    between atoms: C_1  and  C_2
REMARK    2  A    between atoms: C_2  and  C_3
REMARK    3  A    between atoms: C_3  and  C_4
REMARK    4  A    between atoms: C_4  and  C_5
REMARK    5  A    between atoms: C_5  and  C_6
REMARK    6  A    between atoms: C_6  and  C_8
REMARK    7  A    between atoms: C_9  and  C_10
REMARK    8  A    between atoms: C_11  and  C_12
REMARK    9  A    between atoms: C_12  and  C_13
REMARK   10  A    between atoms: C_13  and  C_14
REMARK   11  A    between atoms: C_14  and  C_15
REMARK   12  A    between atoms: C_15  and  C_16
REMARK   13  A    between atoms: C_16  and  C_17
REMARK   14  A    between atoms: C_17  and  C_18
REMARK   15  A    between atoms: C_18  and  C_19
REMARK   16  A    between atoms: C_19  and  O_21
REMARK   17  A    between atoms: O_21  and  C_22
REMARK   18  A    between atoms: C_22  and  C_23
REMARK   19  A    between atoms: C_23  and  O_24
REMARK   20  A    between atoms: C_23  and  C_25
REMARK   21  A    between atoms: C_25  and  O_26
REMARK                            x       y       z     vdW  Elec       q    Type
REMARK                         _______ _______ _______ _____ _____    ______ ____
ROOT
ATOM      1  C   UNL     1       1.515   3.119  19.829  0.00  0.00    +0.000 C 
ENDROOT
BRANCH   1   2
ATOM      2  C   UNL     1       1.145   4.574  19.553  0.00  0.00    +0.000 C 
BRANCH   2   3
ATOM      3  C   UNL     1       1.966   5.527  20.423  0.00  0.00    +0.000 C 
BRANCH   3   4
ATOM      4  C   UNL     1       2.882   6.387  19.558  0.00  0.00    +0.000 C 
BRANCH   4   5
ATOM      5  C   UNL     1       2.160   6.990  18.349  0.00  0.00    +0.000 C 
BRANCH   5   6
ATOM      6  C   UNL     1       1.877   8.455  18.596  0.00  0.00    +0.000 C 
ATOM      7  O   UNL     1       2.296   9.369  17.906  0.00  0.00    +0.000 OA
BRANCH   6   8
ATOM      8  O   UNL     1       1.140   8.616  19.737  0.00  0.00    +0.000 OA
BRANCH   8   9
ATOM      9  C   UNL     1       0.714   9.973  19.965  0.00  0.00    +0.000 C 
BRANCH   9  10
ATOM     10  C   UNL     1       1.073  10.366  21.401  0.00  0.00    +0.000 C 
BRANCH  10  11
ATOM     11  O   UNL     1       0.391  11.567  21.757  0.00  0.00    +0.000 OA
ATOM     12  H   UNL     1       0.926  12.038  22.419  0.00  0.00    +0.000 HD
ENDBRANCH  10  11
BRANCH  10  13
ATOM     13  C   UNL     1       0.685   9.280  22.398  0.00  0.00    +0.000 C 
BRANCH  13  14
ATOM     14  O   UNL     1      -0.548   8.698  22.008  0.00  0.00    +0.000 OA
ATOM     15  H   UNL     1      -1.238   9.374  22.066  0.00  0.00    +0.000 HD
ENDBRANCH  13  14
ENDBRANCH  10  13
ENDBRANCH   9  10
ENDBRANCH   8   9
ENDBRANCH   6   8
ENDBRANCH   5   6
ENDBRANCH   4   5
ENDBRANCH   3   4
ENDBRANCH   2   3
ENDBRANCH   1   2
BRANCH   1  16
ATOM     16  C   UNL     1       2.555   3.022  20.944  0.00  0.00    +0.000 C 
BRANCH  16  17
ATOM     17  C   UNL     1       3.784   2.247  20.472  0.00  0.00    +0.000 C 
BRANCH  17  19
ATOM     18  C   UNL     1       4.189   3.127  18.172  0.00  0.00    +0.000 C 
ATOM     19  C   UNL     1       4.568   3.023  19.457  0.00  0.00    +0.000 C 
BRANCH  18  21
ATOM     20  C   UNL     1       5.634   4.996  17.478  0.00  0.00    +0.000 C 
ATOM     21  C   UNL     1       4.946   3.878  17.193  0.00  0.00    +0.000 C 
BRANCH  20  22
ATOM     22  C   UNL     1       6.395   5.725  16.404  0.00  0.00    +0.000 C 
ATOM     23  O   UNL     1       7.409   6.367  16.651  0.00  0.00    +0.000 OA
BRANCH  22  24
ATOM     24  C   UNL     1       5.829   5.632  14.998  0.00  0.00    +0.000 C 
BRANCH  24  25
ATOM     25  C   UNL     1       6.809   4.897  14.086  0.00  0.00    +0.000 C 
BRANCH  25  26
ATOM     26  C   UNL     1       6.257   3.562  13.599  0.00  0.00    +0.000 C 
BRANCH  26  28
ATOM     27  C   UNL     1       5.034   2.755  11.559  0.00  0.00    +0.000 C 
ATOM     28  C   UNL     1       5.054   3.778  12.681  0.00  0.00    +0.000 C 
ENDBRANCH  26  28
ENDBRANCH  25  26
ENDBRANCH  24  25
ENDBRANCH  22  24
ENDBRANCH  20  22
ENDBRANCH  18  21
ENDBRANCH  17  19
ENDBRANCH  16  17
ENDBRANCH   1  16
TORSDOF 20
ENDMDL
MODEL 6
REMARK VINA RESULT:      -5.6      6.009      9.102
REMARK  Name = 
REMARK  21 active torsions:
REMARK  status: ('A' for Active; 'I' for Inactive)
REMARK    1  A    between atoms: C_1  and  C_2
REMARK    2  A    between atoms: C_2  and  C_3
REMARK    3  A    between atoms: C_3  and  C_4
REMARK    4  A    between atoms: C_4  and  C_5
REMARK    5  A    between atoms: C_5  and  C_6
REMARK    6  A    between atoms: C_6  and  C_8
REMARK    7  A    between atoms: C_9  and  C_10
REMARK    8  A    between atoms: C_11  and  C_12
REMARK    9  A    between atoms: C_12  and  C_13
REMARK   10  A    between atoms: C_13  and  C_14
REMARK   11  A    between atoms: C_14  and  C_15
REMARK   12  A    between atoms: C_15  and  C_16
REMARK   13  A    between atoms: C_16  and  C_17
REMARK   14  A    between atoms: C_17  and  C_18
REMARK   15  A    between atoms: C_18  and  C_19
REMARK   16  A    between atoms: C_19  and  O_21
REMARK   17  A    between atoms: O_21  and  C_22
REMARK   18  A    between atoms: C_22  and  C_23
REMARK   19  A    between atoms: C_23  and  O_24
REMARK   20  A    between atoms: C_23  and  C_25
REMARK   21  A    between atoms: C_25  and  O_26
REMARK                            x       y       z     vdW  Elec       q    Type
REMARK                         _______ _______ _______ _____ _____    ______ ____
ROOT
ATOM      1  C   UNL     1       1.719   3.753  21.285  0.00  0.00    +0.000 C 
ENDROOT
BRANCH   1   2
ATOM      2  C   UNL     1       1.289   5.006  20.527  0.00  0.00    +0.000 C 
BRANCH   2   3
ATOM      3  C   UNL     1       2.163   6.205  20.901  0.00  0.00    +0.000 C 
BRANCH   3   4
ATOM      4  C   UNL     1       1.500   7.507  20.463  0.00  0.00    +0.000 C 
BRANCH   4   5
ATOM      5  C   UNL     1       0.554   8.077  21.524  0.00  0.00    +0.000 C 
BRANCH   5   6
ATOM      6  C   UNL     1       0.877   9.534  21.774  0.00  0.00    +0.000 C 
ATOM      7  O   UNL     1       0.768  10.093  22.853  0.00  0.00    +0.000 OA
BRANCH   6   8
ATOM      8  O   UNL     1       1.246  10.151  20.611  0.00  0.00    +0.000 OA
BRANCH   8   9
ATOM      9  C   UNL     1       0.701  11.475  20.460  0.00  0.00    +0.000 C 
BRANCH   9  10
ATOM     10  C   UNL     1       0.388  11.711  18.979  0.00  0.00    +0.000 C 
BRANCH  10  11
ATOM     11  O   UNL     1       1.487  11.280  18.179  0.00  0.00    +0.000 OA
ATOM     12  H   UNL     1       1.496  11.806  17.362  0.00  0.00    +0.000 HD
ENDBRANCH  10  11
BRANCH  10  13
ATOM     13  C   UNL     1      -0.857  10.952  18.536  0.00  0.00    +0.000 C 
BRANCH  13  14
ATOM     14  O   UNL     1      -0.500   9.987  17.558  0.00  0.00    +0.000 OA
ATOM     15  H   UNL     1      -0.018   9.271  17.997  0.00  0.00    +0.000 HD
ENDBRANCH  13  14
ENDBRANCH  10  13
ENDBRANCH   9  10
ENDBRANCH   8   9
ENDBRANCH   6   8
ENDBRANCH   5   6
ENDBRANCH   4   5
ENDBRANCH   3   4
ENDBRANCH   2   3
ENDBRANCH   1   2
BRANCH   1  16
ATOM     16  C   UNL     1       1.945   2.586  20.325  0.00  0.00    +0.000 C 
BRANCH  16  17
ATOM     17  C   UNL     1       1.184   2.804  19.019  0.00  0.00    +0.000 C 
BRANCH  17  19
ATOM     18  C   UNL     1       3.439   3.272  18.056  0.00  0.00    +0.000 C 
ATOM     19  C   UNL     1       2.109   3.158  17.894  0.00  0.00    +0.000 C 
BRANCH  18  21
ATOM     20  C   UNL     1       4.650   4.872  16.630  0.00  0.00    +0.000 C 
ATOM     21  C   UNL     1       4.331   3.613  16.968  0.00  0.00    +0.000 C 
BRANCH  20  22
ATOM     22  C   UNL     1       5.583   5.147  15.483  0.00  0.00    +0.000 C 
ATOM     23  O   UNL     1       5.875   6.288  15.144  0.00  0.00    +0.000 OA
BRANCH  22  24
ATOM     24  C   UNL     1       6.133   3.931  14.758  0.00  0.00    +0.000 C 
BRANCH  24  25
ATOM     25  C   UNL     1       6.001   4.117  13.247  0.00  0.00    +0.000 C 
BRANCH  25  26
ATOM     26  C   UNL     1       6.302   2.836  12.479  0.00  0.00    +0.000 C 
BRANCH  26  28
ATOM     27  C   UNL     1       4.006   3.443  11.664  0.00  0.00    +0.000 C 
ATOM     28  C   UNL     1       5.226   2.572  11.426  0.00  0.00    +0.000 C 
ENDBRANCH  26  28
ENDBRANCH  25  26
ENDBRANCH  24  25
ENDBRANCH  22  24
ENDBRANCH  20  22
ENDBRANCH  18  21
ENDBRANCH  17  19
ENDBRANCH  16  17
ENDBRANCH   1  16
TORSDOF 20
ENDMDL
MODEL 7
REMARK VINA RESULT:      -5.6      4.603      8.225
REMARK  Name = 
REMARK  21 active torsions:
REMARK  status: ('A' for Active; 'I' for Inactive)
REMARK    1  A    between atoms: C_1  and  C_2
REMARK    2  A    between atoms: C_2  and  C_3
REMARK    3  A    between atoms: C_3  and  C_4
REMARK    4  A    between atoms: C_4  and  C_5
REMARK    5  A    between atoms: C_5  and  C_6
REMARK    6  A    between atoms: C_6  and  C_8
REMARK    7  A    between atoms: C_9  and  C_10
REMARK    8  A    between atoms: C_11  and  C_12
REMARK    9  A    between atoms: C_12  and  C_13
REMARK   10  A    between atoms: C_13  and  C_14
REMARK   11  A    between atoms: C_14  and  C_15
REMARK   12  A    between atoms: C_15  and  C_16
REMARK   13  A    between atoms: C_16  and  C_17
REMARK   14  A    between atoms: C_17  and  C_18
REMARK   15  A    between atoms: C_18  and  C_19
REMARK   16  A    between atoms: C_19  and  O_21
REMARK   17  A    between atoms: O_21  and  C_22
REMARK   18  A    between atoms: C_22  and  C_23
REMARK   19  A    between atoms: C_23  and  O_24
REMARK   20  A    between atoms: C_23  and  C_25
REMARK   21  A    between atoms: C_25  and  O_26
REMARK                            x       y       z     vdW  Elec       q    Type
REMARK                         _______ _______ _______ _____ _____    ______ ____
ROOT
ATOM      1  C   UNL     1       1.399   4.346  17.630  0.00  0.00    +0.000 C 
ENDROOT
BRANCH   1   2
ATOM      2  C   UNL     1       2.300   3.168  17.267  0.00  0.00    +0.000 C 
BRANCH   2   3
ATOM      3  C   UNL     1       2.486   2.228  18.459  0.00  0.00    +0.000 C 
BRANCH   3   4
ATOM      4  C   UNL     1       3.966   1.933  18.682  0.00  0.00    +0.000 C 
BRANCH   4   5
ATOM      5  C   UNL     1       4.656   2.986  19.553  0.00  0.00    +0.000 C 
BRANCH   5   6
ATOM      6  C   UNL     1       5.426   3.953  18.680  0.00  0.00    +0.000 C 
ATOM      7  O   UNL     1       5.386   3.970  17.461  0.00  0.00    +0.000 OA
BRANCH   6   8
ATOM      8  O   UNL     1       6.223   4.759  19.444  0.00  0.00    +0.000 OA
BRANCH   8   9
ATOM      9  C   UNL     1       7.443   5.156  18.789  0.00  0.00    +0.000 C 
BRANCH   9  10
ATOM     10  C   UNL     1       7.369   6.655  18.480  0.00  0.00    +0.000 C 
BRANCH  10  11
ATOM     11  O   UNL     1       8.555   7.301  18.937  0.00  0.00    +0.000 OA
ATOM     12  H   UNL     1       9.131   7.461  18.170  0.00  0.00    +0.000 HD
ENDBRANCH  10  11
BRANCH  10  13
ATOM     13  C   UNL     1       7.224   6.918  16.985  0.00  0.00    +0.000 C 
BRANCH  13  14
ATOM     14  O   UNL     1       7.408   5.705  16.272  0.00  0.00    +0.000 OA
ATOM     15  H   UNL     1       7.973   5.123  16.798  0.00  0.00    +0.000 HD
ENDBRANCH  13  14
ENDBRANCH  10  13
ENDBRANCH   9  10
ENDBRANCH   8   9
ENDBRANCH   6   8
ENDBRANCH   5   6
ENDBRANCH   4   5
ENDBRANCH   3   4
ENDBRANCH   2   3
ENDBRANCH   1   2
BRANCH   1  16
ATOM     16  C   UNL     1       2.054   5.227  18.692  0.00  0.00    +0.000 C 
BRANCH  16  17
ATOM     17  C   UNL     1       2.827   6.374  18.044  0.00  0.00    +0.000 C 
BRANCH  17  19
ATOM     18  C   UNL     1       2.050   8.729  17.758  0.00  0.00    +0.000 C 
ATOM     19  C   UNL     1       2.376   7.706  18.566  0.00  0.00    +0.000 C 
BRANCH  18  21
ATOM     20  C   UNL     1       0.425  10.220  18.853  0.00  0.00    +0.000 C 
ATOM     21  C   UNL     1       1.614  10.014  18.264  0.00  0.00    +0.000 C 
BRANCH  20  22
ATOM     22  C   UNL     1       0.041  11.587  19.351  0.00  0.00    +0.000 C 
ATOM     23  O   UNL     1       0.856  12.498  19.436  0.00  0.00    +0.000 OA
BRANCH  22  24
ATOM     24  C   UNL     1      -1.412  11.771  19.755  0.00  0.00    +0.000 C 
BRANCH  24  25
ATOM     25  C   UNL     1      -2.249  12.161  18.539  0.00  0.00    +0.000 C 
BRANCH  25  26
ATOM     26  C   UNL     1      -3.644  11.547  18.576  0.00  0.00    +0.000 C 
BRANCH  26  28
ATOM     27  C   UNL     1      -2.868   9.725  17.032  0.00  0.00    +0.000 C 
ATOM     28  C   UNL     1      -3.931  10.778  17.287  0.00  0.00    +0.000 C 
ENDBRANCH  26  28
ENDBRANCH  25  26
ENDBRANCH  24  25
ENDBRANCH  22  24
ENDBRANCH  20  22
ENDBRANCH  18  21
ENDBRANCH  17  19
ENDBRANCH  16  17
ENDBRANCH   1  16
TORSDOF 20
ENDMDL
MODEL 8
REMARK VINA RESULT:      -5.6      5.884      9.282
REMARK  Name = 
REMARK  21 active torsions:
REMARK  status: ('A' for Active; 'I' for Inactive)
REMARK    1  A    between atoms: C_1  and  C_2
REMARK    2  A    between atoms: C_2  and  C_3
REMARK    3  A    between atoms: C_3  and  C_4
REMARK    4  A    between atoms: C_4  and  C_5
REMARK    5  A    between atoms: C_5  and  C_6
REMARK    6  A    between atoms: C_6  and  C_8
REMARK    7  A    between atoms: C_9  and  C_10
REMARK    8  A    between atoms: C_11  and  C_12
REMARK    9  A    between atoms: C_12  and  C_13
REMARK   10  A    between atoms: C_13  and  C_14
REMARK   11  A    between atoms: C_14  and  C_15
REMARK   12  A    between atoms: C_15  and  C_16
REMARK   13  A    between atoms: C_16  and  C_17
REMARK   14  A    between atoms: C_17  and  C_18
REMARK   15  A    between atoms: C_18  and  C_19
REMARK   16  A    between atoms: C_19  and  O_21
REMARK   17  A    between atoms: O_21  and  C_22
REMARK   18  A    between atoms: C_22  and  C_23
REMARK   19  A    between atoms: C_23  and  O_24
REMARK   20  A    between atoms: C_23  and  C_25
REMARK   21  A    between atoms: C_25  and  O_26
REMARK                            x       y       z     vdW  Elec       q    Type
REMARK                         _______ _______ _______ _____ _____    ______ ____
ROOT
ATOM      1  C   UNL     1       0.934   3.887  20.189  0.00  0.00    +0.000 C 
ENDROOT
BRANCH   1   2
ATOM      2  C   UNL     1       1.683   5.095  19.633  0.00  0.00    +0.000 C 
BRANCH   2   3
ATOM      3  C   UNL     1       1.729   6.234  20.654  0.00  0.00    +0.000 C 
BRANCH   3   4
ATOM      4  C   UNL     1       2.189   7.528  19.992  0.00  0.00    +0.000 C 
BRANCH   4   5
ATOM      5  C   UNL     1       1.053   8.265  19.277  0.00  0.00    +0.000 C 
BRANCH   5   6
ATOM      6  C   UNL     1       1.622   9.234  18.265  0.00  0.00    +0.000 C 
ATOM      7  O   UNL     1       2.334   8.917  17.326  0.00  0.00    +0.000 OA
BRANCH   6   8
ATOM      8  O   UNL     1       1.283  10.519  18.586  0.00  0.00    +0.000 OA
BRANCH   8   9
ATOM      9  C   UNL     1      -0.136  10.764  18.571  0.00  0.00    +0.000 C 
BRANCH   9  10
ATOM     10  C   UNL     1      -0.496  11.644  19.772  0.00  0.00    +0.000 C 
BRANCH  10  11
ATOM     11  O   UNL     1      -0.852  10.823  20.883  0.00  0.00    +0.000 OA
ATOM     12  H   UNL     1      -0.919  11.387  21.672  0.00  0.00    +0.000 HD
ENDBRANCH  10  11
BRANCH  10  13
ATOM     13  C   UNL     1       0.668  12.536  20.189  0.00  0.00    +0.000 C 
BRANCH  13  14
ATOM     14  O   UNL     1       1.387  11.916  21.243  0.00  0.00    +0.000 OA
ATOM     15  H   UNL     1       1.102  12.310  22.081  0.00  0.00    +0.000 HD
ENDBRANCH  13  14
ENDBRANCH  10  13
ENDBRANCH   9  10
ENDBRANCH   8   9
ENDBRANCH   6   8
ENDBRANCH   5   6
ENDBRANCH   4   5
ENDBRANCH   3   4
ENDBRANCH   2   3
ENDBRANCH   1   2
BRANCH   1  16
ATOM     16  C   UNL     1       1.539   2.583  19.670  0.00  0.00    +0.000 C 
BRANCH  16  17
ATOM     17  C   UNL     1       3.065   2.650  19.685  0.00  0.00    +0.000 C 
BRANCH  17  19
ATOM     18  C   UNL     1       4.437   3.845  17.976  0.00  0.00    +0.000 C 
ATOM     19  C   UNL     1       3.622   2.829  18.305  0.00  0.00    +0.000 C 
BRANCH  18  21
ATOM     20  C   UNL     1       6.180   4.549  16.385  0.00  0.00    +0.000 C 
ATOM     21  C   UNL     1       4.975   4.014  16.643  0.00  0.00    +0.000 C 
BRANCH  20  22
ATOM     22  C   UNL     1       6.669   4.695  14.971  0.00  0.00    +0.000 C 
ATOM     23  O   UNL     1       7.767   5.174  14.711  0.00  0.00    +0.000 OA
BRANCH  22  24
ATOM     24  C   UNL     1       5.720   4.229  13.880  0.00  0.00    +0.000 C 
BRANCH  24  25
ATOM     25  C   UNL     1       6.484   3.419  12.833  0.00  0.00    +0.000 C 
BRANCH  25  26
ATOM     26  C   UNL     1       5.570   2.885  11.736  0.00  0.00    +0.000 C 
BRANCH  26  28
ATOM     27  C   UNL     1       3.311   3.091  10.659  0.00  0.00    +0.000 C 
ATOM     28  C   UNL     1       4.246   3.649  11.716  0.00  0.00    +0.000 C 
ENDBRANCH  26  28
ENDBRANCH  25  26
ENDBRANCH  24  25
ENDBRANCH  22  24
ENDBRANCH  20  22
ENDBRANCH  18  21
ENDBRANCH  17  19
ENDBRANCH  16  17
ENDBRANCH   1  16
TORSDOF 20
ENDMDL
MODEL 9
REMARK VINA RESULT:      -5.5      5.193      8.033
REMARK  Name = 
REMARK  21 active torsions:
REMARK  status: ('A' for Active; 'I' for Inactive)
REMARK    1  A    between atoms: C_1  and  C_2
REMARK    2  A    between atoms: C_2  and  C_3
REMARK    3  A    between atoms: C_3  and  C_4
REMARK    4  A    between atoms: C_4  and  C_5
REMARK    5  A    between atoms: C_5  and  C_6
REMARK    6  A    between atoms: C_6  and  C_8
REMARK    7  A    between atoms: C_9  and  C_10
REMARK    8  A    between atoms: C_11  and  C_12
REMARK    9  A    between atoms: C_12  and  C_13
REMARK   10  A    between atoms: C_13  and  C_14
REMARK   11  A    between atoms: C_14  and  C_15
REMARK   12  A    between atoms: C_15  and  C_16
REMARK   13  A    between atoms: C_16  and  C_17
REMARK   14  A    between atoms: C_17  and  C_18
REMARK   15  A    between atoms: C_18  and  C_19
REMARK   16  A    between atoms: C_19  and  O_21
REMARK   17  A    between atoms: O_21  and  C_22
REMARK   18  A    between atoms: C_22  and  C_23
REMARK   19  A    between atoms: C_23  and  O_24
REMARK   20  A    between atoms: C_23  and  C_25
REMARK   21  A    between atoms: C_25  and  O_26
REMARK                            x       y       z     vdW  Elec       q    Type
REMARK                         _______ _______ _______ _____ _____    ______ ____
ROOT
ATOM      1  C   UNL     1       1.552   4.484  19.531  0.00  0.00    +0.000 C 
ENDROOT
BRANCH   1   2
ATOM      2  C   UNL     1       1.917   5.104  20.877  0.00  0.00    +0.000 C 
BRANCH   2   3
ATOM      3  C   UNL     1       1.453   6.559  20.959  0.00  0.00    +0.000 C 
BRANCH   3   4
ATOM      4  C   UNL     1       2.095   7.388  19.851  0.00  0.00    +0.000 C 
BRANCH   4   5
ATOM      5  C   UNL     1       1.736   8.874  19.938  0.00  0.00    +0.000 C 
BRANCH   5   6
ATOM      6  C   UNL     1       1.107   9.329  18.639  0.00  0.00    +0.000 C 
ATOM      7  O   UNL     1       1.685   9.369  17.565  0.00  0.00    +0.000 OA
BRANCH   6   8
ATOM      8  O   UNL     1      -0.176   9.751  18.849  0.00  0.00    +0.000 OA
BRANCH   8   9
ATOM      9  C   UNL     1      -0.851  10.172  17.649  0.00  0.00    +0.000 C 
BRANCH   9  10
ATOM     10  C   UNL     1      -1.780  11.341  17.992  0.00  0.00    +0.000 C 
BRANCH  10  11
ATOM     11  O   UNL     1      -1.515  12.439  17.121  0.00  0.00    +0.000 OA
ATOM     12  H   UNL     1      -2.258  12.523  16.499  0.00  0.00    +0.000 HD
ENDBRANCH  10  11
BRANCH  10  13
ATOM     13  C   UNL     1      -3.248  10.958  17.848  0.00  0.00    +0.000 C 
BRANCH  13  14
ATOM     14  O   UNL     1      -3.984  12.071  17.366  0.00  0.00    +0.000 OA
ATOM     15  H   UNL     1      -3.880  12.113  16.404  0.00  0.00    +0.000 HD
ENDBRANCH  13  14
ENDBRANCH  10  13
ENDBRANCH   9  10
ENDBRANCH   8   9
ENDBRANCH   6   8
ENDBRANCH   5   6
ENDBRANCH   4   5
ENDBRANCH   3   4
ENDBRANCH   2   3
ENDBRANCH   1   2
BRANCH   1  16
ATOM     16  C   UNL     1       1.104   3.033  19.701  0.00  0.00    +0.000 C 
BRANCH  16  17
ATOM     17  C   UNL     1       1.566   2.181  18.521  0.00  0.00    +0.000 C 
BRANCH  17  19
ATOM     18  C   UNL     1       3.689   3.101  17.583  0.00  0.00    +0.000 C 
ATOM     19  C   UNL     1       2.351   2.990  17.532  0.00  0.00    +0.000 C 
BRANCH  18  21
ATOM     20  C   UNL     1       5.612   3.486  16.094  0.00  0.00    +0.000 C 
ATOM     21  C   UNL     1       4.444   3.881  16.626  0.00  0.00    +0.000 C 
BRANCH  20  22
ATOM     22  C   UNL     1       6.340   4.356  15.107  0.00  0.00    +0.000 C 
ATOM     23  O   UNL     1       6.191   4.228  13.897  0.00  0.00    +0.000 OA
BRANCH  22  24
ATOM     24  C   UNL     1       7.283   5.393  15.692  0.00  0.00    +0.000 C 
BRANCH  24  25
ATOM     25  C   UNL     1       6.528   6.299  16.663  0.00  0.00    +0.000 C 
BRANCH  25  26
ATOM     26  C   UNL     1       7.447   6.918  17.709  0.00  0.00    +0.000 C 
BRANCH  26  28
ATOM     27  C   UNL     1       6.297   5.316  19.264  0.00  0.00    +0.000 C 
ATOM     28  C   UNL     1       7.614   5.982  18.905  0.00  0.00    +0.000 C 
ENDBRANCH  26  28
ENDBRANCH  25  26
ENDBRANCH  24  25
ENDBRANCH  22  24
ENDBRANCH  20  22
ENDBRANCH  18  21
ENDBRANCH  17  19
ENDBRANCH  16  17
ENDBRANCH   1  16
TORSDOF 20
ENDMDL
