MODEL 1
REMARK VINA RESULT:      -6.6      0.000      0.000
REMARK  Name = 
REMARK  6 active torsions:
REMARK  status: ('A' for Active; 'I' for Inactive)
REMARK    1  A    between atoms: C_1  and  N_2
REMARK    2  A    between atoms: N_2  and  C_3
REMARK    3  A    between atoms: C_4  and  S_5
REMARK    4  A    between atoms: N_6  and  C_7
REMARK    5  A    between atoms: C_10  and  S_11
REMARK    6  A    between atoms: S_11  and  N_14
REMARK                            x       y       z     vdW  Elec       q    Type
REMARK                         _______ _______ _______ _____ _____    ______ ____
ROOT
ATOM      1  C   UNL     1       1.516   8.895  19.643  0.00  0.00    +0.000 A 
ATOM      2  C   UNL     1       2.143   8.605  18.428  0.00  0.00    +0.000 A 
ATOM      3  C   UNL     1       2.588   7.317  18.122  0.00  0.00    +0.000 A 
ATOM      4  C   UNL     1       2.513   6.313  19.086  0.00  0.00    +0.000 A 
ATOM      5  C   UNL     1       1.918   6.577  20.323  0.00  0.00    +0.000 A 
ATOM      6  C   UNL     1       1.422   7.867  20.591  0.00  0.00    +0.000 A 
ENDROOT
BRANCH   1  11
ATOM      7  C   UNL     1      -1.036  13.089  19.175  0.00  0.00    +0.000 C 
ATOM      8  N   UNL     1      -0.089  12.197  19.830  0.00  0.00    +0.000 N 
ATOM      9  C   UNL     1       0.758  12.801  20.853  0.00  0.00    +0.000 C 
ATOM     10  C   UNL     1       0.144  10.872  19.461  0.00  0.00    +0.000 C 
ATOM     11  N   UNL     1       1.127  10.198  19.997  0.00  0.00    +0.000 NA
BRANCH  10  12
ATOM     12  S   UNL     1      -0.960  10.186  18.257  0.00  0.00    +0.000 S 
ATOM     13  H   UNL     1      -0.194   9.127  17.963  0.00  0.00    +0.000 HD
ENDBRANCH  10  12
ENDBRANCH   1  11
BRANCH   4  14
ATOM     14  S   UNL     1       3.141   4.692  18.681  0.00  0.00    +0.000 S 
ATOM     15  O   UNL     1       3.217   3.939  19.918  0.00  0.00    +0.000 OA
ATOM     16  O   UNL     1       2.374   4.202  17.557  0.00  0.00    +0.000 OA
BRANCH  14  17
ATOM     17  N   UNL     1       4.746   4.989  18.141  0.00  0.00    +0.000 NA
ATOM     18  C   UNL     1       5.751   5.167  19.222  0.00  0.00    +0.000 C 
ATOM     19  C   UNL     1       7.100   5.607  18.664  0.00  0.00    +0.000 C 
ATOM     20  C   UNL     1       7.582   4.646  17.588  0.00  0.00    +0.000 C 
ATOM     21  C   UNL     1       6.550   4.585  16.472  0.00  0.00    +0.000 C 
ATOM     22  C   UNL     1       5.186   4.150  16.999  0.00  0.00    +0.000 C 
ENDBRANCH  14  17
ENDBRANCH   4  14
TORSDOF 4
ENDMDL
MODEL 2
REMARK VINA RESULT:      -6.5      1.653      2.044
REMARK  Name = 
REMARK  6 active torsions:
REMARK  status: ('A' for Active; 'I' for Inactive)
REMARK    1  A    between atoms: C_1  and  N_2
REMARK    2  A    between atoms: N_2  and  C_3
REMARK    3  A    between atoms: C_4  and  S_5
REMARK    4  A    between atoms: N_6  and  C_7
REMARK    5  A    between atoms: C_10  and  S_11
REMARK    6  A    between atoms: S_11  and  N_14
REMARK                            x       y       z     vdW  Elec       q    Type
REMARK                         _______ _______ _______ _____ _____    ______ ____
ROOT
ATOM      1  C   UNL     1       1.686   7.024  20.459  0.00  0.00    +0.000 A 
ATOM      2  C   UNL     1       2.622   7.263  19.449  0.00  0.00    +0.000 A 
ATOM      3  C   UNL     1       3.329   6.222  18.843  0.00  0.00    +0.000 A 
ATOM      4  C   UNL     1       3.189   4.921  19.322  0.00  0.00    +0.000 A 
ATOM      5  C   UNL     1       2.282   4.650  20.351  0.00  0.00    +0.000 A 
ATOM      6  C   UNL     1       1.535   5.705  20.910  0.00  0.00    +0.000 A 
ENDROOT
BRANCH   1  11
ATOM      7  C   UNL     1      -0.078  11.597  21.000  0.00  0.00    +0.000 C 
ATOM      8  N   UNL     1       0.137  10.217  21.415  0.00  0.00    +0.000 N 
ATOM      9  C   UNL     1      -0.161   9.914  22.810  0.00  0.00    +0.000 C 
ATOM     10  C   UNL     1       0.717   9.228  20.621  0.00  0.00    +0.000 C 
ATOM     11  N   UNL     1       1.019   8.062  21.130  0.00  0.00    +0.000 NA
BRANCH  10  12
ATOM     12  S   UNL     1       0.997   9.646  18.922  0.00  0.00    +0.000 S 
ATOM     13  H   UNL     1       1.399  10.901  19.159  0.00  0.00    +0.000 HD
ENDBRANCH  10  12
ENDBRANCH   1  11
BRANCH   4  14
ATOM     14  S   UNL     1       4.148   3.622  18.560  0.00  0.00    +0.000 S 
ATOM     15  O   UNL     1       5.042   3.098  19.574  0.00  0.00    +0.000 OA
ATOM     16  O   UNL     1       3.222   2.756  17.865  0.00  0.00    +0.000 OA
BRANCH  14  17
ATOM     17  N   UNL     1       5.098   4.439  17.385  0.00  0.00    +0.000 NA
ATOM     18  C   UNL     1       6.513   4.679  17.773  0.00  0.00    +0.000 C 
ATOM     19  C   UNL     1       7.229   5.566  16.761  0.00  0.00    +0.000 C 
ATOM     20  C   UNL     1       7.113   4.990  15.358  0.00  0.00    +0.000 C 
ATOM     21  C   UNL     1       5.642   4.860  14.990  0.00  0.00    +0.000 C 
ATOM     22  C   UNL     1       4.895   3.980  15.988  0.00  0.00    +0.000 C 
ENDBRANCH  14  17
ENDBRANCH   4  14
TORSDOF 4
ENDMDL
MODEL 3
REMARK VINA RESULT:      -6.4      3.236      8.025
REMARK  Name = 
REMARK  6 active torsions:
REMARK  status: ('A' for Active; 'I' for Inactive)
REMARK    1  A    between atoms: C_1  and  N_2
REMARK    2  A    between atoms: N_2  and  C_3
REMARK    3  A    between atoms: C_4  and  S_5
REMARK    4  A    between atoms: N_6  and  C_7
REMARK    5  A    between atoms: C_10  and  S_11
REMARK    6  A    between atoms: S_11  and  N_14
REMARK                            x       y       z     vdW  Elec       q    Type
REMARK                         _______ _______ _______ _____ _____    ______ ____
ROOT
ATOM      1  C   UNL     1       2.612   7.318  18.835  0.00  0.00    +0.000 A 
ATOM      2  C   UNL     1       1.953   7.601  20.035  0.00  0.00    +0.000 A 
ATOM      3  C   UNL     1       1.167   8.744  20.188  0.00  0.00    +0.000 A 
ATOM      4  C   UNL     1       1.120   9.692  19.167  0.00  0.00    +0.000 A 
ATOM      5  C   UNL     1       1.791   9.455  17.964  0.00  0.00    +0.000 A 
ATOM      6  C   UNL     1       2.532   8.267  17.807  0.00  0.00    +0.000 A 
ENDROOT
BRANCH   1  11
ATOM      7  C   UNL     1       3.685   2.562  18.097  0.00  0.00    +0.000 C 
ATOM      8  N   UNL     1       4.020   3.964  18.307  0.00  0.00    +0.000 N 
ATOM      9  C   UNL     1       5.409   4.246  18.652  0.00  0.00    +0.000 C 
ATOM     10  C   UNL     1       3.096   5.009  18.329  0.00  0.00    +0.000 C 
ATOM     11  N   UNL     1       3.464   6.211  18.686  0.00  0.00    +0.000 NA
BRANCH  10  12
ATOM     12  S   UNL     1       1.441   4.605  17.844  0.00  0.00    +0.000 S 
ATOM     13  H   UNL     1       1.749   3.428  17.284  0.00  0.00    +0.000 HD
ENDBRANCH  10  12
ENDBRANCH   1  11
BRANCH   4  14
ATOM     14  S   UNL     1       0.149  11.170  19.416  0.00  0.00    +0.000 S 
ATOM     15  O   UNL     1      -0.019  11.336  20.847  0.00  0.00    +0.000 OA
ATOM     16  O   UNL     1       0.742  12.213  18.610  0.00  0.00    +0.000 OA
BRANCH  14  17
ATOM     17  N   UNL     1      -1.383  10.781  18.743  0.00  0.00    +0.000 NA
ATOM     18  C   UNL     1      -2.405  11.857  18.839  0.00  0.00    +0.000 C 
ATOM     19  C   UNL     1      -3.777  11.367  18.390  0.00  0.00    +0.000 C 
ATOM     20  C   UNL     1      -3.709  10.769  16.993  0.00  0.00    +0.000 C 
ATOM     21  C   UNL     1      -2.716   9.616  16.990  0.00  0.00    +0.000 C 
ATOM     22  C   UNL     1      -1.331  10.073  17.440  0.00  0.00    +0.000 C 
ENDBRANCH  14  17
ENDBRANCH   4  14
TORSDOF 4
ENDMDL
MODEL 4
REMARK VINA RESULT:      -6.4      2.411      3.445
REMARK  Name = 
REMARK  6 active torsions:
REMARK  status: ('A' for Active; 'I' for Inactive)
REMARK    1  A    between atoms: C_1  and  N_2
REMARK    2  A    between atoms: N_2  and  C_3
REMARK    3  A    between atoms: C_4  and  S_5
REMARK    4  A    between atoms: N_6  and  C_7
REMARK    5  A    between atoms: C_10  and  S_11
REMARK    6  A    between atoms: S_11  and  N_14
REMARK                            x       y       z     vdW  Elec       q    Type
REMARK                         _______ _______ _______ _____ _____    ______ ____
ROOT
ATOM      1  C   UNL     1       0.853   9.540  19.130  0.00  0.00    +0.000 A 
ATOM      2  C   UNL     1       1.220   8.687  20.175  0.00  0.00    +0.000 A 
ATOM      3  C   UNL     1       2.112   7.631  19.982  0.00  0.00    +0.000 A 
ATOM      4  C   UNL     1       2.570   7.340  18.698  0.00  0.00    +0.000 A 
ATOM      5  C   UNL     1       2.200   8.155  17.624  0.00  0.00    +0.000 A 
ATOM      6  C   UNL     1       1.345   9.251  17.850  0.00  0.00    +0.000 A 
ENDROOT
BRANCH   1  11
ATOM      7  C   UNL     1      -0.654  14.172  19.899  0.00  0.00    +0.000 C 
ATOM      8  N   UNL     1      -0.856  12.757  19.620  0.00  0.00    +0.000 N 
ATOM      9  C   UNL     1      -2.224  12.266  19.759  0.00  0.00    +0.000 C 
ATOM     10  C   UNL     1       0.164  11.840  19.366  0.00  0.00    +0.000 C 
ATOM     11  N   UNL     1      -0.097  10.562  19.289  0.00  0.00    +0.000 NA
BRANCH  10  12
ATOM     12  S   UNL     1       1.789  12.513  19.152  0.00  0.00    +0.000 S 
ATOM     13  H   UNL     1       2.280  11.464  18.480  0.00  0.00    +0.000 HD
ENDBRANCH  10  12
ENDBRANCH   1  11
BRANCH   4  14
ATOM     14  S   UNL     1       3.666   5.948  18.477  0.00  0.00    +0.000 S 
ATOM     15  O   UNL     1       4.206   6.036  17.134  0.00  0.00    +0.000 OA
ATOM     16  O   UNL     1       4.539   5.903  19.628  0.00  0.00    +0.000 OA
BRANCH  14  17
ATOM     17  N   UNL     1       2.626   4.582  18.543  0.00  0.00    +0.000 NA
ATOM     18  C   UNL     1       3.172   3.344  17.930  0.00  0.00    +0.000 C 
ATOM     19  C   UNL     1       2.122   2.240  17.866  0.00  0.00    +0.000 C 
ATOM     20  C   UNL     1       1.525   1.980  19.240  0.00  0.00    +0.000 C 
ATOM     21  C   UNL     1       0.901   3.264  19.767  0.00  0.00    +0.000 C 
ATOM     22  C   UNL     1       1.928   4.392  19.839  0.00  0.00    +0.000 C 
ENDBRANCH  14  17
ENDBRANCH   4  14
TORSDOF 4
ENDMDL
MODEL 5
REMARK VINA RESULT:      -6.4      0.273      1.083
REMARK  Name = 
REMARK  6 active torsions:
REMARK  status: ('A' for Active; 'I' for Inactive)
REMARK    1  A    between atoms: C_1  and  N_2
REMARK    2  A    between atoms: N_2  and  C_3
REMARK    3  A    between atoms: C_4  and  S_5
REMARK    4  A    between atoms: N_6  and  C_7
REMARK    5  A    between atoms: C_10  and  S_11
REMARK    6  A    between atoms: S_11  and  N_14
REMARK                            x       y       z     vdW  Elec       q    Type
REMARK                         _______ _______ _______ _____ _____    ______ ____
ROOT
ATOM      1  C   UNL     1       1.516   8.794  19.898  0.00  0.00    +0.000 A 
ATOM      2  C   UNL     1       1.424   7.672  20.726  0.00  0.00    +0.000 A 
ATOM      3  C   UNL     1       1.944   6.434  20.345  0.00  0.00    +0.000 A 
ATOM      4  C   UNL     1       2.471   6.271  19.064  0.00  0.00    +0.000 A 
ATOM      5  C   UNL     1       2.552   7.365  18.199  0.00  0.00    +0.000 A 
ATOM      6  C   UNL     1       2.075   8.620  18.624  0.00  0.00    +0.000 A 
ENDROOT
BRANCH   1  11
ATOM      7  C   UNL     1      -1.337  12.749  19.162  0.00  0.00    +0.000 C 
ATOM      8  N   UNL     1      -0.433  11.910  19.938  0.00  0.00    +0.000 N 
ATOM      9  C   UNL     1       0.151  12.526  21.125  0.00  0.00    +0.000 C 
ATOM     10  C   UNL     1      -0.001  10.640  19.558  0.00  0.00    +0.000 C 
ATOM     11  N   UNL     1       0.936  10.028  20.234  0.00  0.00    +0.000 NA
BRANCH  10  12
ATOM     12  S   UNL     1      -0.795   9.930  18.142  0.00  0.00    +0.000 S 
ATOM     13  H   UNL     1      -1.248  11.090  17.649  0.00  0.00    +0.000 HD
ENDBRANCH  10  12
ENDBRANCH   1  11
BRANCH   4  14
ATOM     14  S   UNL     1       3.077   4.660  18.589  0.00  0.00    +0.000 S 
ATOM     15  O   UNL     1       3.135   3.852  19.791  0.00  0.00    +0.000 OA
ATOM     16  O   UNL     1       2.308   4.234  17.441  0.00  0.00    +0.000 OA
BRANCH  14  17
ATOM     17  N   UNL     1       4.688   4.957  18.069  0.00  0.00    +0.000 NA
ATOM     18  C   UNL     1       5.667   5.203  19.160  0.00  0.00    +0.000 C 
ATOM     19  C   UNL     1       7.021   5.638  18.611  0.00  0.00    +0.000 C 
ATOM     20  C   UNL     1       7.541   4.634  17.593  0.00  0.00    +0.000 C 
ATOM     21  C   UNL     1       6.534   4.503  16.460  0.00  0.00    +0.000 C 
ATOM     22  C   UNL     1       5.166   4.071  16.978  0.00  0.00    +0.000 C 
ENDBRANCH  14  17
ENDBRANCH   4  14
TORSDOF 4
ENDMDL
MODEL 6
REMARK VINA RESULT:      -6.3      0.570      1.227
REMARK  Name = 
REMARK  6 active torsions:
REMARK  status: ('A' for Active; 'I' for Inactive)
REMARK    1  A    between atoms: C_1  and  N_2
REMARK    2  A    between atoms: N_2  and  C_3
REMARK    3  A    between atoms: C_4  and  S_5
REMARK    4  A    between atoms: N_6  and  C_7
REMARK    5  A    between atoms: C_10  and  S_11
REMARK    6  A    between atoms: S_11  and  N_14
REMARK                            x       y       z     vdW  Elec       q    Type
REMARK                         _______ _______ _______ _____ _____    ______ ____
ROOT
ATOM      1  C   UNL     1       1.736   8.836  19.150  0.00  0.00    +0.000 A 
ATOM      2  C   UNL     1       2.265   8.354  17.950  0.00  0.00    +0.000 A 
ATOM      3  C   UNL     1       2.620   7.013  17.791  0.00  0.00    +0.000 A 
ATOM      4  C   UNL     1       2.555   6.147  18.882  0.00  0.00    +0.000 A 
ATOM      5  C   UNL     1       2.059   6.604  20.106  0.00  0.00    +0.000 A 
ATOM      6  C   UNL     1       1.651   7.946  20.230  0.00  0.00    +0.000 A 
ENDROOT
BRANCH   1  11
ATOM      7  C   UNL     1      -0.779  13.021  18.461  0.00  0.00    +0.000 C 
ATOM      8  N   UNL     1       0.252  12.198  19.077  0.00  0.00    +0.000 N 
ATOM      9  C   UNL     1       1.280  12.914  19.826  0.00  0.00    +0.000 C 
ATOM     10  C   UNL     1       0.391  10.823  18.892  0.00  0.00    +0.000 C 
ATOM     11  N   UNL     1       1.441  10.195  19.352  0.00  0.00    +0.000 NA
BRANCH  10  12
ATOM     12  S   UNL     1      -0.923  10.010  18.025  0.00  0.00    +0.000 S 
ATOM     13  H   UNL     1      -1.888  10.363  18.883  0.00  0.00    +0.000 HD
ENDBRANCH  10  12
ENDBRANCH   1  11
BRANCH   4  14
ATOM     14  S   UNL     1       3.069   4.452  18.659  0.00  0.00    +0.000 S 
ATOM     15  O   UNL     1       2.887   3.778  19.929  0.00  0.00    +0.000 OA
ATOM     16  O   UNL     1       2.427   3.964  17.459  0.00  0.00    +0.000 OA
BRANCH  14  17
ATOM     17  N   UNL     1       4.756   4.564  18.353  0.00  0.00    +0.000 NA
ATOM     18  C   UNL     1       5.135   4.611  16.917  0.00  0.00    +0.000 C 
ATOM     19  C   UNL     1       6.646   4.522  16.732  0.00  0.00    +0.000 C 
ATOM     20  C   UNL     1       7.355   5.595  17.545  0.00  0.00    +0.000 C 
ATOM     21  C   UNL     1       6.997   5.428  19.014  0.00  0.00    +0.000 C 
ATOM     22  C   UNL     1       5.489   5.508  19.233  0.00  0.00    +0.000 C 
ENDBRANCH  14  17
ENDBRANCH   4  14
TORSDOF 4
ENDMDL
MODEL 7
REMARK VINA RESULT:      -6.3      2.649      3.435
REMARK  Name = 
REMARK  6 active torsions:
REMARK  status: ('A' for Active; 'I' for Inactive)
REMARK    1  A    between atoms: C_1  and  N_2
REMARK    2  A    between atoms: N_2  and  C_3
REMARK    3  A    between atoms: C_4  and  S_5
REMARK    4  A    between atoms: N_6  and  C_7
REMARK    5  A    between atoms: C_10  and  S_11
REMARK    6  A    between atoms: S_11  and  N_14
REMARK                            x       y       z     vdW  Elec       q    Type
REMARK                         _______ _______ _______ _____ _____    ______ ____
ROOT
ATOM      1  C   UNL     1       1.110   9.314  19.039  0.00  0.00    +0.000 A 
ATOM      2  C   UNL     1       1.367   8.460  20.116  0.00  0.00    +0.000 A 
ATOM      3  C   UNL     1       2.245   7.380  20.001  0.00  0.00    +0.000 A 
ATOM      4  C   UNL     1       2.798   7.068  18.760  0.00  0.00    +0.000 A 
ATOM      5  C   UNL     1       2.539   7.885  17.656  0.00  0.00    +0.000 A 
ATOM      6  C   UNL     1       1.697   9.004  17.805  0.00  0.00    +0.000 A 
ENDROOT
BRANCH   1  11
ATOM      7  C   UNL     1      -0.323  14.027  19.272  0.00  0.00    +0.000 C 
ATOM      8  N   UNL     1      -0.549  12.590  19.195  0.00  0.00    +0.000 N 
ATOM      9  C   UNL     1      -1.910  12.141  19.473  0.00  0.00    +0.000 C 
ATOM     10  C   UNL     1       0.449  11.635  19.007  0.00  0.00    +0.000 C 
ATOM     11  N   UNL     1       0.176  10.361  19.115  0.00  0.00    +0.000 NA
BRANCH  10  12
ATOM     12  S   UNL     1       2.063  12.251  18.615  0.00  0.00    +0.000 S 
ATOM     13  H   UNL     1       1.849  12.357  17.298  0.00  0.00    +0.000 HD
ENDBRANCH  10  12
ENDBRANCH   1  11
BRANCH   4  14
ATOM     14  S   UNL     1       3.873   5.648  18.637  0.00  0.00    +0.000 S 
ATOM     15  O   UNL     1       4.209   5.484  17.236  0.00  0.00    +0.000 OA
ATOM     16  O   UNL     1       4.906   5.803  19.637  0.00  0.00    +0.000 OA
BRANCH  14  17
ATOM     17  N   UNL     1       2.876   4.328  19.102  0.00  0.00    +0.000 NA
ATOM     18  C   UNL     1       2.658   4.187  20.565  0.00  0.00    +0.000 C 
ATOM     19  C   UNL     1       1.923   2.894  20.900  0.00  0.00    +0.000 C 
ATOM     20  C   UNL     1       0.622   2.792  20.118  0.00  0.00    +0.000 C 
ATOM     21  C   UNL     1       0.929   2.847  18.628  0.00  0.00    +0.000 C 
ATOM     22  C   UNL     1       1.669   4.130  18.260  0.00  0.00    +0.000 C 
ENDBRANCH  14  17
ENDBRANCH   4  14
TORSDOF 4
ENDMDL
MODEL 8
REMARK VINA RESULT:      -6.3      1.665      2.196
REMARK  Name = 
REMARK  6 active torsions:
REMARK  status: ('A' for Active; 'I' for Inactive)
REMARK    1  A    between atoms: C_1  and  N_2
REMARK    2  A    between atoms: N_2  and  C_3
REMARK    3  A    between atoms: C_4  and  S_5
REMARK    4  A    between atoms: N_6  and  C_7
REMARK    5  A    between atoms: C_10  and  S_11
REMARK    6  A    between atoms: S_11  and  N_14
REMARK                            x       y       z     vdW  Elec       q    Type
REMARK                         _______ _______ _______ _____ _____    ______ ____
ROOT
ATOM      1  C   UNL     1       1.586   7.184  20.450  0.00  0.00    +0.000 A 
ATOM      2  C   UNL     1       2.302   7.542  19.304  0.00  0.00    +0.000 A 
ATOM      3  C   UNL     1       3.042   6.607  18.579  0.00  0.00    +0.000 A 
ATOM      4  C   UNL     1       3.168   5.304  19.058  0.00  0.00    +0.000 A 
ATOM      5  C   UNL     1       2.488   4.918  20.217  0.00  0.00    +0.000 A 
ATOM      6  C   UNL     1       1.699   5.862  20.903  0.00  0.00    +0.000 A 
ENDROOT
BRANCH   1  11
ATOM      7  C   UNL     1      -0.417  11.581  21.436  0.00  0.00    +0.000 C 
ATOM      8  N   UNL     1      -0.097  10.190  21.729  0.00  0.00    +0.000 N 
ATOM      9  C   UNL     1      -0.300   9.765  23.110  0.00  0.00    +0.000 C 
ATOM     10  C   UNL     1       0.496   9.303  20.832  0.00  0.00    +0.000 C 
ATOM     11  N   UNL     1       0.896   8.124  21.232  0.00  0.00    +0.000 NA
BRANCH  10  12
ATOM     12  S   UNL     1       0.657   9.865  19.160  0.00  0.00    +0.000 S 
ATOM     13  H   UNL     1      -0.567   9.486  18.773  0.00  0.00    +0.000 HD
ENDBRANCH  10  12
ENDBRANCH   1  11
BRANCH   4  14
ATOM     14  S   UNL     1       4.166   4.146  18.135  0.00  0.00    +0.000 S 
ATOM     15  O   UNL     1       4.302   2.953  18.947  0.00  0.00    +0.000 OA
ATOM     16  O   UNL     1       3.618   4.079  16.799  0.00  0.00    +0.000 OA
BRANCH  14  17
ATOM     17  N   UNL     1       5.705   4.904  18.042  0.00  0.00    +0.000 NA
ATOM     18  C   UNL     1       5.848   5.911  16.957  0.00  0.00    +0.000 C 
ATOM     19  C   UNL     1       7.288   6.395  16.828  0.00  0.00    +0.000 C 
ATOM     20  C   UNL     1       7.807   6.914  18.160  0.00  0.00    +0.000 C 
ATOM     21  C   UNL     1       7.720   5.805  19.198  0.00  0.00    +0.000 C 
ATOM     22  C   UNL     1       6.289   5.295  19.349  0.00  0.00    +0.000 C 
ENDBRANCH  14  17
ENDBRANCH   4  14
TORSDOF 4
ENDMDL
MODEL 9
REMARK VINA RESULT:      -6.3      1.447      1.876
REMARK  Name = 
REMARK  6 active torsions:
REMARK  status: ('A' for Active; 'I' for Inactive)
REMARK    1  A    between atoms: C_1  and  N_2
REMARK    2  A    between atoms: N_2  and  C_3
REMARK    3  A    between atoms: C_4  and  S_5
REMARK    4  A    between atoms: N_6  and  C_7
REMARK    5  A    between atoms: C_10  and  S_11
REMARK    6  A    between atoms: S_11  and  N_14
REMARK                            x       y       z     vdW  Elec       q    Type
REMARK                         _______ _______ _______ _____ _____    ______ ____
ROOT
ATOM      1  C   UNL     1       1.029   9.743  19.181  0.00  0.00    +0.000 A 
ATOM      2  C   UNL     1       1.196   8.931  20.306  0.00  0.00    +0.000 A 
ATOM      3  C   UNL     1       1.846   7.698  20.231  0.00  0.00    +0.000 A 
ATOM      4  C   UNL     1       2.247   7.202  18.991  0.00  0.00    +0.000 A 
ATOM      5  C   UNL     1       2.070   7.977  17.840  0.00  0.00    +0.000 A 
ATOM      6  C   UNL     1       1.464   9.244  17.945  0.00  0.00    +0.000 A 
ENDROOT
BRANCH   1  11
ATOM      7  C   UNL     1       0.502  14.642  18.973  0.00  0.00    +0.000 C 
ATOM      8  N   UNL     1       0.015  13.275  19.100  0.00  0.00    +0.000 N 
ATOM      9  C   UNL     1      -1.357  13.126  19.574  0.00  0.00    +0.000 C 
ATOM     10  C   UNL     1       0.795  12.132  18.929  0.00  0.00    +0.000 C 
ATOM     11  N   UNL     1       0.315  10.952  19.223  0.00  0.00    +0.000 NA
BRANCH  10  12
ATOM     12  S   UNL     1       2.430  12.383  18.296  0.00  0.00    +0.000 S 
ATOM     13  H   UNL     1       2.156  11.973  17.051  0.00  0.00    +0.000 HD
ENDBRANCH  10  12
ENDBRANCH   1  11
BRANCH   4  14
ATOM     14  S   UNL     1       3.027   5.598  18.923  0.00  0.00    +0.000 S 
ATOM     15  O   UNL     1       3.033   5.067  20.272  0.00  0.00    +0.000 OA
ATOM     16  O   UNL     1       2.411   4.867  17.838  0.00  0.00    +0.000 OA
BRANCH  14  17
ATOM     17  N   UNL     1       4.651   5.942  18.479  0.00  0.00    +0.000 NA
ATOM     18  C   UNL     1       5.686   5.251  19.292  0.00  0.00    +0.000 C 
ATOM     19  C   UNL     1       7.087   5.751  18.957  0.00  0.00    +0.000 C 
ATOM     20  C   UNL     1       7.361   5.635  17.465  0.00  0.00    +0.000 C 
ATOM     21  C   UNL     1       6.322   6.441  16.701  0.00  0.00    +0.000 C 
ATOM     22  C   UNL     1       4.907   5.967  17.017  0.00  0.00    +0.000 C 
ENDBRANCH  14  17
ENDBRANCH   4  14
TORSDOF 4
ENDMDL
