MODEL 1
REMARK VINA RESULT:      -7.0      0.000      0.000
REMARK  Name = 
REMARK  11 active torsions:
REMARK  status: ('A' for Active; 'I' for Inactive)
REMARK    1  A    between atoms: C_1  and  O_2
REMARK    2  A    between atoms: O_2  and  C_3
REMARK    3  A    between atoms: C_5  and  O_6
REMARK    4  A    between atoms: O_6  and  C_7
REMARK    5  A    between atoms: C_8  and  O_9
REMARK    6  A    between atoms: O_9  and  C_10
REMARK    7  A    between atoms: C_12  and  C_13
REMARK    8  A    between atoms: C_13  and  N_14
REMARK    9  A    between atoms: N_17  and  C_18
REMARK   10  A    between atoms: C_18  and  C_19
REMARK   11  A    between atoms: N_23  and  C_24
REMARK                            x       y       z     vdW  Elec       q    Type
REMARK                         _______ _______ _______ _____ _____    ______ ____
ROOT
ATOM      1  C   UNL     1       3.951   5.369  19.505  0.00  0.00    +0.000 C 
ENDROOT
BRANCH   1   7
ATOM      2  C   UNL     1       4.568   4.049  17.420  0.00  0.00    +0.000 A 
ATOM      3  C   UNL     1       5.396   3.855  16.308  0.00  0.00    +0.000 A 
ATOM      4  C   UNL     1       6.422   4.802  15.992  0.00  0.00    +0.000 A 
ATOM      5  C   UNL     1       6.602   5.930  16.818  0.00  0.00    +0.000 A 
ATOM      6  C   UNL     1       5.827   6.046  17.958  0.00  0.00    +0.000 A 
ATOM      7  C   UNL     1       4.831   5.133  18.275  0.00  0.00    +0.000 A 
BRANCH   2   9
ATOM      8  C   UNL     1       3.270   1.992  18.047  0.00  0.00    +0.000 C 
ATOM      9  O   UNL     1       3.473   3.362  17.830  0.00  0.00    +0.000 OA
ENDBRANCH   2   9
BRANCH   4  10
ATOM     10  O   UNL     1       7.165   4.494  14.868  0.00  0.00    +0.000 OA
ATOM     11  C   UNL     1       6.487   4.028  13.694  0.00  0.00    +0.000 C 
ENDBRANCH   4  10
BRANCH   5  12
ATOM     12  O   UNL     1       7.551   6.883  16.536  0.00  0.00    +0.000 OA
ATOM     13  C   UNL     1       7.673   7.943  17.497  0.00  0.00    +0.000 C 
ENDBRANCH   5  12
ENDBRANCH   1   7
BRANCH   1  14
ATOM     14  N   UNL     1       2.556   5.694  19.208  0.00  0.00    +0.000 NA
ATOM     15  C   UNL     1       1.759   6.218  20.319  0.00  0.00    +0.000 C 
ATOM     16  C   UNL     1       1.720   7.753  20.532  0.00  0.00    +0.000 C 
ATOM     17  N   UNL     1       1.850   8.613  19.366  0.00  0.00    +0.000 NA
ATOM     18  C   UNL     1       2.594   8.052  18.248  0.00  0.00    +0.000 C 
ATOM     19  C   UNL     1       2.418   6.536  18.013  0.00  0.00    +0.000 C 
BRANCH  17  20
ATOM     20  C   UNL     1       0.759   9.530  19.066  0.00  0.00    +0.000 C 
BRANCH  20  21
ATOM     21  C   UNL     1       1.011  10.958  19.437  0.00  0.00    +0.000 A 
ATOM     22  C   UNL     1       1.720  11.912  18.721  0.00  0.00    +0.000 A 
ATOM     23  C   UNL     1       1.646  13.137  19.418  0.00  0.00    +0.000 A 
ATOM     24  C   UNL     1       0.948  12.896  20.577  0.00  0.00    +0.000 A 
ATOM     25  N   UNL     1       0.636  11.558  20.623  0.00  0.00    +0.000 N 
ATOM     26  C   UNL     1       0.043  10.940  21.790  0.00  0.00    +0.000 C 
ENDBRANCH  20  21
ENDBRANCH  17  20
ENDBRANCH   1  14
TORSDOF 7
ENDMDL
MODEL 2
REMARK VINA RESULT:      -6.8      0.502      1.205
REMARK  Name = 
REMARK  11 active torsions:
REMARK  status: ('A' for Active; 'I' for Inactive)
REMARK    1  A    between atoms: C_1  and  O_2
REMARK    2  A    between atoms: O_2  and  C_3
REMARK    3  A    between atoms: C_5  and  O_6
REMARK    4  A    between atoms: O_6  and  C_7
REMARK    5  A    between atoms: C_8  and  O_9
REMARK    6  A    between atoms: O_9  and  C_10
REMARK    7  A    between atoms: C_12  and  C_13
REMARK    8  A    between atoms: C_13  and  N_14
REMARK    9  A    between atoms: N_17  and  C_18
REMARK   10  A    between atoms: C_18  and  C_19
REMARK   11  A    between atoms: N_23  and  C_24
REMARK                            x       y       z     vdW  Elec       q    Type
REMARK                         _______ _______ _______ _____ _____    ______ ____
ROOT
ATOM      1  C   UNL     1       3.977   5.496  19.573  0.00  0.00    +0.000 C 
ENDROOT
BRANCH   1   7
ATOM      2  C   UNL     1       4.761   4.104  17.593  0.00  0.00    +0.000 A 
ATOM      3  C   UNL     1       5.633   3.910  16.516  0.00  0.00    +0.000 A 
ATOM      4  C   UNL     1       6.585   4.920  16.163  0.00  0.00    +0.000 A 
ATOM      5  C   UNL     1       6.647   6.109  16.917  0.00  0.00    +0.000 A 
ATOM      6  C   UNL     1       5.833   6.230  18.029  0.00  0.00    +0.000 A 
ATOM      7  C   UNL     1       4.908   5.258  18.382  0.00  0.00    +0.000 A 
BRANCH   2   9
ATOM      8  C   UNL     1       3.664   2.056  18.548  0.00  0.00    +0.000 C 
ATOM      9  O   UNL     1       3.715   3.354  18.022  0.00  0.00    +0.000 OA
ENDBRANCH   2   9
BRANCH   4  10
ATOM     10  O   UNL     1       7.383   4.605  15.078  0.00  0.00    +0.000 OA
ATOM     11  C   UNL     1       6.786   4.525  13.778  0.00  0.00    +0.000 C 
ENDBRANCH   4  10
BRANCH   5  12
ATOM     12  O   UNL     1       7.522   7.119  16.595  0.00  0.00    +0.000 OA
ATOM     13  C   UNL     1       7.837   8.030  17.659  0.00  0.00    +0.000 C 
ENDBRANCH   5  12
ENDBRANCH   1   7
BRANCH   1  14
ATOM     14  N   UNL     1       2.584   5.766  19.218  0.00  0.00    +0.000 NA
ATOM     15  C   UNL     1       1.724   6.266  20.293  0.00  0.00    +0.000 C 
ATOM     16  C   UNL     1       1.618   7.800  20.492  0.00  0.00    +0.000 C 
ATOM     17  N   UNL     1       1.762   8.657  19.325  0.00  0.00    +0.000 NA
ATOM     18  C   UNL     1       2.571   8.117  18.243  0.00  0.00    +0.000 C 
ATOM     19  C   UNL     1       2.461   6.595  18.013  0.00  0.00    +0.000 C 
BRANCH  17  20
ATOM     20  C   UNL     1       0.649   9.530  18.975  0.00  0.00    +0.000 C 
BRANCH  20  21
ATOM     21  C   UNL     1       0.522  10.762  19.815  0.00  0.00    +0.000 A 
ATOM     22  C   UNL     1      -0.313  10.968  20.904  0.00  0.00    +0.000 A 
ATOM     23  C   UNL     1      -0.051  12.251  21.428  0.00  0.00    +0.000 A 
ATOM     24  C   UNL     1       0.893  12.831  20.616  0.00  0.00    +0.000 A 
ATOM     25  N   UNL     1       1.178  11.957  19.594  0.00  0.00    +0.000 N 
ATOM     26  C   UNL     1       2.014  12.324  18.470  0.00  0.00    +0.000 C 
ENDBRANCH  20  21
ENDBRANCH  17  20
ENDBRANCH   1  14
TORSDOF 7
ENDMDL
MODEL 3
REMARK VINA RESULT:      -6.8      0.985      1.717
REMARK  Name = 
REMARK  11 active torsions:
REMARK  status: ('A' for Active; 'I' for Inactive)
REMARK    1  A    between atoms: C_1  and  O_2
REMARK    2  A    between atoms: O_2  and  C_3
REMARK    3  A    between atoms: C_5  and  O_6
REMARK    4  A    between atoms: O_6  and  C_7
REMARK    5  A    between atoms: C_8  and  O_9
REMARK    6  A    between atoms: O_9  and  C_10
REMARK    7  A    between atoms: C_12  and  C_13
REMARK    8  A    between atoms: C_13  and  N_14
REMARK    9  A    between atoms: N_17  and  C_18
REMARK   10  A    between atoms: C_18  and  C_19
REMARK   11  A    between atoms: N_23  and  C_24
REMARK                            x       y       z     vdW  Elec       q    Type
REMARK                         _______ _______ _______ _____ _____    ______ ____
ROOT
ATOM      1  C   UNL     1       3.955   5.316  19.621  0.00  0.00    +0.000 C 
ENDROOT
BRANCH   1   7
ATOM      2  C   UNL     1       4.598   3.940  17.580  0.00  0.00    +0.000 A 
ATOM      3  C   UNL     1       5.416   3.737  16.463  0.00  0.00    +0.000 A 
ATOM      4  C   UNL     1       6.394   4.715  16.091  0.00  0.00    +0.000 A 
ATOM      5  C   UNL     1       6.535   5.883  16.867  0.00  0.00    +0.000 A 
ATOM      6  C   UNL     1       5.774   6.011  18.015  0.00  0.00    +0.000 A 
ATOM      7  C   UNL     1       4.825   5.069  18.386  0.00  0.00    +0.000 A 
BRANCH   2   9
ATOM      8  C   UNL     1       2.483   2.603  17.357  0.00  0.00    +0.000 C 
ATOM      9  O   UNL     1       3.541   3.223  18.037  0.00  0.00    +0.000 OA
ENDBRANCH   2   9
BRANCH   4  10
ATOM     10  O   UNL     1       7.131   4.394  14.967  0.00  0.00    +0.000 OA
ATOM     11  C   UNL     1       6.442   4.031  13.764  0.00  0.00    +0.000 C 
ENDBRANCH   4  10
BRANCH   5  12
ATOM     12  O   UNL     1       7.437   6.864  16.530  0.00  0.00    +0.000 OA
ATOM     13  C   UNL     1       7.718   7.829  17.556  0.00  0.00    +0.000 C 
ENDBRANCH   5  12
ENDBRANCH   1   7
BRANCH   1  14
ATOM     14  N   UNL     1       2.549   5.600  19.334  0.00  0.00    +0.000 NA
ATOM     15  C   UNL     1       1.690   5.865  20.489  0.00  0.00    +0.000 C 
ATOM     16  C   UNL     1       1.539   7.332  20.968  0.00  0.00    +0.000 C 
ATOM     17  N   UNL     1       1.639   8.393  19.978  0.00  0.00    +0.000 NA
ATOM     18  C   UNL     1       2.449   8.089  18.808  0.00  0.00    +0.000 C 
ATOM     19  C   UNL     1       2.384   6.632  18.302  0.00  0.00    +0.000 C 
BRANCH  17  20
ATOM     20  C   UNL     1       0.495   9.278  19.804  0.00  0.00    +0.000 C 
BRANCH  20  21
ATOM     21  C   UNL     1      -0.044   9.873  21.067  0.00  0.00    +0.000 A 
ATOM     22  C   UNL     1      -0.376   9.216  22.244  0.00  0.00    +0.000 A 
ATOM     23  C   UNL     1      -0.781  10.180  23.191  0.00  0.00    +0.000 A 
ATOM     24  C   UNL     1      -0.751  11.400  22.559  0.00  0.00    +0.000 A 
ATOM     25  N   UNL     1      -0.382  11.199  21.250  0.00  0.00    +0.000 N 
ATOM     26  C   UNL     1      -0.411  12.260  20.266  0.00  0.00    +0.000 C 
ENDBRANCH  20  21
ENDBRANCH  17  20
ENDBRANCH   1  14
TORSDOF 7
ENDMDL
MODEL 4
REMARK VINA RESULT:      -6.6      2.319      4.531
REMARK  Name = 
REMARK  11 active torsions:
REMARK  status: ('A' for Active; 'I' for Inactive)
REMARK    1  A    between atoms: C_1  and  O_2
REMARK    2  A    between atoms: O_2  and  C_3
REMARK    3  A    between atoms: C_5  and  O_6
REMARK    4  A    between atoms: O_6  and  C_7
REMARK    5  A    between atoms: C_8  and  O_9
REMARK    6  A    between atoms: O_9  and  C_10
REMARK    7  A    between atoms: C_12  and  C_13
REMARK    8  A    between atoms: C_13  and  N_14
REMARK    9  A    between atoms: N_17  and  C_18
REMARK   10  A    between atoms: C_18  and  C_19
REMARK   11  A    between atoms: N_23  and  C_24
REMARK                            x       y       z     vdW  Elec       q    Type
REMARK                         _______ _______ _______ _____ _____    ______ ____
ROOT
ATOM      1  C   UNL     1       2.336   7.767  19.615  0.00  0.00    +0.000 C 
ENDROOT
BRANCH   1   7
ATOM      2  C   UNL     1       3.084   5.835  18.137  0.00  0.00    +0.000 A 
ATOM      3  C   UNL     1       3.047   4.476  17.806  0.00  0.00    +0.000 A 
ATOM      4  C   UNL     1       2.334   3.547  18.631  0.00  0.00    +0.000 A 
ATOM      5  C   UNL     1       1.658   4.014  19.776  0.00  0.00    +0.000 A 
ATOM      6  C   UNL     1       1.640   5.375  20.025  0.00  0.00    +0.000 A 
ATOM      7  C   UNL     1       2.325   6.285  19.231  0.00  0.00    +0.000 A 
BRANCH   2   9
ATOM      8  C   UNL     1       4.940   6.856  16.788  0.00  0.00    +0.000 C 
ATOM      9  O   UNL     1       3.786   6.855  17.583  0.00  0.00    +0.000 OA
ENDBRANCH   2   9
BRANCH   4  10
ATOM     10  O   UNL     1       2.381   2.236  18.195  0.00  0.00    +0.000 OA
ATOM     11  C   UNL     1       3.539   1.447  18.491  0.00  0.00    +0.000 C 
ENDBRANCH   4  10
BRANCH   5  12
ATOM     12  O   UNL     1       0.989   3.156  20.615  0.00  0.00    +0.000 OA
ATOM     13  C   UNL     1       1.760   2.620  21.701  0.00  0.00    +0.000 C 
ENDBRANCH   5  12
ENDBRANCH   1   7
BRANCH   1  14
ATOM     14  N   UNL     1       1.089   8.480  19.339  0.00  0.00    +0.000 NA
ATOM     15  C   UNL     1       0.520   9.248  20.448  0.00  0.00    +0.000 C 
ATOM     16  C   UNL     1       0.941  10.732  20.603  0.00  0.00    +0.000 C 
ATOM     17  N   UNL     1       1.279  11.481  19.402  0.00  0.00    +0.000 NA
ATOM     18  C   UNL     1       1.787  10.692  18.290  0.00  0.00    +0.000 C 
ATOM     19  C   UNL     1       1.165   9.291  18.117  0.00  0.00    +0.000 C 
BRANCH  17  20
ATOM     20  C   UNL     1       0.497  12.670  19.094  0.00  0.00    +0.000 C 
BRANCH  20  21
ATOM     21  C   UNL     1      -0.987  12.485  19.152  0.00  0.00    +0.000 A 
ATOM     22  C   UNL     1      -1.804  11.849  18.227  0.00  0.00    +0.000 A 
ATOM     23  C   UNL     1      -3.124  11.854  18.723  0.00  0.00    +0.000 A 
ATOM     24  C   UNL     1      -3.104  12.547  19.910  0.00  0.00    +0.000 A 
ATOM     25  N   UNL     1      -1.823  12.997  20.125  0.00  0.00    +0.000 N 
ATOM     26  C   UNL     1      -1.491  13.901  21.206  0.00  0.00    +0.000 C 
ENDBRANCH  20  21
ENDBRANCH  17  20
ENDBRANCH   1  14
TORSDOF 7
ENDMDL
MODEL 5
REMARK VINA RESULT:      -6.5      1.477      2.316
REMARK  Name = 
REMARK  11 active torsions:
REMARK  status: ('A' for Active; 'I' for Inactive)
REMARK    1  A    between atoms: C_1  and  O_2
REMARK    2  A    between atoms: O_2  and  C_3
REMARK    3  A    between atoms: C_5  and  O_6
REMARK    4  A    between atoms: O_6  and  C_7
REMARK    5  A    between atoms: C_8  and  O_9
REMARK    6  A    between atoms: O_9  and  C_10
REMARK    7  A    between atoms: C_12  and  C_13
REMARK    8  A    between atoms: C_13  and  N_14
REMARK    9  A    between atoms: N_17  and  C_18
REMARK   10  A    between atoms: C_18  and  C_19
REMARK   11  A    between atoms: N_23  and  C_24
REMARK                            x       y       z     vdW  Elec       q    Type
REMARK                         _______ _______ _______ _____ _____    ______ ____
ROOT
ATOM      1  C   UNL     1       1.900   6.788  18.582  0.00  0.00    +0.000 C 
ENDROOT
BRANCH   1   7
ATOM      2  C   UNL     1       2.927   4.665  17.627  0.00  0.00    +0.000 A 
ATOM      3  C   UNL     1       4.004   4.002  17.028  0.00  0.00    +0.000 A 
ATOM      4  C   UNL     1       5.172   4.729  16.627  0.00  0.00    +0.000 A 
ATOM      5  C   UNL     1       5.233   6.119  16.849  0.00  0.00    +0.000 A 
ATOM      6  C   UNL     1       4.190   6.728  17.523  0.00  0.00    +0.000 A 
ATOM      7  C   UNL     1       3.055   6.034  17.919  0.00  0.00    +0.000 A 
BRANCH   2   9
ATOM      8  C   UNL     1       1.280   2.985  18.505  0.00  0.00    +0.000 C 
ATOM      9  O   UNL     1       1.696   4.211  17.967  0.00  0.00    +0.000 OA
ENDBRANCH   2   9
BRANCH   4  10
ATOM     10  O   UNL     1       6.159   3.956  16.045  0.00  0.00    +0.000 OA
ATOM     11  C   UNL     1       6.253   3.910  14.616  0.00  0.00    +0.000 C 
ENDBRANCH   4  10
BRANCH   5  12
ATOM     12  O   UNL     1       6.318   6.863  16.451  0.00  0.00    +0.000 OA
ATOM     13  C   UNL     1       7.342   7.047  17.441  0.00  0.00    +0.000 C 
ENDBRANCH   5  12
ENDBRANCH   1   7
BRANCH   1  14
ATOM     14  N   UNL     1       2.213   8.158  18.986  0.00  0.00    +0.000 NA
ATOM     15  C   UNL     1       1.746   9.222  18.095  0.00  0.00    +0.000 C 
ATOM     16  C   UNL     1       0.341   9.826  18.349  0.00  0.00    +0.000 C 
ATOM     17  N   UNL     1      -0.155   9.862  19.716  0.00  0.00    +0.000 NA
ATOM     18  C   UNL     1       0.366   8.832  20.603  0.00  0.00    +0.000 C 
ATOM     19  C   UNL     1       1.840   8.432  20.379  0.00  0.00    +0.000 C 
BRANCH  17  20
ATOM     20  C   UNL     1      -0.480  11.159  20.294  0.00  0.00    +0.000 C 
BRANCH  20  21
ATOM     21  C   UNL     1       0.551  12.223  20.081  0.00  0.00    +0.000 A 
ATOM     22  C   UNL     1       1.669  12.494  20.857  0.00  0.00    +0.000 A 
ATOM     23  C   UNL     1       2.391  13.540  20.245  0.00  0.00    +0.000 A 
ATOM     24  C   UNL     1       1.671  13.933  19.143  0.00  0.00    +0.000 A 
ATOM     25  N   UNL     1       0.517  13.187  19.093  0.00  0.00    +0.000 N 
ATOM     26  C   UNL     1      -0.543  13.462  18.146  0.00  0.00    +0.000 C 
ENDBRANCH  20  21
ENDBRANCH  17  20
ENDBRANCH   1  14
TORSDOF 7
ENDMDL
MODEL 6
REMARK VINA RESULT:      -6.5      2.234      2.846
REMARK  Name = 
REMARK  11 active torsions:
REMARK  status: ('A' for Active; 'I' for Inactive)
REMARK    1  A    between atoms: C_1  and  O_2
REMARK    2  A    between atoms: O_2  and  C_3
REMARK    3  A    between atoms: C_5  and  O_6
REMARK    4  A    between atoms: O_6  and  C_7
REMARK    5  A    between atoms: C_8  and  O_9
REMARK    6  A    between atoms: O_9  and  C_10
REMARK    7  A    between atoms: C_12  and  C_13
REMARK    8  A    between atoms: C_13  and  N_14
REMARK    9  A    between atoms: N_17  and  C_18
REMARK   10  A    between atoms: C_18  and  C_19
REMARK   11  A    between atoms: N_23  and  C_24
REMARK                            x       y       z     vdW  Elec       q    Type
REMARK                         _______ _______ _______ _____ _____    ______ ____
ROOT
ATOM      1  C   UNL     1       1.838   6.780  18.571  0.00  0.00    +0.000 C 
ENDROOT
BRANCH   1   7
ATOM      2  C   UNL     1       2.835   4.635  17.635  0.00  0.00    +0.000 A 
ATOM      3  C   UNL     1       3.899   3.953  17.033  0.00  0.00    +0.000 A 
ATOM      4  C   UNL     1       5.068   4.663  16.607  0.00  0.00    +0.000 A 
ATOM      5  C   UNL     1       5.145   6.056  16.808  0.00  0.00    +0.000 A 
ATOM      6  C   UNL     1       4.116   6.684  17.486  0.00  0.00    +0.000 A 
ATOM      7  C   UNL     1       2.979   6.006  17.905  0.00  0.00    +0.000 A 
BRANCH   2   9
ATOM      8  C   UNL     1       1.171   2.953  18.478  0.00  0.00    +0.000 C 
ATOM      9  O   UNL     1       1.604   4.197  17.996  0.00  0.00    +0.000 OA
ENDBRANCH   2   9
BRANCH   4  10
ATOM     10  O   UNL     1       6.041   3.873  16.025  0.00  0.00    +0.000 OA
ATOM     11  C   UNL     1       6.196   3.898  14.600  0.00  0.00    +0.000 C 
ENDBRANCH   4  10
BRANCH   5  12
ATOM     12  O   UNL     1       6.232   6.784  16.387  0.00  0.00    +0.000 OA
ATOM     13  C   UNL     1       7.238   7.031  17.381  0.00  0.00    +0.000 C 
ENDBRANCH   5  12
ENDBRANCH   1   7
BRANCH   1  14
ATOM     14  N   UNL     1       2.198   8.117  19.044  0.00  0.00    +0.000 NA
ATOM     15  C   UNL     1       1.965   9.221  18.111  0.00  0.00    +0.000 C 
ATOM     16  C   UNL     1       0.593   9.941  18.157  0.00  0.00    +0.000 C 
ATOM     17  N   UNL     1      -0.105  10.012  19.432  0.00  0.00    +0.000 NA
ATOM     18  C   UNL     1       0.186   8.937  20.370  0.00  0.00    +0.000 C 
ATOM     19  C   UNL     1       1.638   8.414  20.368  0.00  0.00    +0.000 C 
BRANCH  17  20
ATOM     20  C   UNL     1      -0.406  11.328  19.977  0.00  0.00    +0.000 C 
BRANCH  20  21
ATOM     21  C   UNL     1      -1.820  11.782  19.791  0.00  0.00    +0.000 A 
ATOM     22  C   UNL     1      -2.681  11.482  18.744  0.00  0.00    +0.000 A 
ATOM     23  C   UNL     1      -3.933  12.071  19.016  0.00  0.00    +0.000 A 
ATOM     24  C   UNL     1      -3.799  12.772  20.191  0.00  0.00    +0.000 A 
ATOM     25  N   UNL     1      -2.496  12.661  20.613  0.00  0.00    +0.000 N 
ATOM     26  C   UNL     1      -1.979  13.417  21.734  0.00  0.00    +0.000 C 
ENDBRANCH  20  21
ENDBRANCH  17  20
ENDBRANCH   1  14
TORSDOF 7
ENDMDL
MODEL 7
REMARK VINA RESULT:      -6.5      0.924      1.134
REMARK  Name = 
REMARK  11 active torsions:
REMARK  status: ('A' for Active; 'I' for Inactive)
REMARK    1  A    between atoms: C_1  and  O_2
REMARK    2  A    between atoms: O_2  and  C_3
REMARK    3  A    between atoms: C_5  and  O_6
REMARK    4  A    between atoms: O_6  and  C_7
REMARK    5  A    between atoms: C_8  and  O_9
REMARK    6  A    between atoms: O_9  and  C_10
REMARK    7  A    between atoms: C_12  and  C_13
REMARK    8  A    between atoms: C_13  and  N_14
REMARK    9  A    between atoms: N_17  and  C_18
REMARK   10  A    between atoms: C_18  and  C_19
REMARK   11  A    between atoms: N_23  and  C_24
REMARK                            x       y       z     vdW  Elec       q    Type
REMARK                         _______ _______ _______ _____ _____    ______ ____
ROOT
ATOM      1  C   UNL     1       4.041   5.720  19.617  0.00  0.00    +0.000 C 
ENDROOT
BRANCH   1   7
ATOM      2  C   UNL     1       4.686   4.297  17.609  0.00  0.00    +0.000 A 
ATOM      3  C   UNL     1       5.521   4.054  16.513  0.00  0.00    +0.000 A 
ATOM      4  C   UNL     1       6.535   4.997  16.149  0.00  0.00    +0.000 A 
ATOM      5  C   UNL     1       6.696   6.171  16.912  0.00  0.00    +0.000 A 
ATOM      6  C   UNL     1       5.914   6.338  18.042  0.00  0.00    +0.000 A 
ATOM      7  C   UNL     1       4.930   5.429  18.405  0.00  0.00    +0.000 A 
BRANCH   2   9
ATOM      8  C   UNL     1       2.569   2.968  17.357  0.00  0.00    +0.000 C 
ATOM      9  O   UNL     1       3.599   3.618  18.053  0.00  0.00    +0.000 OA
ENDBRANCH   2   9
BRANCH   4  10
ATOM     10  O   UNL     1       7.287   4.639  15.046  0.00  0.00    +0.000 OA
ATOM     11  C   UNL     1       6.620   4.109  13.894  0.00  0.00    +0.000 C 
ENDBRANCH   4  10
BRANCH   5  12
ATOM     12  O   UNL     1       7.633   7.120  16.582  0.00  0.00    +0.000 OA
ATOM     13  C   UNL     1       7.829   8.163  17.550  0.00  0.00    +0.000 C 
ENDBRANCH   5  12
ENDBRANCH   1   7
BRANCH   1  14
ATOM     14  N   UNL     1       2.621   5.884  19.311  0.00  0.00    +0.000 NA
ATOM     15  C   UNL     1       1.723   6.049  20.456  0.00  0.00    +0.000 C 
ATOM     16  C   UNL     1       1.435   7.486  20.960  0.00  0.00    +0.000 C 
ATOM     17  N   UNL     1       1.457   8.573  19.993  0.00  0.00    +0.000 NA
ATOM     18  C   UNL     1       2.309   8.365  18.831  0.00  0.00    +0.000 C 
ATOM     19  C   UNL     1       2.381   6.919  18.297  0.00  0.00    +0.000 C 
BRANCH  17  20
ATOM     20  C   UNL     1       0.242   9.357  19.816  0.00  0.00    +0.000 C 
BRANCH  20  21
ATOM     21  C   UNL     1       0.456  10.829  19.655  0.00  0.00    +0.000 A 
ATOM     22  C   UNL     1       1.330  11.645  20.360  0.00  0.00    +0.000 A 
ATOM     23  C   UNL     1       1.245  12.949  19.830  0.00  0.00    +0.000 A 
ATOM     24  C   UNL     1       0.278  12.923  18.854  0.00  0.00    +0.000 A 
ATOM     25  N   UNL     1      -0.254  11.656  18.808  0.00  0.00    +0.000 N 
ATOM     26  C   UNL     1      -1.409  11.330  17.999  0.00  0.00    +0.000 C 
ENDBRANCH  20  21
ENDBRANCH  17  20
ENDBRANCH   1  14
TORSDOF 7
ENDMDL
MODEL 8
REMARK VINA RESULT:      -6.4      3.038      5.479
REMARK  Name = 
REMARK  11 active torsions:
REMARK  status: ('A' for Active; 'I' for Inactive)
REMARK    1  A    between atoms: C_1  and  O_2
REMARK    2  A    between atoms: O_2  and  C_3
REMARK    3  A    between atoms: C_5  and  O_6
REMARK    4  A    between atoms: O_6  and  C_7
REMARK    5  A    between atoms: C_8  and  O_9
REMARK    6  A    between atoms: O_9  and  C_10
REMARK    7  A    between atoms: C_12  and  C_13
REMARK    8  A    between atoms: C_13  and  N_14
REMARK    9  A    between atoms: N_17  and  C_18
REMARK   10  A    between atoms: C_18  and  C_19
REMARK   11  A    between atoms: N_23  and  C_24
REMARK                            x       y       z     vdW  Elec       q    Type
REMARK                         _______ _______ _______ _____ _____    ______ ____
ROOT
ATOM      1  C   UNL     1       1.418   8.631  20.991  0.00  0.00    +0.000 C 
ENDROOT
BRANCH   1   7
ATOM      2  C   UNL     1       2.421   7.452  18.971  0.00  0.00    +0.000 A 
ATOM      3  C   UNL     1       2.821   6.275  18.329  0.00  0.00    +0.000 A 
ATOM      4  C   UNL     1       2.774   5.020  19.018  0.00  0.00    +0.000 A 
ATOM      5  C   UNL     1       2.309   4.976  20.347  0.00  0.00    +0.000 A 
ATOM      6  C   UNL     1       1.837   6.143  20.922  0.00  0.00    +0.000 A 
ATOM      7  C   UNL     1       1.876   7.364  20.264  0.00  0.00    +0.000 A 
BRANCH   2   9
ATOM      8  C   UNL     1       1.764   9.454  17.604  0.00  0.00    +0.000 C 
ATOM      9  O   UNL     1       2.497   8.744  18.565  0.00  0.00    +0.000 OA
ENDBRANCH   2   9
BRANCH   4  10
ATOM     10  O   UNL     1       3.201   3.938  18.272  0.00  0.00    +0.000 OA
ATOM     11  C   UNL     1       4.062   4.164  17.148  0.00  0.00    +0.000 C 
ENDBRANCH   4  10
BRANCH   5  12
ATOM     12  O   UNL     1       2.277   3.801  21.059  0.00  0.00    +0.000 OA
ATOM     13  C   UNL     1       1.127   2.971  20.835  0.00  0.00    +0.000 C 
ENDBRANCH   5  12
ENDBRANCH   1   7
BRANCH   1  14
ATOM     14  N   UNL     1      -0.032   8.789  21.095  0.00  0.00    +0.000 NA
ATOM     15  C   UNL     1      -0.573   8.959  22.445  0.00  0.00    +0.000 C 
ATOM     16  C   UNL     1      -0.715  10.400  23.000  0.00  0.00    +0.000 C 
ATOM     17  N   UNL     1      -0.972  11.478  22.058  0.00  0.00    +0.000 NA
ATOM     18  C   UNL     1      -0.479  11.264  20.705  0.00  0.00    +0.000 C 
ATOM     19  C   UNL     1      -0.553   9.814  20.182  0.00  0.00    +0.000 C 
BRANCH  17  20
ATOM     20  C   UNL     1      -2.192  12.257  22.224  0.00  0.00    +0.000 C 
BRANCH  20  21
ATOM     21  C   UNL     1      -2.125  13.323  23.272  0.00  0.00    +0.000 A 
ATOM     22  C   UNL     1      -1.080  14.199  23.531  0.00  0.00    +0.000 A 
ATOM     23  C   UNL     1      -1.479  15.073  24.564  0.00  0.00    +0.000 A 
ATOM     24  C   UNL     1      -2.734  14.678  24.961  0.00  0.00    +0.000 A 
ATOM     25  N   UNL     1      -3.087  13.568  24.232  0.00  0.00    +0.000 N 
ATOM     26  C   UNL     1      -4.282  12.802  24.516  0.00  0.00    +0.000 C 
ENDBRANCH  20  21
ENDBRANCH  17  20
ENDBRANCH   1  14
TORSDOF 7
ENDMDL
MODEL 9
REMARK VINA RESULT:      -6.4      1.473      2.163
REMARK  Name = 
REMARK  11 active torsions:
REMARK  status: ('A' for Active; 'I' for Inactive)
REMARK    1  A    between atoms: C_1  and  O_2
REMARK    2  A    between atoms: O_2  and  C_3
REMARK    3  A    between atoms: C_5  and  O_6
REMARK    4  A    between atoms: O_6  and  C_7
REMARK    5  A    between atoms: C_8  and  O_9
REMARK    6  A    between atoms: O_9  and  C_10
REMARK    7  A    between atoms: C_12  and  C_13
REMARK    8  A    between atoms: C_13  and  N_14
REMARK    9  A    between atoms: N_17  and  C_18
REMARK   10  A    between atoms: C_18  and  C_19
REMARK   11  A    between atoms: N_23  and  C_24
REMARK                            x       y       z     vdW  Elec       q    Type
REMARK                         _______ _______ _______ _____ _____    ______ ____
ROOT
ATOM      1  C   UNL     1       2.002   6.891  18.925  0.00  0.00    +0.000 C 
ENDROOT
BRANCH   1   7
ATOM      2  C   UNL     1       2.890   4.785  17.807  0.00  0.00    +0.000 A 
ATOM      3  C   UNL     1       3.899   4.119  17.104  0.00  0.00    +0.000 A 
ATOM      4  C   UNL     1       5.058   4.828  16.649  0.00  0.00    +0.000 A 
ATOM      5  C   UNL     1       5.180   6.205  16.926  0.00  0.00    +0.000 A 
ATOM      6  C   UNL     1       4.208   6.813  17.700  0.00  0.00    +0.000 A 
ATOM      7  C   UNL     1       3.083   6.135  18.148  0.00  0.00    +0.000 A 
BRANCH   2   9
ATOM      8  C   UNL     1       1.207   3.067  18.533  0.00  0.00    +0.000 C 
ATOM      9  O   UNL     1       1.672   4.351  18.217  0.00  0.00    +0.000 OA
ENDBRANCH   2   9
BRANCH   4  10
ATOM     10  O   UNL     1       5.976   4.054  15.964  0.00  0.00    +0.000 OA
ATOM     11  C   UNL     1       5.981   4.089  14.532  0.00  0.00    +0.000 C 
ENDBRANCH   4  10
BRANCH   5  12
ATOM     12  O   UNL     1       6.257   6.934  16.482  0.00  0.00    +0.000 OA
ATOM     13  C   UNL     1       7.332   7.089  17.422  0.00  0.00    +0.000 C 
ENDBRANCH   5  12
ENDBRANCH   1   7
BRANCH   1  14
ATOM     14  N   UNL     1       2.194   8.340  18.989  0.00  0.00    +0.000 NA
ATOM     15  C   UNL     1       1.699   9.112  17.848  0.00  0.00    +0.000 C 
ATOM     16  C   UNL     1       0.243   9.641  17.899  0.00  0.00    +0.000 C 
ATOM     17  N   UNL     1      -0.327   9.967  19.197  0.00  0.00    +0.000 NA
ATOM     18  C   UNL     1       0.220   9.231  20.328  0.00  0.00    +0.000 C 
ATOM     19  C   UNL     1       1.729   8.912  20.259  0.00  0.00    +0.000 C 
BRANCH  17  20
ATOM     20  C   UNL     1      -0.775  11.334  19.426  0.00  0.00    +0.000 C 
BRANCH  20  21
ATOM     21  C   UNL     1       0.277  12.267  19.939  0.00  0.00    +0.000 A 
ATOM     22  C   UNL     1       1.457  12.646  19.315  0.00  0.00    +0.000 A 
ATOM     23  C   UNL     1       2.109  13.591  20.135  0.00  0.00    +0.000 A 
ATOM     24  C   UNL     1       1.350  13.726  21.272  0.00  0.00    +0.000 A 
ATOM     25  N   UNL     1       0.284  12.862  21.185  0.00  0.00    +0.000 N 
ATOM     26  C   UNL     1      -0.622  12.636  22.290  0.00  0.00    +0.000 C 
ENDBRANCH  20  21
ENDBRANCH  17  20
ENDBRANCH   1  14
TORSDOF 7
ENDMDL
