MODEL 1
REMARK VINA RESULT:      -7.7      0.000      0.000
REMARK  Name = 
REMARK  9 active torsions:
REMARK  status: ('A' for Active; 'I' for Inactive)
REMARK    1  A    between atoms: C_1  and  O_2
REMARK    2  A    between atoms: O_2  and  C_3
REMARK    3  A    between atoms: C_6  and  C_7
REMARK    4  A    between atoms: C_9  and  C_10
REMARK    5  A    between atoms: N_12  and  C_13
REMARK    6  A    between atoms: C_13  and  C_14
REMARK    7  A    between atoms: C_14  and  C_15
REMARK    8  A    between atoms: C_15  and  N_16
REMARK    9  A    between atoms: N_19  and  C_20
REMARK                            x       y       z     vdW  Elec       q    Type
REMARK                         _______ _______ _______ _____ _____    ______ ____
ROOT
ATOM      1  C   UNL     1       7.809   8.472  17.743  0.00  0.00    +0.000 C 
ENDROOT
BRANCH   1   4
ATOM      2  C   UNL     1       8.655  10.732  18.215  0.00  0.00    +0.000 C 
ATOM      3  O   UNL     1       8.015  11.213  17.282  0.00  0.00    +0.000 OA
ATOM      4  N   UNL     1       8.657   9.388  18.482  0.00  0.00    +0.000 N 
ATOM      5  H   UNL     1       9.152   9.061  19.300  0.00  0.00    +0.000 HD
BRANCH   2  12
ATOM      6  C   UNL     1      10.624  12.310  18.783  0.00  0.00    +0.000 A 
ATOM      7  C   UNL     1      11.247  13.115  19.752  0.00  0.00    +0.000 A 
ATOM      8  C   UNL     1      10.720  13.229  21.043  0.00  0.00    +0.000 A 
ATOM      9  C   UNL     1       9.558  12.546  21.393  0.00  0.00    +0.000 A 
ATOM     10  C   UNL     1       8.972  12.629  22.768  0.00  0.00    +0.000 C 
ATOM     11  C   UNL     1       8.925  11.757  20.425  0.00  0.00    +0.000 A 
ATOM     12  C   UNL     1       9.448  11.631  19.125  0.00  0.00    +0.000 A 
BRANCH   6  14
ATOM     13  C   UNL     1      11.303  13.393  16.773  0.00  0.00    +0.000 C 
ATOM     14  O   UNL     1      11.119  12.182  17.507  0.00  0.00    +0.000 OA
ENDBRANCH   6  14
ENDBRANCH   2  12
ENDBRANCH   1   4
BRANCH   1  15
ATOM     15  C   UNL     1       8.058   7.024  18.168  0.00  0.00    +0.000 C 
BRANCH  15  16
ATOM     16  C   UNL     1       7.189   6.024  17.393  0.00  0.00    +0.000 C 
BRANCH  16  17
ATOM     17  N   UNL     1       5.747   6.280  17.508  0.00  0.00    +0.000 NA
ATOM     18  C   UNL     1       4.918   5.557  16.521  0.00  0.00    +0.000 C 
ATOM     19  C   UNL     1       4.433   4.130  16.912  0.00  0.00    +0.000 C 
ATOM     20  N   UNL     1       3.878   3.981  18.292  0.00  0.00    +0.000 NA
ATOM     21  C   UNL     1       4.925   4.549  19.178  0.00  0.00    +0.000 C 
ATOM     22  C   UNL     1       5.255   6.031  18.878  0.00  0.00    +0.000 C 
BRANCH  20  23
ATOM     23  C   UNL     1       2.551   4.656  18.437  0.00  0.00    +0.000 C 
ATOM     24  C   UNL     1       1.381   3.817  17.876  0.00  0.00    +0.000 C 
ATOM     25  C   UNL     1       1.011   2.618  18.739  0.00  0.00    +0.000 C 
ATOM     26  C   UNL     1       0.652   3.012  20.165  0.00  0.00    +0.000 C 
ATOM     27  C   UNL     1       1.614   4.008  20.805  0.00  0.00    +0.000 C 
ATOM     28  C   UNL     1       2.143   5.095  19.868  0.00  0.00    +0.000 C 
ENDBRANCH  20  23
ENDBRANCH  16  17
ENDBRANCH  15  16
ENDBRANCH   1  15
TORSDOF 7
ENDMDL
MODEL 2
REMARK VINA RESULT:      -7.7      2.678     10.474
REMARK  Name = 
REMARK  9 active torsions:
REMARK  status: ('A' for Active; 'I' for Inactive)
REMARK    1  A    between atoms: C_1  and  O_2
REMARK    2  A    between atoms: O_2  and  C_3
REMARK    3  A    between atoms: C_6  and  C_7
REMARK    4  A    between atoms: C_9  and  C_10
REMARK    5  A    between atoms: N_12  and  C_13
REMARK    6  A    between atoms: C_13  and  C_14
REMARK    7  A    between atoms: C_14  and  C_15
REMARK    8  A    between atoms: C_15  and  N_16
REMARK    9  A    between atoms: N_19  and  C_20
REMARK                            x       y       z     vdW  Elec       q    Type
REMARK                         _______ _______ _______ _____ _____    ______ ____
ROOT
ATOM      1  C   UNL     1       8.163   7.409  18.190  0.00  0.00    +0.000 C 
ENDROOT
BRANCH   1   4
ATOM      2  C   UNL     1       6.452   5.756  18.810  0.00  0.00    +0.000 C 
ATOM      3  O   UNL     1       7.082   5.416  19.810  0.00  0.00    +0.000 OA
ATOM      4  N   UNL     1       6.932   6.687  17.928  0.00  0.00    +0.000 N 
ATOM      5  H   UNL     1       6.341   6.972  17.158  0.00  0.00    +0.000 HD
BRANCH   2  12
ATOM      6  C   UNL     1       4.741   4.410  17.413  0.00  0.00    +0.000 A 
ATOM      7  C   UNL     1       3.427   3.924  17.308  0.00  0.00    +0.000 A 
ATOM      8  C   UNL     1       2.476   4.200  18.297  0.00  0.00    +0.000 A 
ATOM      9  C   UNL     1       2.818   4.960  19.412  0.00  0.00    +0.000 A 
ATOM     10  C   UNL     1       1.825   5.290  20.484  0.00  0.00    +0.000 C 
ATOM     11  C   UNL     1       4.131   5.429  19.529  0.00  0.00    +0.000 A 
ATOM     12  C   UNL     1       5.096   5.163  18.538  0.00  0.00    +0.000 A 
BRANCH   6  14
ATOM     13  C   UNL     1       5.559   4.845  15.218  0.00  0.00    +0.000 C 
ATOM     14  O   UNL     1       5.697   4.152  16.458  0.00  0.00    +0.000 OA
ENDBRANCH   6  14
ENDBRANCH   2  12
ENDBRANCH   1   4
BRANCH   1  15
ATOM     15  C   UNL     1       8.018   8.892  17.845  0.00  0.00    +0.000 C 
BRANCH  15  16
ATOM     16  C   UNL     1       8.775   9.802  18.822  0.00  0.00    +0.000 C 
BRANCH  16  17
ATOM     17  N   UNL     1       9.579  10.840  18.163  0.00  0.00    +0.000 NA
ATOM     18  C   UNL     1       8.820  12.050  17.783  0.00  0.00    +0.000 C 
ATOM     19  C   UNL     1       8.709  13.180  18.849  0.00  0.00    +0.000 C 
ATOM     20  N   UNL     1       9.973  13.539  19.559  0.00  0.00    +0.000 NA
ATOM     21  C   UNL     1      10.493  12.246  20.072  0.00  0.00    +0.000 C 
ATOM     22  C   UNL     1      10.766  11.203  18.962  0.00  0.00    +0.000 C 
BRANCH  20  23
ATOM     23  C   UNL     1      10.937  14.249  18.662  0.00  0.00    +0.000 C 
ATOM     24  C   UNL     1      10.327  15.497  17.986  0.00  0.00    +0.000 C 
ATOM     25  C   UNL     1      10.134  16.678  18.929  0.00  0.00    +0.000 C 
ATOM     26  C   UNL     1      11.431  17.107  19.602  0.00  0.00    +0.000 C 
ATOM     27  C   UNL     1      12.264  15.955  20.156  0.00  0.00    +0.000 C 
ATOM     28  C   UNL     1      12.283  14.693  19.293  0.00  0.00    +0.000 C 
ENDBRANCH  20  23
ENDBRANCH  16  17
ENDBRANCH  15  16
ENDBRANCH   1  15
TORSDOF 7
ENDMDL
MODEL 3
REMARK VINA RESULT:      -7.3      6.016      9.236
REMARK  Name = 
REMARK  9 active torsions:
REMARK  status: ('A' for Active; 'I' for Inactive)
REMARK    1  A    between atoms: C_1  and  O_2
REMARK    2  A    between atoms: O_2  and  C_3
REMARK    3  A    between atoms: C_6  and  C_7
REMARK    4  A    between atoms: C_9  and  C_10
REMARK    5  A    between atoms: N_12  and  C_13
REMARK    6  A    between atoms: C_13  and  C_14
REMARK    7  A    between atoms: C_14  and  C_15
REMARK    8  A    between atoms: C_15  and  N_16
REMARK    9  A    between atoms: N_19  and  C_20
REMARK                            x       y       z     vdW  Elec       q    Type
REMARK                         _______ _______ _______ _____ _____    ______ ____
ROOT
ATOM      1  C   UNL     1       2.531   5.817  20.142  0.00  0.00    +0.000 C 
ENDROOT
BRANCH   1   4
ATOM      2  C   UNL     1       3.731   4.687  18.318  0.00  0.00    +0.000 C 
ATOM      3  O   UNL     1       2.740   4.023  18.020  0.00  0.00    +0.000 OA
ATOM      4  N   UNL     1       3.736   5.552  19.381  0.00  0.00    +0.000 N 
ATOM      5  H   UNL     1       4.560   6.116  19.539  0.00  0.00    +0.000 HD
BRANCH   2  12
ATOM      6  C   UNL     1       6.293   4.719  17.964  0.00  0.00    +0.000 A 
ATOM      7  C   UNL     1       7.360   4.592  17.058  0.00  0.00    +0.000 A 
ATOM      8  C   UNL     1       7.126   4.354  15.699  0.00  0.00    +0.000 A 
ATOM      9  C   UNL     1       5.825   4.231  15.218  0.00  0.00    +0.000 A 
ATOM     10  C   UNL     1       5.532   3.992  13.769  0.00  0.00    +0.000 C 
ATOM     11  C   UNL     1       4.761   4.338  16.122  0.00  0.00    +0.000 A 
ATOM     12  C   UNL     1       4.983   4.583  17.490  0.00  0.00    +0.000 A 
BRANCH   6  14
ATOM     13  C   UNL     1       7.665   5.688  19.654  0.00  0.00    +0.000 C 
ATOM     14  O   UNL     1       6.494   4.950  19.305  0.00  0.00    +0.000 OA
ENDBRANCH   6  14
ENDBRANCH   2  12
ENDBRANCH   1   4
BRANCH   1  15
ATOM     15  C   UNL     1       2.002   7.226  19.867  0.00  0.00    +0.000 C 
BRANCH  15  16
ATOM     16  C   UNL     1       1.473   7.915  21.133  0.00  0.00    +0.000 C 
BRANCH  16  17
ATOM     17  N   UNL     1       0.216   8.646  20.928  0.00  0.00    +0.000 NA
ATOM     18  C   UNL     1      -0.571   8.865  22.159  0.00  0.00    +0.000 C 
ATOM     19  C   UNL     1      -0.259  10.151  22.980  0.00  0.00    +0.000 C 
ATOM     20  N   UNL     1      -0.128  11.416  22.194  0.00  0.00    +0.000 NA
ATOM     21  C   UNL     1       0.863  11.095  21.136  0.00  0.00    +0.000 C 
ATOM     22  C   UNL     1       0.435   9.923  20.220  0.00  0.00    +0.000 C 
BRANCH  20  23
ATOM     23  C   UNL     1      -1.444  11.876  21.653  0.00  0.00    +0.000 C 
ATOM     24  C   UNL     1      -2.468  12.214  22.758  0.00  0.00    +0.000 C 
ATOM     25  C   UNL     1      -2.172  13.512  23.499  0.00  0.00    +0.000 C 
ATOM     26  C   UNL     1      -2.089  14.712  22.567  0.00  0.00    +0.000 C 
ATOM     27  C   UNL     1      -1.264  14.475  21.306  0.00  0.00    +0.000 C 
ATOM     28  C   UNL     1      -1.414  13.086  20.682  0.00  0.00    +0.000 C 
ENDBRANCH  20  23
ENDBRANCH  16  17
ENDBRANCH  15  16
ENDBRANCH   1  15
TORSDOF 7
ENDMDL
MODEL 4
REMARK VINA RESULT:      -7.3      4.725      7.768
REMARK  Name = 
REMARK  9 active torsions:
REMARK  status: ('A' for Active; 'I' for Inactive)
REMARK    1  A    between atoms: C_1  and  O_2
REMARK    2  A    between atoms: O_2  and  C_3
REMARK    3  A    between atoms: C_6  and  C_7
REMARK    4  A    between atoms: C_9  and  C_10
REMARK    5  A    between atoms: N_12  and  C_13
REMARK    6  A    between atoms: C_13  and  C_14
REMARK    7  A    between atoms: C_14  and  C_15
REMARK    8  A    between atoms: C_15  and  N_16
REMARK    9  A    between atoms: N_19  and  C_20
REMARK                            x       y       z     vdW  Elec       q    Type
REMARK                         _______ _______ _______ _____ _____    ______ ____
ROOT
ATOM      1  C   UNL     1       0.914   3.490  20.378  0.00  0.00    +0.000 C 
ENDROOT
BRANCH   1   4
ATOM      2  C   UNL     1       1.584   5.808  20.852  0.00  0.00    +0.000 C 
ATOM      3  O   UNL     1       2.669   5.447  21.304  0.00  0.00    +0.000 OA
ATOM      4  N   UNL     1       0.638   4.913  20.426  0.00  0.00    +0.000 N 
ATOM      5  H   UNL     1      -0.209   5.272  20.006  0.00  0.00    +0.000 HD
BRANCH   2  12
ATOM      6  C   UNL     1       1.676   8.113  19.683  0.00  0.00    +0.000 A 
ATOM      7  C   UNL     1       1.299   9.467  19.715  0.00  0.00    +0.000 A 
ATOM      8  C   UNL     1       0.550   9.982  20.779  0.00  0.00    +0.000 A 
ATOM      9  C   UNL     1       0.157   9.156  21.829  0.00  0.00    +0.000 A 
ATOM     10  C   UNL     1      -0.631   9.672  22.994  0.00  0.00    +0.000 C 
ATOM     11  C   UNL     1       0.514   7.803  21.791  0.00  0.00    +0.000 A 
ATOM     12  C   UNL     1       1.272   7.275  20.729  0.00  0.00    +0.000 A 
BRANCH   6  14
ATOM     13  C   UNL     1       2.610   8.421  17.513  0.00  0.00    +0.000 C 
ATOM     14  O   UNL     1       2.409   7.580  18.649  0.00  0.00    +0.000 OA
ENDBRANCH   6  14
ENDBRANCH   2  12
ENDBRANCH   1   4
BRANCH   1  15
ATOM     15  C   UNL     1       0.857   2.964  18.943  0.00  0.00    +0.000 C 
BRANCH  15  16
ATOM     16  C   UNL     1       1.819   1.792  18.706  0.00  0.00    +0.000 C 
BRANCH  16  17
ATOM     17  N   UNL     1       2.964   2.130  17.850  0.00  0.00    +0.000 NA
ATOM     18  C   UNL     1       2.804   3.382  17.082  0.00  0.00    +0.000 C 
ATOM     19  C   UNL     1       3.262   4.701  17.773  0.00  0.00    +0.000 C 
ATOM     20  N   UNL     1       4.591   4.656  18.456  0.00  0.00    +0.000 NA
ATOM     21  C   UNL     1       4.507   3.476  19.354  0.00  0.00    +0.000 C 
ATOM     22  C   UNL     1       4.230   2.148  18.611  0.00  0.00    +0.000 C 
BRANCH  20  23
ATOM     23  C   UNL     1       5.720   4.576  17.478  0.00  0.00    +0.000 C 
ATOM     24  C   UNL     1       5.661   5.676  16.395  0.00  0.00    +0.000 C 
ATOM     25  C   UNL     1       6.029   7.064  16.904  0.00  0.00    +0.000 C 
ATOM     26  C   UNL     1       7.415   7.109  17.530  0.00  0.00    +0.000 C 
ATOM     27  C   UNL     1       7.711   5.961  18.490  0.00  0.00    +0.000 C 
ATOM     28  C   UNL     1       7.155   4.600  18.066  0.00  0.00    +0.000 C 
ENDBRANCH  20  23
ENDBRANCH  16  17
ENDBRANCH  15  16
ENDBRANCH   1  15
TORSDOF 7
ENDMDL
MODEL 5
REMARK VINA RESULT:      -7.3      2.951     10.745
REMARK  Name = 
REMARK  9 active torsions:
REMARK  status: ('A' for Active; 'I' for Inactive)
REMARK    1  A    between atoms: C_1  and  O_2
REMARK    2  A    between atoms: O_2  and  C_3
REMARK    3  A    between atoms: C_6  and  C_7
REMARK    4  A    between atoms: C_9  and  C_10
REMARK    5  A    between atoms: N_12  and  C_13
REMARK    6  A    between atoms: C_13  and  C_14
REMARK    7  A    between atoms: C_14  and  C_15
REMARK    8  A    between atoms: C_15  and  N_16
REMARK    9  A    between atoms: N_19  and  C_20
REMARK                            x       y       z     vdW  Elec       q    Type
REMARK                         _______ _______ _______ _____ _____    ______ ____
ROOT
ATOM      1  C   UNL     1       8.471   8.040  18.664  0.00  0.00    +0.000 C 
ENDROOT
BRANCH   1   4
ATOM      2  C   UNL     1       7.325   5.865  18.591  0.00  0.00    +0.000 C 
ATOM      3  O   UNL     1       7.976   5.442  19.545  0.00  0.00    +0.000 OA
ATOM      4  N   UNL     1       7.539   7.109  18.057  0.00  0.00    +0.000 N 
ATOM      5  H   UNL     1       6.931   7.425  17.314  0.00  0.00    +0.000 HD
BRANCH   2  12
ATOM      6  C   UNL     1       5.999   4.837  16.623  0.00  0.00    +0.000 A 
ATOM      7  C   UNL     1       4.935   4.011  16.223  0.00  0.00    +0.000 A 
ATOM      8  C   UNL     1       4.108   3.392  17.168  0.00  0.00    +0.000 A 
ATOM      9  C   UNL     1       4.330   3.580  18.530  0.00  0.00    +0.000 A 
ATOM     10  C   UNL     1       3.458   2.949  19.571  0.00  0.00    +0.000 C 
ATOM     11  C   UNL     1       5.400   4.388  18.932  0.00  0.00    +0.000 A 
ATOM     12  C   UNL     1       6.235   5.020  17.991  0.00  0.00    +0.000 A 
BRANCH   6  14
ATOM     13  C   UNL     1       6.893   4.873  14.415  0.00  0.00    +0.000 C 
ATOM     14  O   UNL     1       6.828   5.455  15.717  0.00  0.00    +0.000 OA
ENDBRANCH   6  14
ENDBRANCH   2  12
ENDBRANCH   1   4
BRANCH   1  15
ATOM     15  C   UNL     1       8.417   9.404  17.975  0.00  0.00    +0.000 C 
BRANCH  15  16
ATOM     16  C   UNL     1       9.187  10.485  18.746  0.00  0.00    +0.000 C 
BRANCH  16  17
ATOM     17  N   UNL     1       9.678  11.580  17.898  0.00  0.00    +0.000 NA
ATOM     18  C   UNL     1       8.741  12.715  17.764  0.00  0.00    +0.000 C 
ATOM     19  C   UNL     1       8.838  13.845  18.831  0.00  0.00    +0.000 C 
ATOM     20  N   UNL     1      10.216  14.322  19.158  0.00  0.00    +0.000 NA
ATOM     21  C   UNL     1      10.970  13.085  19.487  0.00  0.00    +0.000 C 
ATOM     22  C   UNL     1      11.007  12.055  18.333  0.00  0.00    +0.000 C 
BRANCH  20  23
ATOM     23  C   UNL     1      10.820  15.101  18.033  0.00  0.00    +0.000 C 
ATOM     24  C   UNL     1       9.928  16.269  17.558  0.00  0.00    +0.000 C 
ATOM     25  C   UNL     1       9.888  17.447  18.524  0.00  0.00    +0.000 C 
ATOM     26  C   UNL     1      11.271  18.013  18.814  0.00  0.00    +0.000 C 
ATOM     27  C   UNL     1      12.333  16.959  19.110  0.00  0.00    +0.000 C 
ATOM     28  C   UNL     1      12.238  15.685  18.270  0.00  0.00    +0.000 C 
ENDBRANCH  20  23
ENDBRANCH  16  17
ENDBRANCH  15  16
ENDBRANCH   1  15
TORSDOF 7
ENDMDL
MODEL 6
REMARK VINA RESULT:      -7.3      2.755     10.605
REMARK  Name = 
REMARK  9 active torsions:
REMARK  status: ('A' for Active; 'I' for Inactive)
REMARK    1  A    between atoms: C_1  and  O_2
REMARK    2  A    between atoms: O_2  and  C_3
REMARK    3  A    between atoms: C_6  and  C_7
REMARK    4  A    between atoms: C_9  and  C_10
REMARK    5  A    between atoms: N_12  and  C_13
REMARK    6  A    between atoms: C_13  and  C_14
REMARK    7  A    between atoms: C_14  and  C_15
REMARK    8  A    between atoms: C_15  and  N_16
REMARK    9  A    between atoms: N_19  and  C_20
REMARK                            x       y       z     vdW  Elec       q    Type
REMARK                         _______ _______ _______ _____ _____    ______ ____
ROOT
ATOM      1  C   UNL     1       8.329   7.562  18.539  0.00  0.00    +0.000 C 
ENDROOT
BRANCH   1   4
ATOM      2  C   UNL     1       6.703   5.739  18.818  0.00  0.00    +0.000 C 
ATOM      3  O   UNL     1       7.187   5.416  19.902  0.00  0.00    +0.000 OA
ATOM      4  N   UNL     1       7.234   6.745  18.054  0.00  0.00    +0.000 N 
ATOM      5  H   UNL     1       6.755   7.006  17.202  0.00  0.00    +0.000 HD
BRANCH   2  12
ATOM      6  C   UNL     1       5.390   4.287  17.129  0.00  0.00    +0.000 A 
ATOM      7  C   UNL     1       4.162   3.693  16.789  0.00  0.00    +0.000 A 
ATOM      8  C   UNL     1       3.031   3.863  17.596  0.00  0.00    +0.000 A 
ATOM      9  C   UNL     1       3.104   4.622  18.761  0.00  0.00    +0.000 A 
ATOM     10  C   UNL     1       1.914   4.840  19.642  0.00  0.00    +0.000 C 
ATOM     11  C   UNL     1       4.330   5.199  19.112  0.00  0.00    +0.000 A 
ATOM     12  C   UNL     1       5.473   5.040  18.305  0.00  0.00    +0.000 A 
BRANCH   6  14
ATOM     13  C   UNL     1       6.389   4.467  14.973  0.00  0.00    +0.000 C 
ATOM     14  O   UNL     1       6.517   4.134  16.355  0.00  0.00    +0.000 OA
ENDBRANCH   6  14
ENDBRANCH   2  12
ENDBRANCH   1   4
BRANCH   1  15
ATOM     15  C   UNL     1       8.207   9.003  18.041  0.00  0.00    +0.000 C 
BRANCH  15  16
ATOM     16  C   UNL     1       9.373   9.888  18.503  0.00  0.00    +0.000 C 
BRANCH  16  17
ATOM     17  N   UNL     1       8.952  11.184  19.051  0.00  0.00    +0.000 NA
ATOM     18  C   UNL     1       9.682  11.599  20.267  0.00  0.00    +0.000 C 
ATOM     19  C   UNL     1      10.997  12.407  20.063  0.00  0.00    +0.000 C 
ATOM     20  N   UNL     1      10.936  13.519  19.067  0.00  0.00    +0.000 NA
ATOM     21  C   UNL     1      10.393  12.888  17.837  0.00  0.00    +0.000 C 
ATOM     22  C   UNL     1       8.997  12.251  18.032  0.00  0.00    +0.000 C 
BRANCH  20  23
ATOM     23  C   UNL     1      10.110  14.665  19.558  0.00  0.00    +0.000 C 
ATOM     24  C   UNL     1      10.740  15.390  20.768  0.00  0.00    +0.000 C 
ATOM     25  C   UNL     1      11.949  16.246  20.413  0.00  0.00    +0.000 C 
ATOM     26  C   UNL     1      11.633  17.298  19.360  0.00  0.00    +0.000 C 
ATOM     27  C   UNL     1      10.827  16.779  18.173  0.00  0.00    +0.000 C 
ATOM     28  C   UNL     1       9.743  15.757  18.520  0.00  0.00    +0.000 C 
ENDBRANCH  20  23
ENDBRANCH  16  17
ENDBRANCH  15  16
ENDBRANCH   1  15
TORSDOF 7
ENDMDL
MODEL 7
REMARK VINA RESULT:      -7.2      1.958      2.494
REMARK  Name = 
REMARK  9 active torsions:
REMARK  status: ('A' for Active; 'I' for Inactive)
REMARK    1  A    between atoms: C_1  and  O_2
REMARK    2  A    between atoms: O_2  and  C_3
REMARK    3  A    between atoms: C_6  and  C_7
REMARK    4  A    between atoms: C_9  and  C_10
REMARK    5  A    between atoms: N_12  and  C_13
REMARK    6  A    between atoms: C_13  and  C_14
REMARK    7  A    between atoms: C_14  and  C_15
REMARK    8  A    between atoms: C_15  and  N_16
REMARK    9  A    between atoms: N_19  and  C_20
REMARK                            x       y       z     vdW  Elec       q    Type
REMARK                         _______ _______ _______ _____ _____    ______ ____
ROOT
ATOM      1  C   UNL     1       8.755   9.404  18.435  0.00  0.00    +0.000 C 
ENDROOT
BRANCH   1   4
ATOM      2  C   UNL     1       9.366  11.732  18.936  0.00  0.00    +0.000 C 
ATOM      3  O   UNL     1       9.986  11.398  19.944  0.00  0.00    +0.000 OA
ATOM      4  N   UNL     1       8.684  10.827  18.166  0.00  0.00    +0.000 N 
ATOM      5  H   UNL     1       8.245  11.153  17.315  0.00  0.00    +0.000 HD
BRANCH   2  12
ATOM      6  C   UNL     1      10.470  13.894  18.043  0.00  0.00    +0.000 A 
ATOM      7  C   UNL     1      10.298  15.238  17.671  0.00  0.00    +0.000 A 
ATOM      8  C   UNL     1       9.048  15.860  17.770  0.00  0.00    +0.000 A 
ATOM      9  C   UNL     1       7.944  15.151  18.237  0.00  0.00    +0.000 A 
ATOM     10  C   UNL     1       6.594  15.785  18.373  0.00  0.00    +0.000 C 
ATOM     11  C   UNL     1       8.107  13.807  18.591  0.00  0.00    +0.000 A 
ATOM     12  C   UNL     1       9.361  13.173  18.500  0.00  0.00    +0.000 A 
BRANCH   6  14
ATOM     13  C   UNL     1      12.299  13.238  16.664  0.00  0.00    +0.000 C 
ATOM     14  O   UNL     1      11.686  13.258  17.953  0.00  0.00    +0.000 OA
ENDBRANCH   6  14
ENDBRANCH   2  12
ENDBRANCH   1   4
BRANCH   1  15
ATOM     15  C   UNL     1       7.740   8.630  17.592  0.00  0.00    +0.000 C 
BRANCH  15  16
ATOM     16  C   UNL     1       7.602   7.166  18.031  0.00  0.00    +0.000 C 
BRANCH  16  17
ATOM     17  N   UNL     1       6.623   6.402  17.246  0.00  0.00    +0.000 NA
ATOM     18  C   UNL     1       6.754   4.936  17.367  0.00  0.00    +0.000 C 
ATOM     19  C   UNL     1       5.974   4.247  18.526  0.00  0.00    +0.000 C 
ATOM     20  N   UNL     1       4.554   4.676  18.706  0.00  0.00    +0.000 NA
ATOM     21  C   UNL     1       4.620   6.158  18.791  0.00  0.00    +0.000 C 
ATOM     22  C   UNL     1       5.238   6.824  17.539  0.00  0.00    +0.000 C 
BRANCH  20  23
ATOM     23  C   UNL     1       3.676   4.187  17.598  0.00  0.00    +0.000 C 
ATOM     24  C   UNL     1       3.738   2.655  17.410  0.00  0.00    +0.000 C 
ATOM     25  C   UNL     1       3.020   1.869  18.500  0.00  0.00    +0.000 C 
ATOM     26  C   UNL     1       1.554   2.258  18.632  0.00  0.00    +0.000 C 
ATOM     27  C   UNL     1       1.298   3.762  18.632  0.00  0.00    +0.000 C 
ATOM     28  C   UNL     1       2.175   4.571  17.674  0.00  0.00    +0.000 C 
ENDBRANCH  20  23
ENDBRANCH  16  17
ENDBRANCH  15  16
ENDBRANCH   1  15
TORSDOF 7
ENDMDL
MODEL 8
REMARK VINA RESULT:      -7.2      7.068     10.301
REMARK  Name = 
REMARK  9 active torsions:
REMARK  status: ('A' for Active; 'I' for Inactive)
REMARK    1  A    between atoms: C_1  and  O_2
REMARK    2  A    between atoms: O_2  and  C_3
REMARK    3  A    between atoms: C_6  and  C_7
REMARK    4  A    between atoms: C_9  and  C_10
REMARK    5  A    between atoms: N_12  and  C_13
REMARK    6  A    between atoms: C_13  and  C_14
REMARK    7  A    between atoms: C_14  and  C_15
REMARK    8  A    between atoms: C_15  and  N_16
REMARK    9  A    between atoms: N_19  and  C_20
REMARK                            x       y       z     vdW  Elec       q    Type
REMARK                         _______ _______ _______ _____ _____    ______ ____
ROOT
ATOM      1  C   UNL     1       2.215   9.433  17.979  0.00  0.00    +0.000 C 
ENDROOT
BRANCH   1   4
ATOM      2  C   UNL     1       2.581   7.085  18.612  0.00  0.00    +0.000 C 
ATOM      3  O   UNL     1       2.434   7.340  19.806  0.00  0.00    +0.000 OA
ATOM      4  N   UNL     1       2.545   8.059  17.649  0.00  0.00    +0.000 N 
ATOM      5  H   UNL     1       2.610   7.781  16.680  0.00  0.00    +0.000 HD
BRANCH   2  12
ATOM      6  C   UNL     1       3.823   5.199  17.352  0.00  0.00    +0.000 A 
ATOM      7  C   UNL     1       3.871   3.833  17.025  0.00  0.00    +0.000 A 
ATOM      8  C   UNL     1       2.891   2.946  17.485  0.00  0.00    +0.000 A 
ATOM      9  C   UNL     1       1.846   3.404  18.284  0.00  0.00    +0.000 A 
ATOM     10  C   UNL     1       0.769   2.491  18.783  0.00  0.00    +0.000 C 
ATOM     11  C   UNL     1       1.806   4.760  18.627  0.00  0.00    +0.000 A 
ATOM     12  C   UNL     1       2.783   5.662  18.166  0.00  0.00    +0.000 A 
BRANCH   6  14
ATOM     13  C   UNL     1       6.133   5.662  16.999  0.00  0.00    +0.000 C 
ATOM     14  O   UNL     1       4.774   6.091  16.916  0.00  0.00    +0.000 OA
ENDBRANCH   6  14
ENDBRANCH   2  12
ENDBRANCH   1   4
BRANCH   1  15
ATOM     15  C   UNL     1       0.703   9.618  18.123  0.00  0.00    +0.000 C 
BRANCH  15  16
ATOM     16  C   UNL     1       0.337  10.858  18.951  0.00  0.00    +0.000 C 
BRANCH  16  17
ATOM     17  N   UNL     1      -0.885  10.696  19.751  0.00  0.00    +0.000 NA
ATOM     18  C   UNL     1      -0.670  10.748  21.211  0.00  0.00    +0.000 C 
ATOM     19  C   UNL     1      -0.725  12.151  21.886  0.00  0.00    +0.000 C 
ATOM     20  N   UNL     1      -1.863  13.030  21.478  0.00  0.00    +0.000 NA
ATOM     21  C   UNL     1      -1.802  13.053  19.995  0.00  0.00    +0.000 C 
ATOM     22  C   UNL     1      -1.933  11.654  19.347  0.00  0.00    +0.000 C 
BRANCH  20  23
ATOM     23  C   UNL     1      -3.171  12.536  22.010  0.00  0.00    +0.000 C 
ATOM     24  C   UNL     1      -3.198  12.434  23.551  0.00  0.00    +0.000 C 
ATOM     25  C   UNL     1      -3.272  13.782  24.258  0.00  0.00    +0.000 C 
ATOM     26  C   UNL     1      -4.482  14.600  23.830  0.00  0.00    +0.000 C 
ATOM     27  C   UNL     1      -4.716  14.637  22.323  0.00  0.00    +0.000 C 
ATOM     28  C   UNL     1      -4.438  13.325  21.589  0.00  0.00    +0.000 C 
ENDBRANCH  20  23
ENDBRANCH  16  17
ENDBRANCH  15  16
ENDBRANCH   1  15
TORSDOF 7
ENDMDL
MODEL 9
REMARK VINA RESULT:      -7.2      1.502      1.778
REMARK  Name = 
REMARK  9 active torsions:
REMARK  status: ('A' for Active; 'I' for Inactive)
REMARK    1  A    between atoms: C_1  and  O_2
REMARK    2  A    between atoms: O_2  and  C_3
REMARK    3  A    between atoms: C_6  and  C_7
REMARK    4  A    between atoms: C_9  and  C_10
REMARK    5  A    between atoms: N_12  and  C_13
REMARK    6  A    between atoms: C_13  and  C_14
REMARK    7  A    between atoms: C_14  and  C_15
REMARK    8  A    between atoms: C_15  and  N_16
REMARK    9  A    between atoms: N_19  and  C_20
REMARK                            x       y       z     vdW  Elec       q    Type
REMARK                         _______ _______ _______ _____ _____    ______ ____
ROOT
ATOM      1  C   UNL     1       8.694   9.103  18.876  0.00  0.00    +0.000 C 
ENDROOT
BRANCH   1   4
ATOM      2  C   UNL     1       9.389  11.125  20.089  0.00  0.00    +0.000 C 
ATOM      3  O   UNL     1       9.252  10.571  21.179  0.00  0.00    +0.000 OA
ATOM      4  N   UNL     1       9.085  10.499  18.909  0.00  0.00    +0.000 N 
ATOM      5  H   UNL     1       9.276  10.985  18.043  0.00  0.00    +0.000 HD
BRANCH   2  12
ATOM      6  C   UNL     1      10.627  13.087  18.946  0.00  0.00    +0.000 A 
ATOM      7  C   UNL     1      11.066  14.419  19.040  0.00  0.00    +0.000 A 
ATOM      8  C   UNL     1      10.832  15.175  20.193  0.00  0.00    +0.000 A 
ATOM      9  C   UNL     1      10.150  14.621  21.274  0.00  0.00    +0.000 A 
ATOM     10  C   UNL     1       9.894  15.392  22.531  0.00  0.00    +0.000 C 
ATOM     11  C   UNL     1       9.695  13.301  21.176  0.00  0.00    +0.000 A 
ATOM     12  C   UNL     1       9.929  12.529  20.023  0.00  0.00    +0.000 A 
BRANCH   6  14
ATOM     13  C   UNL     1      11.341  13.005  16.674  0.00  0.00    +0.000 C 
ATOM     14  O   UNL     1      10.841  12.322  17.823  0.00  0.00    +0.000 OA
ENDBRANCH   6  14
ENDBRANCH   2  12
ENDBRANCH   1   4
BRANCH   1  15
ATOM     15  C   UNL     1       7.913   8.777  17.602  0.00  0.00    +0.000 C 
BRANCH  15  16
ATOM     16  C   UNL     1       7.661   7.273  17.432  0.00  0.00    +0.000 C 
BRANCH  16  17
ATOM     17  N   UNL     1       6.334   6.952  16.890  0.00  0.00    +0.000 NA
ATOM     18  C   UNL     1       6.265   5.666  16.166  0.00  0.00    +0.000 C 
ATOM     19  C   UNL     1       5.942   4.396  17.008  0.00  0.00    +0.000 C 
ATOM     20  N   UNL     1       4.818   4.524  17.984  0.00  0.00    +0.000 NA
ATOM     21  C   UNL     1       5.152   5.733  18.780  0.00  0.00    +0.000 C 
ATOM     22  C   UNL     1       5.288   7.018  17.929  0.00  0.00    +0.000 C 
BRANCH  20  23
ATOM     23  C   UNL     1       3.491   4.615  17.300  0.00  0.00    +0.000 C 
ATOM     24  C   UNL     1       2.994   3.256  16.760  0.00  0.00    +0.000 C 
ATOM     25  C   UNL     1       2.515   2.299  17.843  0.00  0.00    +0.000 C 
ATOM     26  C   UNL     1       1.401   2.890  18.696  0.00  0.00    +0.000 C 
ATOM     27  C   UNL     1       1.650   4.324  19.152  0.00  0.00    +0.000 C 
ATOM     28  C   UNL     1       2.324   5.228  18.118  0.00  0.00    +0.000 C 
ENDBRANCH  20  23
ENDBRANCH  16  17
ENDBRANCH  15  16
ENDBRANCH   1  15
TORSDOF 7
ENDMDL
