MODEL 1
REMARK VINA RESULT:      -7.6      0.000      0.000
REMARK  Name = 
REMARK  3 active torsions:
REMARK  status: ('A' for Active; 'I' for Inactive)
REMARK    1  A    between atoms: C_1  and  C_2
REMARK    2  A    between atoms: C_4  and  N_5
REMARK    3  A    between atoms: C_16  and  O_17
REMARK                            x       y       z     vdW  Elec       q    Type
REMARK                         _______ _______ _______ _____ _____    ______ ____
ROOT
ATOM      1  N   UNL     1       4.844   3.964  18.336  0.00  0.00    +0.000 N 
ATOM      2  C   UNL     1       5.129   4.906  19.292  0.00  0.00    +0.000 A 
ATOM      3  N   UNL     1       5.924   5.848  18.844  0.00  0.00    +0.000 NA
ATOM      4  C   UNL     1       6.236   5.471  17.557  0.00  0.00    +0.000 A 
ATOM      5  C   UNL     1       7.093   6.095  16.620  0.00  0.00    +0.000 A 
ATOM      6  N   UNL     1       7.794   7.261  16.910  0.00  0.00    +0.000 N 
ATOM      7  N   UNL     1       7.231   5.555  15.389  0.00  0.00    +0.000 NA
ATOM      8  C   UNL     1       6.581   4.405  15.095  0.00  0.00    +0.000 A 
ATOM      9  C   UNL     1       5.740   3.706  15.954  0.00  0.00    +0.000 A 
ATOM     10  C   UNL     1       5.574   4.290  17.210  0.00  0.00    +0.000 A 
ATOM     11  H   UNL     1       7.389   7.779  17.681  0.00  0.00    +0.000 HD
ATOM     12  H   UNL     1       8.043   7.765  16.072  0.00  0.00    +0.000 HD
ENDROOT
BRANCH   1  16
ATOM     13  C   UNL     1       1.082   3.196  20.656  0.00  0.00    +0.000 C 
ATOM     14  C   UNL     1       2.063   3.524  19.545  0.00  0.00    +0.000 C 
ATOM     15  O   UNL     1       3.321   2.874  19.797  0.00  0.00    +0.000 OA
ATOM     16  C   UNL     1       4.006   2.782  18.533  0.00  0.00    +0.000 C 
ATOM     17  C   UNL     1       2.906   2.581  17.492  0.00  0.00    +0.000 C 
ATOM     18  C   UNL     1       1.625   3.046  18.167  0.00  0.00    +0.000 C 
BRANCH  18  19
ATOM     19  O   UNL     1       0.963   4.067  17.433  0.00  0.00    +0.000 OA
ATOM     20  H   UNL     1       1.154   3.972  16.484  0.00  0.00    +0.000 HD
ENDBRANCH  18  19
ENDBRANCH   1  16
TORSDOF 2
ENDMDL
MODEL 2
REMARK VINA RESULT:      -7.5      2.745      5.629
REMARK  Name = 
REMARK  3 active torsions:
REMARK  status: ('A' for Active; 'I' for Inactive)
REMARK    1  A    between atoms: C_1  and  C_2
REMARK    2  A    between atoms: C_4  and  N_5
REMARK    3  A    between atoms: C_16  and  O_17
REMARK                            x       y       z     vdW  Elec       q    Type
REMARK                         _______ _______ _______ _____ _____    ______ ____
ROOT
ATOM      1  N   UNL     1       4.158   4.380  17.984  0.00  0.00    +0.000 N 
ATOM      2  C   UNL     1       4.448   3.104  18.400  0.00  0.00    +0.000 A 
ATOM      3  N   UNL     1       3.806   2.778  19.495  0.00  0.00    +0.000 NA
ATOM      4  C   UNL     1       3.118   3.914  19.859  0.00  0.00    +0.000 A 
ATOM      5  C   UNL     1       2.295   4.145  20.987  0.00  0.00    +0.000 A 
ATOM      6  N   UNL     1       2.068   3.174  21.957  0.00  0.00    +0.000 N 
ATOM      7  N   UNL     1       1.692   5.345  21.130  0.00  0.00    +0.000 NA
ATOM      8  C   UNL     1       1.923   6.315  20.214  0.00  0.00    +0.000 A 
ATOM      9  C   UNL     1       2.731   6.193  19.090  0.00  0.00    +0.000 A 
ATOM     10  C   UNL     1       3.321   4.939  18.930  0.00  0.00    +0.000 A 
ATOM     11  H   UNL     1       2.251   2.236  21.620  0.00  0.00    +0.000 HD
ATOM     12  H   UNL     1       1.210   3.343  22.461  0.00  0.00    +0.000 HD
ENDROOT
BRANCH   1  16
ATOM     13  C   UNL     1       7.454   7.371  17.431  0.00  0.00    +0.000 C 
ATOM     14  C   UNL     1       6.669   6.077  17.534  0.00  0.00    +0.000 C 
ATOM     15  O   UNL     1       5.292   6.313  17.195  0.00  0.00    +0.000 OA
ATOM     16  C   UNL     1       4.731   5.041  16.812  0.00  0.00    +0.000 C 
ATOM     17  C   UNL     1       5.870   4.288  16.128  0.00  0.00    +0.000 C 
ATOM     18  C   UNL     1       7.143   4.984  16.585  0.00  0.00    +0.000 C 
BRANCH  18  19
ATOM     19  O   UNL     1       8.058   4.094  17.208  0.00  0.00    +0.000 OA
ATOM     20  H   UNL     1       8.276   4.411  18.101  0.00  0.00    +0.000 HD
ENDBRANCH  18  19
ENDBRANCH   1  16
TORSDOF 2
ENDMDL
MODEL 3
REMARK VINA RESULT:      -7.4      2.713      5.453
REMARK  Name = 
REMARK  3 active torsions:
REMARK  status: ('A' for Active; 'I' for Inactive)
REMARK    1  A    between atoms: C_1  and  C_2
REMARK    2  A    between atoms: C_4  and  N_5
REMARK    3  A    between atoms: C_16  and  O_17
REMARK                            x       y       z     vdW  Elec       q    Type
REMARK                         _______ _______ _______ _____ _____    ______ ____
ROOT
ATOM      1  N   UNL     1       3.819   5.440  17.580  0.00  0.00    +0.000 N 
ATOM      2  C   UNL     1       3.140   6.366  18.331  0.00  0.00    +0.000 A 
ATOM      3  N   UNL     1       2.285   5.811  19.156  0.00  0.00    +0.000 NA
ATOM      4  C   UNL     1       2.351   4.462  18.884  0.00  0.00    +0.000 A 
ATOM      5  C   UNL     1       1.611   3.395  19.447  0.00  0.00    +0.000 A 
ATOM      6  N   UNL     1       0.635   3.593  20.419  0.00  0.00    +0.000 N 
ATOM      7  N   UNL     1       1.862   2.131  19.042  0.00  0.00    +0.000 NA
ATOM      8  C   UNL     1       2.786   1.918  18.076  0.00  0.00    +0.000 A 
ATOM      9  C   UNL     1       3.544   2.900  17.447  0.00  0.00    +0.000 A 
ATOM     10  C   UNL     1       3.304   4.198  17.897  0.00  0.00    +0.000 A 
ATOM     11  H   UNL     1       0.744   4.475  20.907  0.00  0.00    +0.000 HD
ATOM     12  H   UNL     1       0.479   2.759  20.965  0.00  0.00    +0.000 HD
ENDROOT
BRANCH   1  16
ATOM     13  C   UNL     1       7.764   7.573  17.662  0.00  0.00    +0.000 C 
ATOM     14  C   UNL     1       6.691   6.499  17.688  0.00  0.00    +0.000 C 
ATOM     15  O   UNL     1       5.550   6.931  16.928  0.00  0.00    +0.000 OA
ATOM     16  C   UNL     1       4.819   5.745  16.558  0.00  0.00    +0.000 C 
ATOM     17  C   UNL     1       5.883   4.668  16.344  0.00  0.00    +0.000 C 
ATOM     18  C   UNL     1       7.120   5.176  17.067  0.00  0.00    +0.000 C 
BRANCH  18  19
ATOM     19  O   UNL     1       7.597   4.258  18.040  0.00  0.00    +0.000 OA
ATOM     20  H   UNL     1       7.144   4.406  18.889  0.00  0.00    +0.000 HD
ENDBRANCH  18  19
ENDBRANCH   1  16
TORSDOF 2
ENDMDL
MODEL 4
REMARK VINA RESULT:      -7.2      1.436      2.226
REMARK  Name = 
REMARK  3 active torsions:
REMARK  status: ('A' for Active; 'I' for Inactive)
REMARK    1  A    between atoms: C_1  and  C_2
REMARK    2  A    between atoms: C_4  and  N_5
REMARK    3  A    between atoms: C_16  and  O_17
REMARK                            x       y       z     vdW  Elec       q    Type
REMARK                         _______ _______ _______ _____ _____    ______ ____
ROOT
ATOM      1  N   UNL     1       4.853   3.779  18.318  0.00  0.00    +0.000 N 
ATOM      2  C   UNL     1       4.381   3.269  17.134  0.00  0.00    +0.000 A 
ATOM      3  N   UNL     1       5.012   3.758  16.094  0.00  0.00    +0.000 NA
ATOM      4  C   UNL     1       5.890   4.685  16.610  0.00  0.00    +0.000 A 
ATOM      5  C   UNL     1       6.789   5.544  15.935  0.00  0.00    +0.000 A 
ATOM      6  N   UNL     1       6.901   5.569  14.549  0.00  0.00    +0.000 N 
ATOM      7  N   UNL     1       7.583   6.367  16.655  0.00  0.00    +0.000 NA
ATOM      8  C   UNL     1       7.470   6.381  18.004  0.00  0.00    +0.000 A 
ATOM      9  C   UNL     1       6.602   5.594  18.754  0.00  0.00    +0.000 A 
ATOM     10  C   UNL     1       5.811   4.723  18.004  0.00  0.00    +0.000 A 
ATOM     11  H   UNL     1       6.554   4.722  14.114  0.00  0.00    +0.000 HD
ATOM     12  H   UNL     1       7.797   5.927  14.253  0.00  0.00    +0.000 HD
ENDROOT
BRANCH   1  16
ATOM     13  C   UNL     1       0.935   4.490  20.383  0.00  0.00    +0.000 C 
ATOM     14  C   UNL     1       2.067   3.863  19.589  0.00  0.00    +0.000 C 
ATOM     15  O   UNL     1       3.327   4.399  20.029  0.00  0.00    +0.000 OA
ATOM     16  C   UNL     1       4.342   3.449  19.648  0.00  0.00    +0.000 C 
ATOM     17  C   UNL     1       3.678   2.079  19.771  0.00  0.00    +0.000 C 
ATOM     18  C   UNL     1       2.182   2.354  19.757  0.00  0.00    +0.000 C 
BRANCH  18  19
ATOM     19  O   UNL     1       1.509   1.648  18.724  0.00  0.00    +0.000 OA
ATOM     20  H   UNL     1       2.128   1.441  18.003  0.00  0.00    +0.000 HD
ENDBRANCH  18  19
ENDBRANCH   1  16
TORSDOF 2
ENDMDL
MODEL 5
REMARK VINA RESULT:      -7.2      1.560      2.171
REMARK  Name = 
REMARK  3 active torsions:
REMARK  status: ('A' for Active; 'I' for Inactive)
REMARK    1  A    between atoms: C_1  and  C_2
REMARK    2  A    between atoms: C_4  and  N_5
REMARK    3  A    between atoms: C_16  and  O_17
REMARK                            x       y       z     vdW  Elec       q    Type
REMARK                         _______ _______ _______ _____ _____    ______ ____
ROOT
ATOM      1  N   UNL     1       4.086   5.091  18.501  0.00  0.00    +0.000 N 
ATOM      2  C   UNL     1       4.805   4.919  19.657  0.00  0.00    +0.000 A 
ATOM      3  N   UNL     1       6.085   4.746  19.428  0.00  0.00    +0.000 NA
ATOM      4  C   UNL     1       6.204   4.730  18.056  0.00  0.00    +0.000 A 
ATOM      5  C   UNL     1       7.354   4.531  17.256  0.00  0.00    +0.000 A 
ATOM      6  N   UNL     1       8.612   4.297  17.801  0.00  0.00    +0.000 N 
ATOM      7  N   UNL     1       7.240   4.583  15.910  0.00  0.00    +0.000 NA
ATOM      8  C   UNL     1       6.020   4.781  15.358  0.00  0.00    +0.000 A 
ATOM      9  C   UNL     1       4.832   4.961  16.057  0.00  0.00    +0.000 A 
ATOM     10  C   UNL     1       4.965   4.943  17.445  0.00  0.00    +0.000 A 
ATOM     11  H   UNL     1       8.686   4.610  18.762  0.00  0.00    +0.000 HD
ATOM     12  H   UNL     1       9.349   4.544  17.158  0.00  0.00    +0.000 HD
ENDROOT
BRANCH   1  16
ATOM     13  C   UNL     1       0.583   2.298  18.724  0.00  0.00    +0.000 C 
ATOM     14  C   UNL     1       1.681   3.284  19.080  0.00  0.00    +0.000 C 
ATOM     15  O   UNL     1       2.012   4.082  17.931  0.00  0.00    +0.000 OA
ATOM     16  C   UNL     1       2.639   5.284  18.422  0.00  0.00    +0.000 C 
ATOM     17  C   UNL     1       1.947   5.584  19.751  0.00  0.00    +0.000 C 
ATOM     18  C   UNL     1       1.297   4.275  20.171  0.00  0.00    +0.000 C 
BRANCH  18  19
ATOM     19  O   UNL     1       1.720   3.845  21.457  0.00  0.00    +0.000 OA
ATOM     20  H   UNL     1       1.833   4.613  22.045  0.00  0.00    +0.000 HD
ENDBRANCH  18  19
ENDBRANCH   1  16
TORSDOF 2
ENDMDL
MODEL 6
REMARK VINA RESULT:      -7.2      2.743      5.752
REMARK  Name = 
REMARK  3 active torsions:
REMARK  status: ('A' for Active; 'I' for Inactive)
REMARK    1  A    between atoms: C_1  and  C_2
REMARK    2  A    between atoms: C_4  and  N_5
REMARK    3  A    between atoms: C_16  and  O_17
REMARK                            x       y       z     vdW  Elec       q    Type
REMARK                         _______ _______ _______ _____ _____    ______ ____
ROOT
ATOM      1  N   UNL     1       3.817   5.054  17.665  0.00  0.00    +0.000 N 
ATOM      2  C   UNL     1       3.812   3.978  16.813  0.00  0.00    +0.000 A 
ATOM      3  N   UNL     1       2.896   3.095  17.130  0.00  0.00    +0.000 NA
ATOM      4  C   UNL     1       2.320   3.575  18.285  0.00  0.00    +0.000 A 
ATOM      5  C   UNL     1       1.305   3.003  19.088  0.00  0.00    +0.000 A 
ATOM      6  N   UNL     1       0.722   1.775  18.794  0.00  0.00    +0.000 N 
ATOM      7  N   UNL     1       0.870   3.672  20.179  0.00  0.00    +0.000 NA
ATOM      8  C   UNL     1       1.444   4.855  20.501  0.00  0.00    +0.000 A 
ATOM      9  C   UNL     1       2.460   5.484  19.791  0.00  0.00    +0.000 A 
ATOM     10  C   UNL     1       2.878   4.804  18.647  0.00  0.00    +0.000 A 
ATOM     11  H   UNL     1       0.836   1.512  17.821  0.00  0.00    +0.000 HD
ATOM     12  H   UNL     1      -0.193   1.687  19.210  0.00  0.00    +0.000 HD
ENDROOT
BRANCH   1  16
ATOM     13  C   UNL     1       7.960   5.791  19.219  0.00  0.00    +0.000 C 
ATOM     14  C   UNL     1       6.784   5.424  18.332  0.00  0.00    +0.000 C 
ATOM     15  O   UNL     1       5.624   6.177  18.723  0.00  0.00    +0.000 OA
ATOM     16  C   UNL     1       4.732   6.192  17.590  0.00  0.00    +0.000 C 
ATOM     17  C   UNL     1       5.642   6.218  16.363  0.00  0.00    +0.000 C 
ATOM     18  C   UNL     1       6.997   5.736  16.856  0.00  0.00    +0.000 C 
BRANCH  18  19
ATOM     19  O   UNL     1       7.470   4.608  16.134  0.00  0.00    +0.000 OA
ATOM     20  H   UNL     1       8.016   4.898  15.383  0.00  0.00    +0.000 HD
ENDBRANCH  18  19
ENDBRANCH   1  16
TORSDOF 2
ENDMDL
MODEL 7
REMARK VINA RESULT:      -7.1      1.606      2.462
REMARK  Name = 
REMARK  3 active torsions:
REMARK  status: ('A' for Active; 'I' for Inactive)
REMARK    1  A    between atoms: C_1  and  C_2
REMARK    2  A    between atoms: C_4  and  N_5
REMARK    3  A    between atoms: C_16  and  O_17
REMARK                            x       y       z     vdW  Elec       q    Type
REMARK                         _______ _______ _______ _____ _____    ______ ____
ROOT
ATOM      1  N   UNL     1       3.923   4.970  19.030  0.00  0.00    +0.000 N 
ATOM      2  C   UNL     1       4.763   4.135  19.722  0.00  0.00    +0.000 A 
ATOM      3  N   UNL     1       5.955   4.065  19.180  0.00  0.00    +0.000 NA
ATOM      4  C   UNL     1       5.875   4.831  18.038  0.00  0.00    +0.000 A 
ATOM      5  C   UNL     1       6.856   5.072  17.047  0.00  0.00    +0.000 A 
ATOM      6  N   UNL     1       8.127   4.510  17.101  0.00  0.00    +0.000 N 
ATOM      7  N   UNL     1       6.562   5.889  16.011  0.00  0.00    +0.000 NA
ATOM      8  C   UNL     1       5.321   6.423  15.923  0.00  0.00    +0.000 A 
ATOM      9  C   UNL     1       4.286   6.227  16.830  0.00  0.00    +0.000 A 
ATOM     10  C   UNL     1       4.610   5.411  17.915  0.00  0.00    +0.000 A 
ATOM     11  H   UNL     1       8.384   4.213  18.036  0.00  0.00    +0.000 HD
ATOM     12  H   UNL     1       8.796   5.046  16.568  0.00  0.00    +0.000 HD
ENDROOT
BRANCH   1  16
ATOM     13  C   UNL     1       0.218   2.442  19.094  0.00  0.00    +0.000 C 
ATOM     14  C   UNL     1       1.481   3.181  19.498  0.00  0.00    +0.000 C 
ATOM     15  O   UNL     1       1.666   4.330  18.654  0.00  0.00    +0.000 OA
ATOM     16  C   UNL     1       2.526   5.240  19.368  0.00  0.00    +0.000 C 
ATOM     17  C   UNL     1       2.165   5.062  20.842  0.00  0.00    +0.000 C 
ATOM     18  C   UNL     1       1.457   3.719  20.923  0.00  0.00    +0.000 C 
BRANCH  18  19
ATOM     19  O   UNL     1       2.077   2.831  21.841  0.00  0.00    +0.000 OA
ATOM     20  H   UNL     1       1.546   2.766  22.654  0.00  0.00    +0.000 HD
ENDBRANCH  18  19
ENDBRANCH   1  16
TORSDOF 2
ENDMDL
MODEL 8
REMARK VINA RESULT:      -7.0      2.574      5.630
REMARK  Name = 
REMARK  3 active torsions:
REMARK  status: ('A' for Active; 'I' for Inactive)
REMARK    1  A    between atoms: C_1  and  C_2
REMARK    2  A    between atoms: C_4  and  N_5
REMARK    3  A    between atoms: C_16  and  O_17
REMARK                            x       y       z     vdW  Elec       q    Type
REMARK                         _______ _______ _______ _____ _____    ______ ____
ROOT
ATOM      1  N   UNL     1       4.315   4.046  18.170  0.00  0.00    +0.000 N 
ATOM      2  C   UNL     1       5.139   3.707  19.213  0.00  0.00    +0.000 A 
ATOM      3  N   UNL     1       4.485   3.151  20.205  0.00  0.00    +0.000 NA
ATOM      4  C   UNL     1       3.161   3.193  19.828  0.00  0.00    +0.000 A 
ATOM      5  C   UNL     1       2.011   2.770  20.537  0.00  0.00    +0.000 A 
ATOM      6  N   UNL     1       2.079   2.224  21.815  0.00  0.00    +0.000 N 
ATOM      7  N   UNL     1       0.797   2.884  19.955  0.00  0.00    +0.000 NA
ATOM      8  C   UNL     1       0.704   3.440  18.724  0.00  0.00    +0.000 A 
ATOM      9  C   UNL     1       1.769   3.906  17.962  0.00  0.00    +0.000 A 
ATOM     10  C   UNL     1       3.022   3.751  18.555  0.00  0.00    +0.000 A 
ATOM     11  H   UNL     1       2.999   1.857  22.034  0.00  0.00    +0.000 HD
ATOM     12  H   UNL     1       1.274   1.652  22.019  0.00  0.00    +0.000 HD
ENDROOT
BRANCH   1  16
ATOM     13  C   UNL     1       7.246   7.316  17.254  0.00  0.00    +0.000 C 
ATOM     14  C   UNL     1       6.605   5.957  17.469  0.00  0.00    +0.000 C 
ATOM     15  O   UNL     1       5.192   6.039  17.218  0.00  0.00    +0.000 OA
ATOM     16  C   UNL     1       4.739   4.701  16.932  0.00  0.00    +0.000 C 
ATOM     17  C   UNL     1       5.902   4.030  16.204  0.00  0.00    +0.000 C 
ATOM     18  C   UNL     1       7.124   4.870  16.538  0.00  0.00    +0.000 C 
BRANCH  18  19
ATOM     19  O   UNL     1       8.164   4.107  17.133  0.00  0.00    +0.000 OA
ATOM     20  H   UNL     1       7.790   3.331  17.586  0.00  0.00    +0.000 HD
ENDBRANCH  18  19
ENDBRANCH   1  16
TORSDOF 2
ENDMDL
MODEL 9
REMARK VINA RESULT:      -6.9      2.582      5.391
REMARK  Name = 
REMARK  3 active torsions:
REMARK  status: ('A' for Active; 'I' for Inactive)
REMARK    1  A    between atoms: C_1  and  C_2
REMARK    2  A    between atoms: C_4  and  N_5
REMARK    3  A    between atoms: C_16  and  O_17
REMARK                            x       y       z     vdW  Elec       q    Type
REMARK                         _______ _______ _______ _____ _____    ______ ____
ROOT
ATOM      1  N   UNL     1       4.955   4.376  18.738  0.00  0.00    +0.000 N 
ATOM      2  C   UNL     1       4.531   5.505  19.390  0.00  0.00    +0.000 A 
ATOM      3  N   UNL     1       3.323   5.374  19.882  0.00  0.00    +0.000 NA
ATOM      4  C   UNL     1       2.903   4.128  19.472  0.00  0.00    +0.000 A 
ATOM      5  C   UNL     1       1.659   3.485  19.681  0.00  0.00    +0.000 A 
ATOM      6  N   UNL     1       0.614   4.086  20.375  0.00  0.00    +0.000 N 
ATOM      7  N   UNL     1       1.475   2.234  19.203  0.00  0.00    +0.000 NA
ATOM      8  C   UNL     1       2.467   1.642  18.499  0.00  0.00    +0.000 A 
ATOM      9  C   UNL     1       3.710   2.200  18.222  0.00  0.00    +0.000 A 
ATOM     10  C   UNL     1       3.906   3.477  18.749  0.00  0.00    +0.000 A 
ATOM     11  H   UNL     1       0.928   4.836  20.979  0.00  0.00    +0.000 HD
ATOM     12  H   UNL     1      -0.025   3.402  20.752  0.00  0.00    +0.000 HD
ENDROOT
BRANCH   1  16
ATOM     13  C   UNL     1       6.344   5.055  14.527  0.00  0.00    +0.000 C 
ATOM     14  C   UNL     1       6.028   5.237  16.000  0.00  0.00    +0.000 C 
ATOM     15  O   UNL     1       6.034   3.960  16.662  0.00  0.00    +0.000 OA
ATOM     16  C   UNL     1       6.244   4.217  18.065  0.00  0.00    +0.000 C 
ATOM     17  C   UNL     1       7.163   5.436  18.118  0.00  0.00    +0.000 C 
ATOM     18  C   UNL     1       7.039   6.093  16.752  0.00  0.00    +0.000 C 
BRANCH  18  19
ATOM     19  O   UNL     1       6.632   7.451  16.836  0.00  0.00    +0.000 OA
ATOM     20  H   UNL     1       7.189   7.927  17.475  0.00  0.00    +0.000 HD
ENDBRANCH  18  19
ENDBRANCH   1  16
TORSDOF 2
ENDMDL
