MODEL 1
REMARK VINA RESULT:      -8.1      0.000      0.000
REMARK  Name = 
REMARK  2 active torsions:
REMARK  status: ('A' for Active; 'I' for Inactive)
REMARK    1  A    between atoms: C_8  and  N_9
REMARK    2  A    between atoms: C_11  and  C_12
REMARK                            x       y       z     vdW  Elec       q    Type
REMARK                         _______ _______ _______ _____ _____    ______ ____
ROOT
ATOM      1  O   UNL     1      -1.883  13.705  23.909  0.00  0.00    +0.000 OA
ATOM      2  S   UNL     1      -2.340  12.572  23.126  0.00  0.00    +0.000 S 
ATOM      3  O   UNL     1      -3.656  12.011  23.363  0.00  0.00    +0.000 OA
ATOM      4  C   UNL     1      -2.245  13.015  21.460  0.00  0.00    +0.000 C 
ATOM      5  C   UNL     1      -1.477  12.360  20.588  0.00  0.00    +0.000 C 
ATOM      6  C   UNL     1      -0.656  11.216  20.964  0.00  0.00    +0.000 A 
ATOM      7  C   UNL     1       0.090  10.544  19.984  0.00  0.00    +0.000 A 
ATOM      8  C   UNL     1       0.869   9.427  20.325  0.00  0.00    +0.000 A 
ATOM      9  C   UNL     1       0.906   8.989  21.655  0.00  0.00    +0.000 A 
ATOM     10  C   UNL     1       0.177   9.669  22.630  0.00  0.00    +0.000 A 
ATOM     11  C   UNL     1      -0.599  10.776  22.285  0.00  0.00    +0.000 A 
ATOM     12  O   UNL     1      -1.254  11.378  23.320  0.00  0.00    +0.000 OA
ENDROOT
BRANCH   8  13
ATOM     13  N   UNL     1       1.603   8.743  19.322  0.00  0.00    +0.000 N 
ATOM     14  C   UNL     1       2.158   7.491  19.386  0.00  0.00    +0.000 A 
ATOM     15  C   UNL     1       2.723   7.289  18.150  0.00  0.00    +0.000 A 
ATOM     16  N   UNL     1       2.510   8.393  17.374  0.00  0.00    +0.000 NA
ATOM     17  N   UNL     1       1.838   9.281  18.099  0.00  0.00    +0.000 NA
BRANCH  15  18
ATOM     18  C   UNL     1       3.371   6.069  17.714  0.00  0.00    +0.000 A 
ATOM     19  C   UNL     1       2.702   4.845  17.821  0.00  0.00    +0.000 A 
ATOM     20  C   UNL     1       3.349   3.654  17.479  0.00  0.00    +0.000 A 
ATOM     21  C   UNL     1       4.664   3.681  17.015  0.00  0.00    +0.000 A 
ATOM     22  C   UNL     1       5.329   4.896  16.876  0.00  0.00    +0.000 A 
ATOM     23  C   UNL     1       4.686   6.085  17.221  0.00  0.00    +0.000 A 
ENDBRANCH  15  18
ENDBRANCH   8  13
TORSDOF 2
ENDMDL
MODEL 2
REMARK VINA RESULT:      -8.0      5.156      8.684
REMARK  Name = 
REMARK  2 active torsions:
REMARK  status: ('A' for Active; 'I' for Inactive)
REMARK    1  A    between atoms: C_8  and  N_9
REMARK    2  A    between atoms: C_11  and  C_12
REMARK                            x       y       z     vdW  Elec       q    Type
REMARK                         _______ _______ _______ _____ _____    ______ ____
ROOT
ATOM      1  O   UNL     1       5.093   1.905  20.543  0.00  0.00    +0.000 OA
ATOM      2  S   UNL     1       3.874   2.311  19.870  0.00  0.00    +0.000 S 
ATOM      3  O   UNL     1       3.230   1.411  18.932  0.00  0.00    +0.000 OA
ATOM      4  C   UNL     1       2.719   2.726  21.085  0.00  0.00    +0.000 C 
ATOM      5  C   UNL     1       2.191   3.947  21.182  0.00  0.00    +0.000 C 
ATOM      6  C   UNL     1       2.539   5.031  20.274  0.00  0.00    +0.000 A 
ATOM      7  C   UNL     1       1.907   6.278  20.405  0.00  0.00    +0.000 A 
ATOM      8  C   UNL     1       2.215   7.328  19.525  0.00  0.00    +0.000 A 
ATOM      9  C   UNL     1       3.166   7.128  18.517  0.00  0.00    +0.000 A 
ATOM     10  C   UNL     1       3.805   5.894  18.399  0.00  0.00    +0.000 A 
ATOM     11  C   UNL     1       3.492   4.853  19.274  0.00  0.00    +0.000 A 
ATOM     12  O   UNL     1       4.192   3.697  19.082  0.00  0.00    +0.000 OA
ENDROOT
BRANCH   8  13
ATOM     13  N   UNL     1       1.555   8.576  19.655  0.00  0.00    +0.000 N 
ATOM     14  C   UNL     1       1.014   9.134  20.785  0.00  0.00    +0.000 A 
ATOM     15  C   UNL     1       0.532  10.356  20.383  0.00  0.00    +0.000 A 
ATOM     16  N   UNL     1       0.778  10.517  19.049  0.00  0.00    +0.000 NA
ATOM     17  N   UNL     1       1.391   9.424  18.609  0.00  0.00    +0.000 NA
BRANCH  15  18
ATOM     18  C   UNL     1      -0.071  11.346  21.252  0.00  0.00    +0.000 A 
ATOM     19  C   UNL     1       0.321  12.687  21.161  0.00  0.00    +0.000 A 
ATOM     20  C   UNL     1      -0.194  13.634  22.049  0.00  0.00    +0.000 A 
ATOM     21  C   UNL     1      -1.114  13.251  23.025  0.00  0.00    +0.000 A 
ATOM     22  C   UNL     1      -1.534  11.926  23.105  0.00  0.00    +0.000 A 
ATOM     23  C   UNL     1      -1.017  10.978  22.221  0.00  0.00    +0.000 A 
ENDBRANCH  15  18
ENDBRANCH   8  13
TORSDOF 2
ENDMDL
MODEL 3
REMARK VINA RESULT:      -8.0      3.376      5.044
REMARK  Name = 
REMARK  2 active torsions:
REMARK  status: ('A' for Active; 'I' for Inactive)
REMARK    1  A    between atoms: C_8  and  N_9
REMARK    2  A    between atoms: C_11  and  C_12
REMARK                            x       y       z     vdW  Elec       q    Type
REMARK                         _______ _______ _______ _____ _____    ______ ____
ROOT
ATOM      1  O   UNL     1       1.116  10.975  21.310  0.00  0.00    +0.000 OA
ATOM      2  S   UNL     1       0.572   9.989  20.395  0.00  0.00    +0.000 S 
ATOM      3  O   UNL     1      -0.859   9.753  20.351  0.00  0.00    +0.000 OA
ATOM      4  C   UNL     1       1.090  10.410  18.804  0.00  0.00    +0.000 C 
ATOM      5  C   UNL     1       1.841   9.598  18.057  0.00  0.00    +0.000 C 
ATOM      6  C   UNL     1       2.286   8.289  18.519  0.00  0.00    +0.000 A 
ATOM      7  C   UNL     1       3.033   7.467  17.662  0.00  0.00    +0.000 A 
ATOM      8  C   UNL     1       3.451   6.194  18.083  0.00  0.00    +0.000 A 
ATOM      9  C   UNL     1       3.125   5.750  19.370  0.00  0.00    +0.000 A 
ATOM     10  C   UNL     1       2.397   6.576  20.226  0.00  0.00    +0.000 A 
ATOM     11  C   UNL     1       1.980   7.838  19.801  0.00  0.00    +0.000 A 
ATOM     12  O   UNL     1       1.293   8.570  20.726  0.00  0.00    +0.000 OA
ENDROOT
BRANCH   8  13
ATOM     13  N   UNL     1       4.189   5.364  17.201  0.00  0.00    +0.000 N 
ATOM     14  C   UNL     1       4.683   5.676  15.961  0.00  0.00    +0.000 A 
ATOM     15  C   UNL     1       5.344   4.545  15.546  0.00  0.00    +0.000 A 
ATOM     16  N   UNL     1       5.242   3.587  16.515  0.00  0.00    +0.000 NA
ATOM     17  N   UNL     1       4.526   4.088  17.515  0.00  0.00    +0.000 NA
BRANCH  15  18
ATOM     18  C   UNL     1       6.095   4.417  14.314  0.00  0.00    +0.000 A 
ATOM     19  C   UNL     1       7.246   5.188  14.113  0.00  0.00    +0.000 A 
ATOM     20  C   UNL     1       7.930   5.132  12.897  0.00  0.00    +0.000 A 
ATOM     21  C   UNL     1       7.477   4.294  11.877  0.00  0.00    +0.000 A 
ATOM     22  C   UNL     1       6.351   3.501  12.077  0.00  0.00    +0.000 A 
ATOM     23  C   UNL     1       5.664   3.560  13.290  0.00  0.00    +0.000 A 
ENDBRANCH  15  18
ENDBRANCH   8  13
TORSDOF 2
ENDMDL
MODEL 4
REMARK VINA RESULT:      -8.0      5.446      8.978
REMARK  Name = 
REMARK  2 active torsions:
REMARK  status: ('A' for Active; 'I' for Inactive)
REMARK    1  A    between atoms: C_8  and  N_9
REMARK    2  A    between atoms: C_11  and  C_12
REMARK                            x       y       z     vdW  Elec       q    Type
REMARK                         _______ _______ _______ _____ _____    ______ ____
ROOT
ATOM      1  O   UNL     1       6.021   3.198  15.646  0.00  0.00    +0.000 OA
ATOM      2  S   UNL     1       6.325   4.369  16.447  0.00  0.00    +0.000 S 
ATOM      3  O   UNL     1       7.649   4.533  17.018  0.00  0.00    +0.000 OA
ATOM      4  C   UNL     1       5.985   5.762  15.487  0.00  0.00    +0.000 C 
ATOM      5  C   UNL     1       5.076   6.672  15.843  0.00  0.00    +0.000 C 
ATOM      6  C   UNL     1       4.297   6.570  17.070  0.00  0.00    +0.000 A 
ATOM      7  C   UNL     1       3.393   7.590  17.406  0.00  0.00    +0.000 A 
ATOM      8  C   UNL     1       2.650   7.519  18.595  0.00  0.00    +0.000 A 
ATOM      9  C   UNL     1       2.808   6.417  19.444  0.00  0.00    +0.000 A 
ATOM     10  C   UNL     1       3.695   5.396  19.099  0.00  0.00    +0.000 A 
ATOM     11  C   UNL     1       4.434   5.474  17.919  0.00  0.00    +0.000 A 
ATOM     12  O   UNL     1       5.254   4.413  17.670  0.00  0.00    +0.000 OA
ENDROOT
BRANCH   8  13
ATOM     13  N   UNL     1       1.754   8.565  18.934  0.00  0.00    +0.000 N 
ATOM     14  C   UNL     1       1.105   8.770  20.123  0.00  0.00    +0.000 A 
ATOM     15  C   UNL     1       0.393   9.931  19.945  0.00  0.00    +0.000 A 
ATOM     16  N   UNL     1       0.612  10.401  18.681  0.00  0.00    +0.000 NA
ATOM     17  N   UNL     1       1.433   9.557  18.065  0.00  0.00    +0.000 NA
BRANCH  15  18
ATOM     18  C   UNL     1      -0.401  10.593  20.960  0.00  0.00    +0.000 A 
ATOM     19  C   UNL     1      -1.081  11.777  20.655  0.00  0.00    +0.000 A 
ATOM     20  C   UNL     1      -1.782  12.465  21.648  0.00  0.00    +0.000 A 
ATOM     21  C   UNL     1      -1.819  11.967  22.951  0.00  0.00    +0.000 A 
ATOM     22  C   UNL     1      -1.171  10.774  23.259  0.00  0.00    +0.000 A 
ATOM     23  C   UNL     1      -0.467  10.089  22.268  0.00  0.00    +0.000 A 
ENDBRANCH  15  18
ENDBRANCH   8  13
TORSDOF 2
ENDMDL
MODEL 5
REMARK VINA RESULT:      -7.9      5.191      8.663
REMARK  Name = 
REMARK  2 active torsions:
REMARK  status: ('A' for Active; 'I' for Inactive)
REMARK    1  A    between atoms: C_8  and  N_9
REMARK    2  A    between atoms: C_11  and  C_12
REMARK                            x       y       z     vdW  Elec       q    Type
REMARK                         _______ _______ _______ _____ _____    ______ ____
ROOT
ATOM      1  O   UNL     1       5.217   1.817  20.580  0.00  0.00    +0.000 OA
ATOM      2  S   UNL     1       4.055   2.218  19.809  0.00  0.00    +0.000 S 
ATOM      3  O   UNL     1       3.513   1.328  18.800  0.00  0.00    +0.000 OA
ATOM      4  C   UNL     1       2.791   2.588  20.925  0.00  0.00    +0.000 C 
ATOM      5  C   UNL     1       2.235   3.798  21.000  0.00  0.00    +0.000 C 
ATOM      6  C   UNL     1       2.643   4.907  20.148  0.00  0.00    +0.000 A 
ATOM      7  C   UNL     1       1.981   6.141  20.248  0.00  0.00    +0.000 A 
ATOM      8  C   UNL     1       2.346   7.214  19.420  0.00  0.00    +0.000 A 
ATOM      9  C   UNL     1       3.386   7.051  18.496  0.00  0.00    +0.000 A 
ATOM     10  C   UNL     1       4.055   5.830  18.411  0.00  0.00    +0.000 A 
ATOM     11  C   UNL     1       3.684   4.765  19.233  0.00  0.00    +0.000 A 
ATOM     12  O   UNL     1       4.417   3.625  19.081  0.00  0.00    +0.000 OA
ENDROOT
BRANCH   8  13
ATOM     13  N   UNL     1       1.656   8.449  19.516  0.00  0.00    +0.000 N 
ATOM     14  C   UNL     1       0.963   8.950  20.587  0.00  0.00    +0.000 A 
ATOM     15  C   UNL     1       0.518  10.184  20.179  0.00  0.00    +0.000 A 
ATOM     16  N   UNL     1       0.936  10.408  18.897  0.00  0.00    +0.000 NA
ATOM     17  N   UNL     1       1.618   9.342  18.495  0.00  0.00    +0.000 NA
BRANCH  15  18
ATOM     18  C   UNL     1      -0.208  11.128  21.003  0.00  0.00    +0.000 A 
ATOM     19  C   UNL     1      -0.642  10.754  22.280  0.00  0.00    +0.000 A 
ATOM     20  C   UNL     1      -1.413  11.629  23.048  0.00  0.00    +0.000 A 
ATOM     21  C   UNL     1      -1.745  12.889  22.551  0.00  0.00    +0.000 A 
ATOM     22  C   UNL     1      -1.294  13.284  21.295  0.00  0.00    +0.000 A 
ATOM     23  C   UNL     1      -0.527  12.409  20.525  0.00  0.00    +0.000 A 
ENDBRANCH  15  18
ENDBRANCH   8  13
TORSDOF 2
ENDMDL
MODEL 6
REMARK VINA RESULT:      -7.9      5.644      8.997
REMARK  Name = 
REMARK  2 active torsions:
REMARK  status: ('A' for Active; 'I' for Inactive)
REMARK    1  A    between atoms: C_8  and  N_9
REMARK    2  A    between atoms: C_11  and  C_12
REMARK                            x       y       z     vdW  Elec       q    Type
REMARK                         _______ _______ _______ _____ _____    ______ ____
ROOT
ATOM      1  O   UNL     1       6.125   3.341  15.204  0.00  0.00    +0.000 OA
ATOM      2  S   UNL     1       6.445   4.383  16.160  0.00  0.00    +0.000 S 
ATOM      3  O   UNL     1       7.810   4.548  16.622  0.00  0.00    +0.000 OA
ATOM      4  C   UNL     1       5.928   5.886  15.487  0.00  0.00    +0.000 C 
ATOM      5  C   UNL     1       5.013   6.657  16.077  0.00  0.00    +0.000 C 
ATOM      6  C   UNL     1       4.374   6.299  17.337  0.00  0.00    +0.000 A 
ATOM      7  C   UNL     1       3.454   7.181  17.925  0.00  0.00    +0.000 A 
ATOM      8  C   UNL     1       2.846   6.862  19.150  0.00  0.00    +0.000 A 
ATOM      9  C   UNL     1       3.154   5.650  19.780  0.00  0.00    +0.000 A 
ATOM     10  C   UNL     1       4.056   4.767  19.185  0.00  0.00    +0.000 A 
ATOM     11  C   UNL     1       4.661   5.092  17.970  0.00  0.00    +0.000 A 
ATOM     12  O   UNL     1       5.509   4.148  17.467  0.00  0.00    +0.000 OA
ENDROOT
BRANCH   8  13
ATOM     13  N   UNL     1       1.934   7.770  19.745  0.00  0.00    +0.000 N 
ATOM     14  C   UNL     1       1.347   8.873  19.179  0.00  0.00    +0.000 A 
ATOM     15  C   UNL     1       0.528   9.382  20.157  0.00  0.00    +0.000 A 
ATOM     16  N   UNL     1       0.627   8.602  21.274  0.00  0.00    +0.000 NA
ATOM     17  N   UNL     1       1.496   7.629  21.021  0.00  0.00    +0.000 NA
BRANCH  15  18
ATOM     18  C   UNL     1      -0.359  10.517  20.001  0.00  0.00    +0.000 A 
ATOM     19  C   UNL     1      -0.618  11.357  21.089  0.00  0.00    +0.000 A 
ATOM     20  C   UNL     1      -1.535  12.404  20.971  0.00  0.00    +0.000 A 
ATOM     21  C   UNL     1      -2.189  12.628  19.758  0.00  0.00    +0.000 A 
ATOM     22  C   UNL     1      -1.916  11.817  18.660  0.00  0.00    +0.000 A 
ATOM     23  C   UNL     1      -1.004  10.768  18.779  0.00  0.00    +0.000 A 
ENDBRANCH  15  18
ENDBRANCH   8  13
TORSDOF 2
ENDMDL
MODEL 7
REMARK VINA RESULT:      -7.9      1.583      2.495
REMARK  Name = 
REMARK  2 active torsions:
REMARK  status: ('A' for Active; 'I' for Inactive)
REMARK    1  A    between atoms: C_8  and  N_9
REMARK    2  A    between atoms: C_11  and  C_12
REMARK                            x       y       z     vdW  Elec       q    Type
REMARK                         _______ _______ _______ _____ _____    ______ ____
ROOT
ATOM      1  O   UNL     1      -2.930  12.250  22.024  0.00  0.00    +0.000 OA
ATOM      2  S   UNL     1      -1.483  12.191  22.103  0.00  0.00    +0.000 S 
ATOM      3  O   UNL     1      -0.735  13.340  22.578  0.00  0.00    +0.000 OA
ATOM      4  C   UNL     1      -1.068  10.841  23.096  0.00  0.00    +0.000 C 
ATOM      5  C   UNL     1      -0.343   9.817  22.644  0.00  0.00    +0.000 C 
ATOM      6  C   UNL     1       0.161   9.749  21.279  0.00  0.00    +0.000 A 
ATOM      7  C   UNL     1       0.959   8.664  20.885  0.00  0.00    +0.000 A 
ATOM      8  C   UNL     1       1.472   8.593  19.580  0.00  0.00    +0.000 A 
ATOM      9  C   UNL     1       1.175   9.611  18.665  0.00  0.00    +0.000 A 
ATOM     10  C   UNL     1       0.368  10.680  19.053  0.00  0.00    +0.000 A 
ATOM     11  C   UNL     1      -0.135  10.748  20.353  0.00  0.00    +0.000 A 
ATOM     12  O   UNL     1      -0.930  11.825  20.619  0.00  0.00    +0.000 OA
ENDROOT
BRANCH   8  13
ATOM     13  N   UNL     1       2.294   7.502  19.200  0.00  0.00    +0.000 N 
ATOM     14  C   UNL     1       3.145   7.416  18.128  0.00  0.00    +0.000 A 
ATOM     15  C   UNL     1       3.724   6.175  18.231  0.00  0.00    +0.000 A 
ATOM     16  N   UNL     1       3.227   5.540  19.334  0.00  0.00    +0.000 NA
ATOM     17  N   UNL     1       2.347   6.349  19.913  0.00  0.00    +0.000 NA
BRANCH  15  18
ATOM     18  C   UNL     1       4.754   5.655  17.355  0.00  0.00    +0.000 A 
ATOM     19  C   UNL     1       4.547   4.453  16.668  0.00  0.00    +0.000 A 
ATOM     20  C   UNL     1       5.565   3.903  15.886  0.00  0.00    +0.000 A 
ATOM     21  C   UNL     1       6.792   4.556  15.774  0.00  0.00    +0.000 A 
ATOM     22  C   UNL     1       6.999   5.767  16.428  0.00  0.00    +0.000 A 
ATOM     23  C   UNL     1       5.984   6.316  17.214  0.00  0.00    +0.000 A 
ENDBRANCH  15  18
ENDBRANCH   8  13
TORSDOF 2
ENDMDL
MODEL 8
REMARK VINA RESULT:      -7.9      5.631      8.991
REMARK  Name = 
REMARK  2 active torsions:
REMARK  status: ('A' for Active; 'I' for Inactive)
REMARK    1  A    between atoms: C_8  and  N_9
REMARK    2  A    between atoms: C_11  and  C_12
REMARK                            x       y       z     vdW  Elec       q    Type
REMARK                         _______ _______ _______ _____ _____    ______ ____
ROOT
ATOM      1  O   UNL     1       6.074   3.345  15.209  0.00  0.00    +0.000 OA
ATOM      2  S   UNL     1       6.401   4.382  16.170  0.00  0.00    +0.000 S 
ATOM      3  O   UNL     1       7.767   4.534  16.635  0.00  0.00    +0.000 OA
ATOM      4  C   UNL     1       5.896   5.891  15.502  0.00  0.00    +0.000 C 
ATOM      5  C   UNL     1       4.986   6.666  16.094  0.00  0.00    +0.000 C 
ATOM      6  C   UNL     1       4.343   6.308  17.351  0.00  0.00    +0.000 A 
ATOM      7  C   UNL     1       3.429   7.195  17.942  0.00  0.00    +0.000 A 
ATOM      8  C   UNL     1       2.816   6.875  19.164  0.00  0.00    +0.000 A 
ATOM      9  C   UNL     1       3.115   5.658  19.790  0.00  0.00    +0.000 A 
ATOM     10  C   UNL     1       4.010   4.771  19.192  0.00  0.00    +0.000 A 
ATOM     11  C   UNL     1       4.620   5.096  17.980  0.00  0.00    +0.000 A 
ATOM     12  O   UNL     1       5.461   4.148  17.475  0.00  0.00    +0.000 OA
ENDROOT
BRANCH   8  13
ATOM     13  N   UNL     1       1.910   7.788  19.762  0.00  0.00    +0.000 N 
ATOM     14  C   UNL     1       1.413   8.953  19.236  0.00  0.00    +0.000 A 
ATOM     15  C   UNL     1       0.556   9.438  20.194  0.00  0.00    +0.000 A 
ATOM     16  N   UNL     1       0.546   8.584  21.260  0.00  0.00    +0.000 NA
ATOM     17  N   UNL     1       1.383   7.587  20.995  0.00  0.00    +0.000 NA
BRANCH  15  18
ATOM     18  C   UNL     1      -0.265  10.624  20.060  0.00  0.00    +0.000 A 
ATOM     19  C   UNL     1      -0.758  10.996  18.804  0.00  0.00    +0.000 A 
ATOM     20  C   UNL     1      -1.482  12.181  18.652  0.00  0.00    +0.000 A 
ATOM     21  C   UNL     1      -1.730  12.996  19.757  0.00  0.00    +0.000 A 
ATOM     22  C   UNL     1      -1.271  12.620  21.016  0.00  0.00    +0.000 A 
ATOM     23  C   UNL     1      -0.544  11.439  21.168  0.00  0.00    +0.000 A 
ENDBRANCH  15  18
ENDBRANCH   8  13
TORSDOF 2
ENDMDL
MODEL 9
REMARK VINA RESULT:      -7.6      4.921      8.849
REMARK  Name = 
REMARK  2 active torsions:
REMARK  status: ('A' for Active; 'I' for Inactive)
REMARK    1  A    between atoms: C_8  and  N_9
REMARK    2  A    between atoms: C_11  and  C_12
REMARK                            x       y       z     vdW  Elec       q    Type
REMARK                         _______ _______ _______ _____ _____    ______ ____
ROOT
ATOM      1  O   UNL     1       4.669   3.628  17.785  0.00  0.00    +0.000 OA
ATOM      2  S   UNL     1       3.261   3.945  17.930  0.00  0.00    +0.000 S 
ATOM      3  O   UNL     1       2.281   3.302  17.075  0.00  0.00    +0.000 OA
ATOM      4  C   UNL     1       2.821   3.631  19.570  0.00  0.00    +0.000 C 
ATOM      5  C   UNL     1       2.356   4.582  20.381  0.00  0.00    +0.000 C 
ATOM      6  C   UNL     1       2.178   5.964  19.955  0.00  0.00    +0.000 A 
ATOM      7  C   UNL     1       1.638   6.903  20.847  0.00  0.00    +0.000 A 
ATOM      8  C   UNL     1       1.439   8.234  20.446  0.00  0.00    +0.000 A 
ATOM      9  C   UNL     1       1.792   8.625  19.148  0.00  0.00    +0.000 A 
ATOM     10  C   UNL     1       2.344   7.694  18.268  0.00  0.00    +0.000 A 
ATOM     11  C   UNL     1       2.535   6.371  18.671  0.00  0.00    +0.000 A 
ATOM     12  O   UNL     1       3.101   5.551  17.739  0.00  0.00    +0.000 OA
ENDROOT
BRANCH   8  13
ATOM     13  N   UNL     1       0.874   9.169  21.350  0.00  0.00    +0.000 N 
ATOM     14  C   UNL     1       0.148  10.295  21.059  0.00  0.00    +0.000 A 
ATOM     15  C   UNL     1      -0.192  10.825  22.279  0.00  0.00    +0.000 A 
ATOM     16  N   UNL     1       0.321  10.035  23.269  0.00  0.00    +0.000 NA
ATOM     17  N   UNL     1       0.980   9.034  22.696  0.00  0.00    +0.000 NA
BRANCH  15  18
ATOM     18  C   UNL     1      -1.027  11.991  22.484  0.00  0.00    +0.000 A 
ATOM     19  C   UNL     1      -2.292  11.852  23.066  0.00  0.00    +0.000 A 
ATOM     20  C   UNL     1      -3.137  12.957  23.192  0.00  0.00    +0.000 A 
ATOM     21  C   UNL     1      -2.718  14.212  22.750  0.00  0.00    +0.000 A 
ATOM     22  C   UNL     1      -1.450  14.368  22.197  0.00  0.00    +0.000 A 
ATOM     23  C   UNL     1      -0.607  13.263  22.066  0.00  0.00    +0.000 A 
ENDBRANCH  15  18
ENDBRANCH   8  13
TORSDOF 2
ENDMDL
