MODEL 1
REMARK VINA RESULT:      -8.2      0.000      0.000
REMARK  Name = 
REMARK  3 active torsions:
REMARK  status: ('A' for Active; 'I' for Inactive)
REMARK    1  A    between atoms: C_5  and  C_6
REMARK    2  A    between atoms: C_9  and  C_10
REMARK    3  A    between atoms: C_10  and  N_11
REMARK                            x       y       z     vdW  Elec       q    Type
REMARK                         _______ _______ _______ _____ _____    ______ ____
ROOT
ATOM      1  C   UNL     1       8.055   8.172  18.200  0.00  0.00    +0.000 A 
ATOM      2  N   UNL     1       8.318   7.094  18.908  0.00  0.00    +0.000 NA
ATOM      3  N   UNL     1       7.723   6.037  18.255  0.00  0.00    +0.000 NA
ATOM      4  C   UNL     1       7.137   6.546  17.193  0.00  0.00    +0.000 A 
ATOM      5  O   UNL     1       7.257   7.909  17.115  0.00  0.00    +0.000 OA
ENDROOT
BRANCH   1  10
ATOM      6 BR   UNL     1      10.126  13.896  19.095  0.00  0.00    +0.000 Br
ATOM      7  C   UNL     1       9.518  12.132  18.782  0.00  0.00    +0.000 A 
ATOM      8  C   UNL     1       9.901  11.109  19.643  0.00  0.00    +0.000 A 
ATOM      9  C   UNL     1       9.413   9.816  19.436  0.00  0.00    +0.000 A 
ATOM     10  C   UNL     1       8.544   9.535  18.368  0.00  0.00    +0.000 A 
ATOM     11  C   UNL     1       8.197  10.575  17.491  0.00  0.00    +0.000 A 
ATOM     12  C   UNL     1       8.679  11.871  17.699  0.00  0.00    +0.000 A 
ENDBRANCH   1  10
BRANCH   4  13
ATOM     13  C   UNL     1       6.457   5.839  16.065  0.00  0.00    +0.000 C 
BRANCH  13  14
ATOM     14  N   UNL     1       5.006   5.636  16.230  0.00  0.00    +0.000 NA
ATOM     15  C   UNL     1       4.320   6.702  16.970  0.00  0.00    +0.000 C 
ATOM     16  C   UNL     1       3.863   6.355  18.395  0.00  0.00    +0.000 C 
ATOM     17  C   UNL     1       3.081   5.072  18.386  0.00  0.00    +0.000 A 
ATOM     18  C   UNL     1       2.044   4.843  19.296  0.00  0.00    +0.000 A 
ATOM     19  C   UNL     1       1.320   3.652  19.244  0.00  0.00    +0.000 A 
ATOM     20  C   UNL     1       1.633   2.684  18.291  0.00  0.00    +0.000 A 
ATOM     21  C   UNL     1       2.691   2.893  17.405  0.00  0.00    +0.000 A 
ATOM     22  C   UNL     1       3.424   4.086  17.448  0.00  0.00    +0.000 A 
ATOM     23  C   UNL     1       4.654   4.258  16.588  0.00  0.00    +0.000 C 
ENDBRANCH  13  14
ENDBRANCH   4  13
TORSDOF 3
ENDMDL
MODEL 2
REMARK VINA RESULT:      -8.2      0.080      1.011
REMARK  Name = 
REMARK  3 active torsions:
REMARK  status: ('A' for Active; 'I' for Inactive)
REMARK    1  A    between atoms: C_5  and  C_6
REMARK    2  A    between atoms: C_9  and  C_10
REMARK    3  A    between atoms: C_10  and  N_11
REMARK                            x       y       z     vdW  Elec       q    Type
REMARK                         _______ _______ _______ _____ _____    ______ ____
ROOT
ATOM      1  C   UNL     1       8.052   8.156  18.197  0.00  0.00    +0.000 A 
ATOM      2  N   UNL     1       8.314   7.061  18.877  0.00  0.00    +0.000 NA
ATOM      3  N   UNL     1       7.700   6.024  18.208  0.00  0.00    +0.000 NA
ATOM      4  C   UNL     1       7.105   6.561  17.166  0.00  0.00    +0.000 A 
ATOM      5  O   UNL     1       7.237   7.925  17.117  0.00  0.00    +0.000 OA
ENDROOT
BRANCH   1  10
ATOM      6 BR   UNL     1      10.162  13.901  18.823  0.00  0.00    +0.000 Br
ATOM      7  C   UNL     1       9.486  12.142  18.670  0.00  0.00    +0.000 A 
ATOM      8  C   UNL     1       8.604  11.831  17.640  0.00  0.00    +0.000 A 
ATOM      9  C   UNL     1       8.143  10.518  17.501  0.00  0.00    +0.000 A 
ATOM     10  C   UNL     1       8.555   9.511  18.389  0.00  0.00    +0.000 A 
ATOM     11  C   UNL     1       9.418   9.854  19.441  0.00  0.00    +0.000 A 
ATOM     12  C   UNL     1       9.886  11.164  19.580  0.00  0.00    +0.000 A 
ENDBRANCH   1  10
BRANCH   4  13
ATOM     13  C   UNL     1       6.404   5.887  16.031  0.00  0.00    +0.000 C 
BRANCH  13  14
ATOM     14  N   UNL     1       4.958   5.674  16.220  0.00  0.00    +0.000 NA
ATOM     15  C   UNL     1       4.278   6.732  16.977  0.00  0.00    +0.000 C 
ATOM     16  C   UNL     1       3.847   6.376  18.408  0.00  0.00    +0.000 C 
ATOM     17  C   UNL     1       3.073   5.088  18.405  0.00  0.00    +0.000 A 
ATOM     18  C   UNL     1       2.053   4.848  19.332  0.00  0.00    +0.000 A 
ATOM     19  C   UNL     1       1.336   3.653  19.287  0.00  0.00    +0.000 A 
ATOM     20  C   UNL     1       1.638   2.692  18.324  0.00  0.00    +0.000 A 
ATOM     21  C   UNL     1       2.680   2.911  17.421  0.00  0.00    +0.000 A 
ATOM     22  C   UNL     1       3.406   4.108  17.457  0.00  0.00    +0.000 A 
ATOM     23  C   UNL     1       4.621   4.292  16.578  0.00  0.00    +0.000 C 
ENDBRANCH  13  14
ENDBRANCH   4  13
TORSDOF 3
ENDMDL
MODEL 3
REMARK VINA RESULT:      -7.9      1.460      1.809
REMARK  Name = 
REMARK  3 active torsions:
REMARK  status: ('A' for Active; 'I' for Inactive)
REMARK    1  A    between atoms: C_5  and  C_6
REMARK    2  A    between atoms: C_9  and  C_10
REMARK    3  A    between atoms: C_10  and  N_11
REMARK                            x       y       z     vdW  Elec       q    Type
REMARK                         _______ _______ _______ _____ _____    ______ ____
ROOT
ATOM      1  C   UNL     1       8.313   8.656  18.103  0.00  0.00    +0.000 A 
ATOM      2  N   UNL     1       7.864   8.382  16.896  0.00  0.00    +0.000 NA
ATOM      3  N   UNL     1       7.283   7.135  16.965  0.00  0.00    +0.000 NA
ATOM      4  C   UNL     1       7.420   6.734  18.209  0.00  0.00    +0.000 A 
ATOM      5  O   UNL     1       8.114   7.624  18.987  0.00  0.00    +0.000 OA
ENDROOT
BRANCH   1  10
ATOM      6 BR   UNL     1      10.852  13.890  20.105  0.00  0.00    +0.000 Br
ATOM      7  C   UNL     1      10.032  12.291  19.516  0.00  0.00    +0.000 A 
ATOM      8  C   UNL     1       9.578  12.192  18.205  0.00  0.00    +0.000 A 
ATOM      9  C   UNL     1       9.015  10.993  17.759  0.00  0.00    +0.000 A 
ATOM     10  C   UNL     1       8.899   9.887  18.618  0.00  0.00    +0.000 A 
ATOM     11  C   UNL     1       9.333  10.018  19.946  0.00  0.00    +0.000 A 
ATOM     12  C   UNL     1       9.902  11.215  20.394  0.00  0.00    +0.000 A 
ENDBRANCH   1  10
BRANCH   4  13
ATOM     13  C   UNL     1       6.861   5.517  18.873  0.00  0.00    +0.000 C 
BRANCH  13  14
ATOM     14  N   UNL     1       5.547   5.072  18.372  0.00  0.00    +0.000 NA
ATOM     15  C   UNL     1       4.505   6.106  18.389  0.00  0.00    +0.000 C 
ATOM     16  C   UNL     1       3.412   5.953  19.457  0.00  0.00    +0.000 C 
ATOM     17  C   UNL     1       2.839   4.565  19.410  0.00  0.00    +0.000 A 
ATOM     18  C   UNL     1       1.502   4.316  19.739  0.00  0.00    +0.000 A 
ATOM     19  C   UNL     1       0.993   3.020  19.660  0.00  0.00    +0.000 A 
ATOM     20  C   UNL     1       1.817   1.968  19.261  0.00  0.00    +0.000 A 
ATOM     21  C   UNL     1       3.160   2.206  18.967  0.00  0.00    +0.000 A 
ATOM     22  C   UNL     1       3.681   3.504  19.043  0.00  0.00    +0.000 A 
ATOM     23  C   UNL     1       5.162   3.745  18.863  0.00  0.00    +0.000 C 
ENDBRANCH  13  14
ENDBRANCH   4  13
TORSDOF 3
ENDMDL
MODEL 4
REMARK VINA RESULT:      -7.9      1.115      2.145
REMARK  Name = 
REMARK  3 active torsions:
REMARK  status: ('A' for Active; 'I' for Inactive)
REMARK    1  A    between atoms: C_5  and  C_6
REMARK    2  A    between atoms: C_9  and  C_10
REMARK    3  A    between atoms: C_10  and  N_11
REMARK                            x       y       z     vdW  Elec       q    Type
REMARK                         _______ _______ _______ _____ _____    ______ ____
ROOT
ATOM      1  C   UNL     1       7.788   8.365  17.602  0.00  0.00    +0.000 A 
ATOM      2  N   UNL     1       8.304   7.462  16.797  0.00  0.00    +0.000 NA
ATOM      3  N   UNL     1       7.288   6.585  16.484  0.00  0.00    +0.000 NA
ATOM      4  C   UNL     1       6.222   7.016  17.121  0.00  0.00    +0.000 A 
ATOM      5  O   UNL     1       6.471   8.117  17.900  0.00  0.00    +0.000 OA
ENDROOT
BRANCH   1  10
ATOM      6 BR   UNL     1      10.318  13.578  19.671  0.00  0.00    +0.000 Br
ATOM      7  C   UNL     1       9.510  11.977  19.072  0.00  0.00    +0.000 A 
ATOM      8  C   UNL     1       8.724  11.990  17.924  0.00  0.00    +0.000 A 
ATOM      9  C   UNL     1       8.165  10.796  17.458  0.00  0.00    +0.000 A 
ATOM     10  C   UNL     1       8.385   9.584  18.134  0.00  0.00    +0.000 A 
ATOM     11  C   UNL     1       9.153   9.599  19.308  0.00  0.00    +0.000 A 
ATOM     12  C   UNL     1       9.718  10.790  19.775  0.00  0.00    +0.000 A 
ENDBRANCH   1  10
BRANCH   4  13
ATOM     13  C   UNL     1       4.813   6.525  17.038  0.00  0.00    +0.000 C 
BRANCH  13  14
ATOM     14  N   UNL     1       4.513   5.330  17.847  0.00  0.00    +0.000 NA
ATOM     15  C   UNL     1       4.151   4.139  17.068  0.00  0.00    +0.000 C 
ATOM     16  C   UNL     1       2.672   3.725  17.105  0.00  0.00    +0.000 C 
ATOM     17  C   UNL     1       2.198   3.642  18.529  0.00  0.00    +0.000 A 
ATOM     18  C   UNL     1       1.211   2.729  18.917  0.00  0.00    +0.000 A 
ATOM     19  C   UNL     1       0.812   2.659  20.251  0.00  0.00    +0.000 A 
ATOM     20  C   UNL     1       1.388   3.503  21.199  0.00  0.00    +0.000 A 
ATOM     21  C   UNL     1       2.345   4.441  20.810  0.00  0.00    +0.000 A 
ATOM     22  C   UNL     1       2.754   4.519  19.472  0.00  0.00    +0.000 A 
ATOM     23  C   UNL     1       3.683   5.622  19.021  0.00  0.00    +0.000 C 
ENDBRANCH  13  14
ENDBRANCH   4  13
TORSDOF 3
ENDMDL
MODEL 5
REMARK VINA RESULT:      -7.8      1.034      1.846
REMARK  Name = 
REMARK  3 active torsions:
REMARK  status: ('A' for Active; 'I' for Inactive)
REMARK    1  A    between atoms: C_5  and  C_6
REMARK    2  A    between atoms: C_9  and  C_10
REMARK    3  A    between atoms: C_10  and  N_11
REMARK                            x       y       z     vdW  Elec       q    Type
REMARK                         _______ _______ _______ _____ _____    ______ ____
ROOT
ATOM      1  C   UNL     1       7.854   8.562  17.653  0.00  0.00    +0.000 A 
ATOM      2  N   UNL     1       8.401   7.639  16.892  0.00  0.00    +0.000 NA
ATOM      3  N   UNL     1       7.397   6.756  16.559  0.00  0.00    +0.000 NA
ATOM      4  C   UNL     1       6.307   7.203  17.142  0.00  0.00    +0.000 A 
ATOM      5  O   UNL     1       6.526   8.322  17.903  0.00  0.00    +0.000 OA
ENDROOT
BRANCH   1  10
ATOM      6 BR   UNL     1      10.268  13.690  20.046  0.00  0.00    +0.000 Br
ATOM      7  C   UNL     1       9.560  12.115  19.276  0.00  0.00    +0.000 A 
ATOM      8  C   UNL     1       9.725  10.897  19.926  0.00  0.00    +0.000 A 
ATOM      9  C   UNL     1       9.160   9.741  19.378  0.00  0.00    +0.000 A 
ATOM     10  C   UNL     1       8.430   9.794  18.179  0.00  0.00    +0.000 A 
ATOM     11  C   UNL     1       8.304  11.027  17.522  0.00  0.00    +0.000 A 
ATOM     12  C   UNL     1       8.863  12.187  18.070  0.00  0.00    +0.000 A 
ENDBRANCH   1  10
BRANCH   4  13
ATOM     13  C   UNL     1       4.902   6.710  17.013  0.00  0.00    +0.000 C 
BRANCH  13  14
ATOM     14  N   UNL     1       4.541   5.593  17.905  0.00  0.00    +0.000 NA
ATOM     15  C   UNL     1       4.586   4.268  17.273  0.00  0.00    +0.000 C 
ATOM     16  C   UNL     1       3.230   3.607  16.982  0.00  0.00    +0.000 C 
ATOM     17  C   UNL     1       2.376   3.622  18.218  0.00  0.00    +0.000 A 
ATOM     18  C   UNL     1       1.451   2.605  18.478  0.00  0.00    +0.000 A 
ATOM     19  C   UNL     1       0.691   2.634  19.647  0.00  0.00    +0.000 A 
ATOM     20  C   UNL     1       0.846   3.680  20.556  0.00  0.00    +0.000 A 
ATOM     21  C   UNL     1       1.741   4.716  20.283  0.00  0.00    +0.000 A 
ATOM     22  C   UNL     1       2.509   4.695  19.112  0.00  0.00    +0.000 A 
ATOM     23  C   UNL     1       3.373   5.880  18.744  0.00  0.00    +0.000 C 
ENDBRANCH  13  14
ENDBRANCH   4  13
TORSDOF 3
ENDMDL
MODEL 6
REMARK VINA RESULT:      -7.8      1.066      1.913
REMARK  Name = 
REMARK  3 active torsions:
REMARK  status: ('A' for Active; 'I' for Inactive)
REMARK    1  A    between atoms: C_5  and  C_6
REMARK    2  A    between atoms: C_9  and  C_10
REMARK    3  A    between atoms: C_10  and  N_11
REMARK                            x       y       z     vdW  Elec       q    Type
REMARK                         _______ _______ _______ _____ _____    ______ ____
ROOT
ATOM      1  C   UNL     1       8.461   9.495  18.191  0.00  0.00    +0.000 A 
ATOM      2  N   UNL     1       8.960   8.507  18.902  0.00  0.00    +0.000 NA
ATOM      3  N   UNL     1       8.216   7.388  18.602  0.00  0.00    +0.000 NA
ATOM      4  C   UNL     1       7.312   7.772  17.727  0.00  0.00    +0.000 A 
ATOM      5  O   UNL     1       7.368   9.114  17.453  0.00  0.00    +0.000 OA
ENDROOT
BRANCH   1  10
ATOM      6 BR   UNL     1      10.627  15.228  17.652  0.00  0.00    +0.000 Br
ATOM      7  C   UNL     1       9.957  13.464  17.770  0.00  0.00    +0.000 A 
ATOM      8  C   UNL     1      10.813  12.424  18.119  0.00  0.00    +0.000 A 
ATOM      9  C   UNL     1      10.305  11.128  18.250  0.00  0.00    +0.000 A 
ATOM     10  C   UNL     1       8.943  10.861  18.032  0.00  0.00    +0.000 A 
ATOM     11  C   UNL     1       8.104  11.918  17.648  0.00  0.00    +0.000 A 
ATOM     12  C   UNL     1       8.607  13.217  17.521  0.00  0.00    +0.000 A 
ENDBRANCH   1  10
BRANCH   4  13
ATOM     13  C   UNL     1       6.330   6.944  16.964  0.00  0.00    +0.000 C 
BRANCH  13  14
ATOM     14  N   UNL     1       5.701   5.849  17.725  0.00  0.00    +0.000 NA
ATOM     15  C   UNL     1       5.911   4.511  17.158  0.00  0.00    +0.000 C 
ATOM     16  C   UNL     1       4.694   3.858  16.486  0.00  0.00    +0.000 C 
ATOM     17  C   UNL     1       3.510   3.907  17.410  0.00  0.00    +0.000 A 
ATOM     18  C   UNL     1       2.534   2.905  17.399  0.00  0.00    +0.000 A 
ATOM     19  C   UNL     1       1.461   2.966  18.287  0.00  0.00    +0.000 A 
ATOM     20  C   UNL     1       1.354   4.029  19.183  0.00  0.00    +0.000 A 
ATOM     21  C   UNL     1       2.306   5.050  19.173  0.00  0.00    +0.000 A 
ATOM     22  C   UNL     1       3.388   4.997  18.285  0.00  0.00    +0.000 A 
ATOM     23  C   UNL     1       4.341   6.165  18.173  0.00  0.00    +0.000 C 
ENDBRANCH  13  14
ENDBRANCH   4  13
TORSDOF 3
ENDMDL
MODEL 7
REMARK VINA RESULT:      -7.8      1.424      1.501
REMARK  Name = 
REMARK  3 active torsions:
REMARK  status: ('A' for Active; 'I' for Inactive)
REMARK    1  A    between atoms: C_5  and  C_6
REMARK    2  A    between atoms: C_9  and  C_10
REMARK    3  A    between atoms: C_10  and  N_11
REMARK                            x       y       z     vdW  Elec       q    Type
REMARK                         _______ _______ _______ _____ _____    ______ ____
ROOT
ATOM      1  C   UNL     1       8.180   8.287  17.908  0.00  0.00    +0.000 A 
ATOM      2  N   UNL     1       7.966   7.828  16.694  0.00  0.00    +0.000 NA
ATOM      3  N   UNL     1       7.430   6.567  16.837  0.00  0.00    +0.000 NA
ATOM      4  C   UNL     1       7.355   6.345  18.131  0.00  0.00    +0.000 A 
ATOM      5  O   UNL     1       7.864   7.373  18.882  0.00  0.00    +0.000 OA
ENDROOT
BRANCH   1  10
ATOM      6 BR   UNL     1      10.001  13.817  19.895  0.00  0.00    +0.000 Br
ATOM      7  C   UNL     1       9.477  12.118  19.252  0.00  0.00    +0.000 A 
ATOM      8  C   UNL     1       9.694  10.989  20.035  0.00  0.00    +0.000 A 
ATOM      9  C   UNL     1       9.264   9.740  19.577  0.00  0.00    +0.000 A 
ATOM     10  C   UNL     1       8.618   9.610  18.336  0.00  0.00    +0.000 A 
ATOM     11  C   UNL     1       8.440  10.756  17.547  0.00  0.00    +0.000 A 
ATOM     12  C   UNL     1       8.864  12.009  18.004  0.00  0.00    +0.000 A 
ENDBRANCH   1  10
BRANCH   4  13
ATOM     13  C   UNL     1       6.731   5.195  18.854  0.00  0.00    +0.000 C 
BRANCH  13  14
ATOM     14  N   UNL     1       5.372   4.833  18.411  0.00  0.00    +0.000 NA
ATOM     15  C   UNL     1       4.401   5.934  18.458  0.00  0.00    +0.000 C 
ATOM     16  C   UNL     1       3.345   5.863  19.571  0.00  0.00    +0.000 C 
ATOM     17  C   UNL     1       2.681   4.515  19.563  0.00  0.00    +0.000 A 
ATOM     18  C   UNL     1       1.345   4.358  19.948  0.00  0.00    +0.000 A 
ATOM     19  C   UNL     1       0.750   3.097  19.905  0.00  0.00    +0.000 A 
ATOM     20  C   UNL     1       1.486   1.990  19.485  0.00  0.00    +0.000 A 
ATOM     21  C   UNL     1       2.829   2.136  19.135  0.00  0.00    +0.000 A 
ATOM     22  C   UNL     1       3.436   3.398  19.175  0.00  0.00    +0.000 A 
ATOM     23  C   UNL     1       4.921   3.539  18.934  0.00  0.00    +0.000 C 
ENDBRANCH  13  14
ENDBRANCH   4  13
TORSDOF 3
ENDMDL
MODEL 8
REMARK VINA RESULT:      -7.8      1.430      2.025
REMARK  Name = 
REMARK  3 active torsions:
REMARK  status: ('A' for Active; 'I' for Inactive)
REMARK    1  A    between atoms: C_5  and  C_6
REMARK    2  A    between atoms: C_9  and  C_10
REMARK    3  A    between atoms: C_10  and  N_11
REMARK                            x       y       z     vdW  Elec       q    Type
REMARK                         _______ _______ _______ _____ _____    ______ ____
ROOT
ATOM      1  C   UNL     1       8.076   8.833  17.993  0.00  0.00    +0.000 A 
ATOM      2  N   UNL     1       7.068   8.586  17.184  0.00  0.00    +0.000 NA
ATOM      3  N   UNL     1       6.867   7.223  17.209  0.00  0.00    +0.000 NA
ATOM      4  C   UNL     1       7.767   6.734  18.033  0.00  0.00    +0.000 A 
ATOM      5  O   UNL     1       8.612   7.691  18.534  0.00  0.00    +0.000 OA
ENDROOT
BRANCH   1  10
ATOM      6 BR   UNL     1      10.368  14.171  20.019  0.00  0.00    +0.000 Br
ATOM      7  C   UNL     1       9.696  12.530  19.361  0.00  0.00    +0.000 A 
ATOM      8  C   UNL     1       9.898  11.363  20.090  0.00  0.00    +0.000 A 
ATOM      9  C   UNL     1       9.361  10.158  19.625  0.00  0.00    +0.000 A 
ATOM     10  C   UNL     1       8.623  10.111  18.431  0.00  0.00    +0.000 A 
ATOM     11  C   UNL     1       8.460  11.294  17.694  0.00  0.00    +0.000 A 
ATOM     12  C   UNL     1       8.991  12.502  18.159  0.00  0.00    +0.000 A 
ENDBRANCH   1  10
BRANCH   4  13
ATOM     13  C   UNL     1       7.922   5.335  18.535  0.00  0.00    +0.000 C 
BRANCH  13  14
ATOM     14  N   UNL     1       6.676   4.550  18.612  0.00  0.00    +0.000 NA
ATOM     15  C   UNL     1       6.196   4.036  17.323  0.00  0.00    +0.000 C 
ATOM     16  C   UNL     1       4.951   4.721  16.738  0.00  0.00    +0.000 C 
ATOM     17  C   UNL     1       3.863   4.776  17.772  0.00  0.00    +0.000 A 
ATOM     18  C   UNL     1       2.512   4.716  17.413  0.00  0.00    +0.000 A 
ATOM     19  C   UNL     1       1.525   4.743  18.398  0.00  0.00    +0.000 A 
ATOM     20  C   UNL     1       1.882   4.838  19.743  0.00  0.00    +0.000 A 
ATOM     21  C   UNL     1       3.227   4.934  20.103  0.00  0.00    +0.000 A 
ATOM     22  C   UNL     1       4.226   4.907  19.121  0.00  0.00    +0.000 A 
ATOM     23  C   UNL     1       5.669   5.153  19.493  0.00  0.00    +0.000 C 
ENDBRANCH  13  14
ENDBRANCH   4  13
TORSDOF 3
ENDMDL
MODEL 9
REMARK VINA RESULT:      -7.7      4.600      5.308
REMARK  Name = 
REMARK  3 active torsions:
REMARK  status: ('A' for Active; 'I' for Inactive)
REMARK    1  A    between atoms: C_5  and  C_6
REMARK    2  A    between atoms: C_9  and  C_10
REMARK    3  A    between atoms: C_10  and  N_11
REMARK                            x       y       z     vdW  Elec       q    Type
REMARK                         _______ _______ _______ _____ _____    ______ ____
ROOT
ATOM      1  C   UNL     1       3.740   7.234  17.388  0.00  0.00    +0.000 A 
ATOM      2  N   UNL     1       4.425   7.626  16.334  0.00  0.00    +0.000 NA
ATOM      3  N   UNL     1       5.078   6.513  15.852  0.00  0.00    +0.000 NA
ATOM      4  C   UNL     1       4.747   5.519  16.647  0.00  0.00    +0.000 A 
ATOM      5  O   UNL     1       3.938   5.908  17.683  0.00  0.00    +0.000 OA
ENDROOT
BRANCH   1  10
ATOM      6 BR   UNL     1      -0.363  10.193  20.889  0.00  0.00    +0.000 Br
ATOM      7  C   UNL     1       0.930   9.319  19.822  0.00  0.00    +0.000 A 
ATOM      8  C   UNL     1       1.517   8.143  20.277  0.00  0.00    +0.000 A 
ATOM      9  C   UNL     1       2.438   7.473  19.466  0.00  0.00    +0.000 A 
ATOM     10  C   UNL     1       2.781   7.974  18.199  0.00  0.00    +0.000 A 
ATOM     11  C   UNL     1       2.203   9.180  17.773  0.00  0.00    +0.000 A 
ATOM     12  C   UNL     1       1.277   9.849  18.580  0.00  0.00    +0.000 A 
ENDBRANCH   1  10
BRANCH   4  13
ATOM     13  C   UNL     1       5.061   4.064  16.515  0.00  0.00    +0.000 C 
BRANCH  13  14
ATOM     14  N   UNL     1       4.234   3.163  17.338  0.00  0.00    +0.000 NA
ATOM     15  C   UNL     1       2.841   3.035  16.893  0.00  0.00    +0.000 C 
ATOM     16  C   UNL     1       1.781   3.728  17.764  0.00  0.00    +0.000 C 
ATOM     17  C   UNL     1       1.960   3.330  19.201  0.00  0.00    +0.000 A 
ATOM     18  C   UNL     1       0.870   3.239  20.074  0.00  0.00    +0.000 A 
ATOM     19  C   UNL     1       1.065   2.842  21.396  0.00  0.00    +0.000 A 
ATOM     20  C   UNL     1       2.348   2.543  21.855  0.00  0.00    +0.000 A 
ATOM     21  C   UNL     1       3.442   2.669  20.998  0.00  0.00    +0.000 A 
ATOM     22  C   UNL     1       3.257   3.066  19.668  0.00  0.00    +0.000 A 
ATOM     23  C   UNL     1       4.448   3.339  18.779  0.00  0.00    +0.000 C 
ENDBRANCH  13  14
ENDBRANCH   4  13
TORSDOF 3
ENDMDL
