MODEL 1
REMARK VINA RESULT:      -7.9      0.000      0.000
REMARK  Name = 
REMARK  13 active torsions:
REMARK  status: ('A' for Active; 'I' for Inactive)
REMARK    1  A    between atoms: C_1  and  O_2
REMARK    2  A    between atoms: O_2  and  C_3
REMARK    3  A    between atoms: C_6  and  C_7
REMARK    4  A    between atoms: C_7  and  C_8
REMARK    5  A    between atoms: C_8  and  N_9
REMARK    6  A    between atoms: C_10  and  C_12
REMARK    7  A    between atoms: C_17  and  N_18
REMARK    8  A    between atoms: N_18  and  S_19
REMARK    9  A    between atoms: S_19  and  C_22
REMARK   10  A    between atoms: C_24  and  C_25
REMARK   11  A    between atoms: C_25  and  O_27
REMARK   12  A    between atoms: C_30  and  O_31
REMARK   13  A    between atoms: O_31  and  C_32
REMARK                            x       y       z     vdW  Elec       q    Type
REMARK                         _______ _______ _______ _____ _____    ______ ____
ROOT
ATOM      1  C   UNL     1       2.233   5.750  19.037  0.00  0.00    +0.000 A 
ATOM      2  C   UNL     1       1.584   5.763  20.291  0.00  0.00    +0.000 A 
ATOM      3  C   UNL     1       1.255   4.584  20.953  0.00  0.00    +0.000 A 
ATOM      4  C   UNL     1       1.525   3.359  20.362  0.00  0.00    +0.000 A 
ATOM      5  C   UNL     1       2.140   3.319  19.107  0.00  0.00    +0.000 A 
ATOM      6  C   UNL     1       2.501   4.497  18.439  0.00  0.00    +0.000 A 
ENDROOT
BRANCH   1   8
ATOM      7  N   UNL     1       1.674   8.032  18.291  0.00  0.00    +0.000 N 
ATOM      8  C   UNL     1       2.650   7.048  18.401  0.00  0.00    +0.000 C 
ATOM      9  O   UNL     1       3.802   7.231  18.026  0.00  0.00    +0.000 OA
ATOM     10  H   UNL     1       0.780   7.911  18.742  0.00  0.00    +0.000 HD
BRANCH   7  11
ATOM     11  C   UNL     1       1.983   9.394  17.888  0.00  0.00    +0.000 C 
BRANCH  11  12
ATOM     12  C   UNL     1       1.294  10.449  18.762  0.00  0.00    +0.000 C 
BRANCH  12  16
ATOM     13  C   UNL     1      -2.971  10.981  18.208  0.00  0.00    +0.000 A 
ATOM     14  C   UNL     1      -2.277  10.034  17.451  0.00  0.00    +0.000 A 
ATOM     15  C   UNL     1      -0.895   9.873  17.602  0.00  0.00    +0.000 A 
ATOM     16  C   UNL     1      -0.180  10.675  18.502  0.00  0.00    +0.000 A 
ATOM     17  C   UNL     1      -0.880  11.647  19.231  0.00  0.00    +0.000 A 
ATOM     18  C   UNL     1      -2.264  11.802  19.085  0.00  0.00    +0.000 A 
BRANCH  13  20
ATOM     19  C   UNL     1      -4.740  11.746  16.835  0.00  0.00    +0.000 C 
ATOM     20  O   UNL     1      -4.321  11.030  17.995  0.00  0.00    +0.000 OA
ENDBRANCH  13  20
ENDBRANCH  12  16
ENDBRANCH  11  12
ENDBRANCH   7  11
ENDBRANCH   1   8
BRANCH   6  21
ATOM     21  N   UNL     1       3.197   4.348  17.181  0.00  0.00    +0.000 N 
ATOM     22  H   UNL     1       3.292   5.238  16.691  0.00  0.00    +0.000 HD
BRANCH  21  23
ATOM     23  S   UNL     1       4.762   3.673  17.243  0.00  0.00    +0.000 S 
ATOM     24  O   UNL     1       5.389   4.253  18.411  0.00  0.00    +0.000 OA
ATOM     25  O   UNL     1       4.666   2.231  17.130  0.00  0.00    +0.000 OA
BRANCH  23  26
ATOM     26  C   UNL     1       5.609   4.288  15.800  0.00  0.00    +0.000 A 
ATOM     27  C   UNL     1       5.188   3.740  14.568  0.00  0.00    +0.000 A 
ATOM     28  C   UNL     1       5.955   3.886  13.406  0.00  0.00    +0.000 A 
ATOM     29  C   UNL     1       7.111   4.664  13.441  0.00  0.00    +0.000 A 
ATOM     30  C   UNL     1       7.516   5.235  14.652  0.00  0.00    +0.000 A 
ATOM     31  C   UNL     1       6.791   5.040  15.844  0.00  0.00    +0.000 A 
BRANCH  28  32
ATOM     32  C   UNL     1       5.521   3.158  12.182  0.00  0.00    +0.000 C 
ATOM     33  O   UNL     1       4.501   3.431  11.573  0.00  0.00    +0.000 OA
BRANCH  32  34
ATOM     34  O   UNL     1       6.321   2.124  11.842  0.00  0.00    +0.000 OA
ATOM     35  H   UNL     1       6.071   1.258  12.210  0.00  0.00    +0.000 HD
ENDBRANCH  32  34
ENDBRANCH  28  32
BRANCH  31  36
ATOM     36  O   UNL     1       7.469   5.484  16.944  0.00  0.00    +0.000 OA
ATOM     37  C   UNL     1       7.416   6.876  17.225  0.00  0.00    +0.000 C 
ENDBRANCH  31  36
ENDBRANCH  23  26
ENDBRANCH  21  23
ENDBRANCH   6  21
TORSDOF 11
ENDMDL
MODEL 2
REMARK VINA RESULT:      -7.9      1.313      1.444
REMARK  Name = 
REMARK  13 active torsions:
REMARK  status: ('A' for Active; 'I' for Inactive)
REMARK    1  A    between atoms: C_1  and  O_2
REMARK    2  A    between atoms: O_2  and  C_3
REMARK    3  A    between atoms: C_6  and  C_7
REMARK    4  A    between atoms: C_7  and  C_8
REMARK    5  A    between atoms: C_8  and  N_9
REMARK    6  A    between atoms: C_10  and  C_12
REMARK    7  A    between atoms: C_17  and  N_18
REMARK    8  A    between atoms: N_18  and  S_19
REMARK    9  A    between atoms: S_19  and  C_22
REMARK   10  A    between atoms: C_24  and  C_25
REMARK   11  A    between atoms: C_25  and  O_27
REMARK   12  A    between atoms: C_30  and  O_31
REMARK   13  A    between atoms: O_31  and  C_32
REMARK                            x       y       z     vdW  Elec       q    Type
REMARK                         _______ _______ _______ _____ _____    ______ ____
ROOT
ATOM      1  C   UNL     1       2.360   4.874  20.042  0.00  0.00    +0.000 A 
ATOM      2  C   UNL     1       1.539   4.510  21.132  0.00  0.00    +0.000 A 
ATOM      3  C   UNL     1       1.713   3.304  21.803  0.00  0.00    +0.000 A 
ATOM      4  C   UNL     1       2.684   2.409  21.381  0.00  0.00    +0.000 A 
ATOM      5  C   UNL     1       3.491   2.732  20.285  0.00  0.00    +0.000 A 
ATOM      6  C   UNL     1       3.344   3.954  19.613  0.00  0.00    +0.000 A 
ENDROOT
BRANCH   1   8
ATOM      7  N   UNL     1       1.861   7.279  20.247  0.00  0.00    +0.000 N 
ATOM      8  C   UNL     1       2.193   6.226  19.403  0.00  0.00    +0.000 C 
ATOM      9  O   UNL     1       2.370   6.388  18.201  0.00  0.00    +0.000 OA
ATOM     10  H   UNL     1       1.870   7.149  21.248  0.00  0.00    +0.000 HD
BRANCH   7  11
ATOM     11  C   UNL     1       1.867   8.664  19.806  0.00  0.00    +0.000 C 
BRANCH  11  12
ATOM     12  C   UNL     1       0.776   9.511  20.471  0.00  0.00    +0.000 C 
BRANCH  12  16
ATOM     13  C   UNL     1      -2.273  11.196  17.892  0.00  0.00    +0.000 A 
ATOM     14  C   UNL     1      -1.313  10.326  17.370  0.00  0.00    +0.000 A 
ATOM     15  C   UNL     1      -0.307   9.798  18.187  0.00  0.00    +0.000 A 
ATOM     16  C   UNL     1      -0.234  10.150  19.542  0.00  0.00    +0.000 A 
ATOM     17  C   UNL     1      -1.181  11.052  20.048  0.00  0.00    +0.000 A 
ATOM     18  C   UNL     1      -2.192  11.573  19.231  0.00  0.00    +0.000 A 
BRANCH  13  20
ATOM     19  C   UNL     1      -3.341  10.865  15.807  0.00  0.00    +0.000 C 
ATOM     20  O   UNL     1      -3.221  11.627  17.006  0.00  0.00    +0.000 OA
ENDBRANCH  13  20
ENDBRANCH  12  16
ENDBRANCH  11  12
ENDBRANCH   7  11
ENDBRANCH   1   8
BRANCH   6  21
ATOM     21  N   UNL     1       4.275   4.226  18.541  0.00  0.00    +0.000 N 
ATOM     22  H   UNL     1       5.237   4.020  18.812  0.00  0.00    +0.000 HD
BRANCH  21  23
ATOM     23  S   UNL     1       4.012   3.410  17.068  0.00  0.00    +0.000 S 
ATOM     24  O   UNL     1       4.448   2.048  17.295  0.00  0.00    +0.000 OA
ATOM     25  O   UNL     1       2.657   3.656  16.618  0.00  0.00    +0.000 OA
BRANCH  23  26
ATOM     26  C   UNL     1       5.130   4.158  15.897  0.00  0.00    +0.000 A 
ATOM     27  C   UNL     1       5.021   3.689  14.568  0.00  0.00    +0.000 A 
ATOM     28  C   UNL     1       6.021   3.945  13.622  0.00  0.00    +0.000 A 
ATOM     29  C   UNL     1       7.100   4.756  13.967  0.00  0.00    +0.000 A 
ATOM     30  C   UNL     1       7.197   5.249  15.273  0.00  0.00    +0.000 A 
ATOM     31  C   UNL     1       6.235   4.942  16.256  0.00  0.00    +0.000 A 
BRANCH  28  32
ATOM     32  C   UNL     1       5.905   3.296  12.287  0.00  0.00    +0.000 C 
ATOM     33  O   UNL     1       4.844   3.157  11.705  0.00  0.00    +0.000 OA
BRANCH  32  34
ATOM     34  O   UNL     1       7.072   2.815  11.805  0.00  0.00    +0.000 OA
ATOM     35  H   UNL     1       7.611   2.307  12.436  0.00  0.00    +0.000 HD
ENDBRANCH  32  34
ENDBRANCH  28  32
BRANCH  31  36
ATOM     36  O   UNL     1       6.628   5.325  17.507  0.00  0.00    +0.000 OA
ATOM     37  C   UNL     1       7.830   4.761  18.013  0.00  0.00    +0.000 C 
ENDBRANCH  31  36
ENDBRANCH  23  26
ENDBRANCH  21  23
ENDBRANCH   6  21
TORSDOF 11
ENDMDL
MODEL 3
REMARK VINA RESULT:      -7.8      3.611      8.456
REMARK  Name = 
REMARK  13 active torsions:
REMARK  status: ('A' for Active; 'I' for Inactive)
REMARK    1  A    between atoms: C_1  and  O_2
REMARK    2  A    between atoms: O_2  and  C_3
REMARK    3  A    between atoms: C_6  and  C_7
REMARK    4  A    between atoms: C_7  and  C_8
REMARK    5  A    between atoms: C_8  and  N_9
REMARK    6  A    between atoms: C_10  and  C_12
REMARK    7  A    between atoms: C_17  and  N_18
REMARK    8  A    between atoms: N_18  and  S_19
REMARK    9  A    between atoms: S_19  and  C_22
REMARK   10  A    between atoms: C_24  and  C_25
REMARK   11  A    between atoms: C_25  and  O_27
REMARK   12  A    between atoms: C_30  and  O_31
REMARK   13  A    between atoms: O_31  and  C_32
REMARK                            x       y       z     vdW  Elec       q    Type
REMARK                         _______ _______ _______ _____ _____    ______ ____
ROOT
ATOM      1  C   UNL     1       6.433   5.592  15.739  0.00  0.00    +0.000 A 
ATOM      2  C   UNL     1       7.496   5.429  14.823  0.00  0.00    +0.000 A 
ATOM      3  C   UNL     1       7.392   4.568  13.735  0.00  0.00    +0.000 A 
ATOM      4  C   UNL     1       6.242   3.814  13.554  0.00  0.00    +0.000 A 
ATOM      5  C   UNL     1       5.188   3.935  14.464  0.00  0.00    +0.000 A 
ATOM      6  C   UNL     1       5.267   4.817  15.552  0.00  0.00    +0.000 A 
ENDROOT
BRANCH   1   8
ATOM      7  N   UNL     1       7.843   6.894  17.287  0.00  0.00    +0.000 N 
ATOM      8  C   UNL     1       6.557   6.600  16.850  0.00  0.00    +0.000 C 
ATOM      9  O   UNL     1       5.569   7.152  17.320  0.00  0.00    +0.000 OA
ATOM     10  H   UNL     1       8.643   6.541  16.783  0.00  0.00    +0.000 HD
BRANCH   7  11
ATOM     11  C   UNL     1       8.125   7.987  18.203  0.00  0.00    +0.000 C 
BRANCH  11  12
ATOM     12  C   UNL     1       8.256   9.342  17.497  0.00  0.00    +0.000 C 
BRANCH  12  16
ATOM     13  C   UNL     1       9.816  12.556  19.950  0.00  0.00    +0.000 A 
ATOM     14  C   UNL     1       9.326  12.824  18.670  0.00  0.00    +0.000 A 
ATOM     15  C   UNL     1       8.845  11.790  17.859  0.00  0.00    +0.000 A 
ATOM     16  C   UNL     1       8.867  10.463  18.310  0.00  0.00    +0.000 A 
ATOM     17  C   UNL     1       9.394  10.200  19.583  0.00  0.00    +0.000 A 
ATOM     18  C   UNL     1       9.867  11.237  20.397  0.00  0.00    +0.000 A 
BRANCH  13  20
ATOM     19  C   UNL     1      11.262  14.427  20.054  0.00  0.00    +0.000 C 
ATOM     20  O   UNL     1      10.234  13.647  20.661  0.00  0.00    +0.000 OA
ENDBRANCH  13  20
ENDBRANCH  12  16
ENDBRANCH  11  12
ENDBRANCH   7  11
ENDBRANCH   1   8
BRANCH   6  21
ATOM     21  N   UNL     1       4.096   4.924  16.392  0.00  0.00    +0.000 N 
ATOM     22  H   UNL     1       3.239   4.720  15.878  0.00  0.00    +0.000 HD
BRANCH  21  23
ATOM     23  S   UNL     1       4.056   3.943  17.786  0.00  0.00    +0.000 S 
ATOM     24  O   UNL     1       3.459   2.693  17.364  0.00  0.00    +0.000 OA
ATOM     25  O   UNL     1       5.367   3.932  18.403  0.00  0.00    +0.000 OA
BRANCH  23  26
ATOM     26  C   UNL     1       2.923   4.743  18.906  0.00  0.00    +0.000 A 
ATOM     27  C   UNL     1       2.616   6.089  18.601  0.00  0.00    +0.000 A 
ATOM     28  C   UNL     1       2.004   6.927  19.542  0.00  0.00    +0.000 A 
ATOM     29  C   UNL     1       1.605   6.403  20.770  0.00  0.00    +0.000 A 
ATOM     30  C   UNL     1       1.879   5.063  21.065  0.00  0.00    +0.000 A 
ATOM     31  C   UNL     1       2.556   4.226  20.155  0.00  0.00    +0.000 A 
BRANCH  28  32
ATOM     32  C   UNL     1       1.846   8.367  19.200  0.00  0.00    +0.000 C 
ATOM     33  O   UNL     1       1.323   9.174  19.948  0.00  0.00    +0.000 OA
BRANCH  32  34
ATOM     34  O   UNL     1       2.273   8.690  17.959  0.00  0.00    +0.000 OA
ATOM     35  H   UNL     1       3.191   8.441  17.752  0.00  0.00    +0.000 HD
ENDBRANCH  32  34
ENDBRANCH  28  32
BRANCH  31  36
ATOM     36  O   UNL     1       2.923   3.037  20.718  0.00  0.00    +0.000 OA
ATOM     37  C   UNL     1       2.078   2.504  21.729  0.00  0.00    +0.000 C 
ENDBRANCH  31  36
ENDBRANCH  23  26
ENDBRANCH  21  23
ENDBRANCH   6  21
TORSDOF 11
ENDMDL
MODEL 4
REMARK VINA RESULT:      -7.8      3.882     11.115
REMARK  Name = 
REMARK  13 active torsions:
REMARK  status: ('A' for Active; 'I' for Inactive)
REMARK    1  A    between atoms: C_1  and  O_2
REMARK    2  A    between atoms: O_2  and  C_3
REMARK    3  A    between atoms: C_6  and  C_7
REMARK    4  A    between atoms: C_7  and  C_8
REMARK    5  A    between atoms: C_8  and  N_9
REMARK    6  A    between atoms: C_10  and  C_12
REMARK    7  A    between atoms: C_17  and  N_18
REMARK    8  A    between atoms: N_18  and  S_19
REMARK    9  A    between atoms: S_19  and  C_22
REMARK   10  A    between atoms: C_24  and  C_25
REMARK   11  A    between atoms: C_25  and  O_27
REMARK   12  A    between atoms: C_30  and  O_31
REMARK   13  A    between atoms: O_31  and  C_32
REMARK                            x       y       z     vdW  Elec       q    Type
REMARK                         _______ _______ _______ _____ _____    ______ ____
ROOT
ATOM      1  C   UNL     1      -0.235  10.012  18.116  0.00  0.00    +0.000 A 
ATOM      2  C   UNL     1      -1.131   9.657  17.084  0.00  0.00    +0.000 A 
ATOM      3  C   UNL     1      -2.346  10.315  16.917  0.00  0.00    +0.000 A 
ATOM      4  C   UNL     1      -2.719  11.318  17.799  0.00  0.00    +0.000 A 
ATOM      5  C   UNL     1      -1.862  11.668  18.847  0.00  0.00    +0.000 A 
ATOM      6  C   UNL     1      -0.624  11.031  19.014  0.00  0.00    +0.000 A 
ENDROOT
BRANCH   1   8
ATOM      7  N   UNL     1       1.270   8.405  19.224  0.00  0.00    +0.000 N 
ATOM      8  C   UNL     1       1.105   9.333  18.203  0.00  0.00    +0.000 C 
ATOM      9  O   UNL     1       1.992   9.572  17.393  0.00  0.00    +0.000 OA
ATOM     10  H   UNL     1       0.479   8.117  19.781  0.00  0.00    +0.000 HD
BRANCH   7  11
ATOM     11  C   UNL     1       2.430   7.532  19.304  0.00  0.00    +0.000 C 
BRANCH  11  12
ATOM     12  C   UNL     1       2.326   6.311  18.383  0.00  0.00    +0.000 C 
BRANCH  12  16
ATOM     13  C   UNL     1       5.992   5.220  16.343  0.00  0.00    +0.000 A 
ATOM     14  C   UNL     1       5.714   6.560  16.621  0.00  0.00    +0.000 A 
ATOM     15  C   UNL     1       4.522   6.927  17.255  0.00  0.00    +0.000 A 
ATOM     16  C   UNL     1       3.574   5.955  17.603  0.00  0.00    +0.000 A 
ATOM     17  C   UNL     1       3.845   4.616  17.286  0.00  0.00    +0.000 A 
ATOM     18  C   UNL     1       5.043   4.250  16.660  0.00  0.00    +0.000 A 
BRANCH  13  20
ATOM     19  C   UNL     1       7.164   4.783  14.334  0.00  0.00    +0.000 C 
ATOM     20  O   UNL     1       7.199   4.980  15.746  0.00  0.00    +0.000 OA
ENDBRANCH  13  20
ENDBRANCH  12  16
ENDBRANCH  11  12
ENDBRANCH   7  11
ENDBRANCH   1   8
BRANCH   6  21
ATOM     21  N   UNL     1       0.221  11.516  20.082  0.00  0.00    +0.000 N 
ATOM     22  H   UNL     1       0.180  12.532  20.168  0.00  0.00    +0.000 HD
BRANCH  21  23
ATOM     23  S   UNL     1      -0.078  10.898  21.643  0.00  0.00    +0.000 S 
ATOM     24  O   UNL     1      -1.059   9.847  21.463  0.00  0.00    +0.000 OA
ATOM     25  O   UNL     1       1.183  10.588  22.286  0.00  0.00    +0.000 OA
BRANCH  23  26
ATOM     26  C   UNL     1      -0.852  12.224  22.547  0.00  0.00    +0.000 A 
ATOM     27  C   UNL     1      -2.092  11.909  23.147  0.00  0.00    +0.000 A 
ATOM     28  C   UNL     1      -2.952  12.911  23.613  0.00  0.00    +0.000 A 
ATOM     29  C   UNL     1      -2.540  14.242  23.569  0.00  0.00    +0.000 A 
ATOM     30  C   UNL     1      -1.300  14.557  23.004  0.00  0.00    +0.000 A 
ATOM     31  C   UNL     1      -0.454  13.566  22.468  0.00  0.00    +0.000 A 
BRANCH  28  32
ATOM     32  C   UNL     1      -4.301  12.509  24.098  0.00  0.00    +0.000 C 
ATOM     33  O   UNL     1      -5.251  12.342  23.355  0.00  0.00    +0.000 OA
BRANCH  32  34
ATOM     34  O   UNL     1      -4.396  12.409  25.442  0.00  0.00    +0.000 OA
ATOM     35  H   UNL     1      -5.284  12.550  25.814  0.00  0.00    +0.000 HD
ENDBRANCH  32  34
ENDBRANCH  28  32
BRANCH  31  36
ATOM     36  O   UNL     1       0.591  14.097  21.767  0.00  0.00    +0.000 OA
ATOM     37  C   UNL     1       1.085  15.361  22.190  0.00  0.00    +0.000 C 
ENDBRANCH  31  36
ENDBRANCH  23  26
ENDBRANCH  21  23
ENDBRANCH   6  21
TORSDOF 11
ENDMDL
MODEL 5
REMARK VINA RESULT:      -7.7      3.759      8.700
REMARK  Name = 
REMARK  13 active torsions:
REMARK  status: ('A' for Active; 'I' for Inactive)
REMARK    1  A    between atoms: C_1  and  O_2
REMARK    2  A    between atoms: O_2  and  C_3
REMARK    3  A    between atoms: C_6  and  C_7
REMARK    4  A    between atoms: C_7  and  C_8
REMARK    5  A    between atoms: C_8  and  N_9
REMARK    6  A    between atoms: C_10  and  C_12
REMARK    7  A    between atoms: C_17  and  N_18
REMARK    8  A    between atoms: N_18  and  S_19
REMARK    9  A    between atoms: S_19  and  C_22
REMARK   10  A    between atoms: C_24  and  C_25
REMARK   11  A    between atoms: C_25  and  O_27
REMARK   12  A    between atoms: C_30  and  O_31
REMARK   13  A    between atoms: O_31  and  C_32
REMARK                            x       y       z     vdW  Elec       q    Type
REMARK                         _______ _______ _______ _____ _____    ______ ____
ROOT
ATOM      1  C   UNL     1       6.858   5.228  16.379  0.00  0.00    +0.000 A 
ATOM      2  C   UNL     1       7.433   5.521  15.122  0.00  0.00    +0.000 A 
ATOM      3  C   UNL     1       7.042   4.846  13.969  0.00  0.00    +0.000 A 
ATOM      4  C   UNL     1       6.097   3.834  14.044  0.00  0.00    +0.000 A 
ATOM      5  C   UNL     1       5.535   3.505  15.282  0.00  0.00    +0.000 A 
ATOM      6  C   UNL     1       5.900   4.192  16.448  0.00  0.00    +0.000 A 
ENDROOT
BRANCH   1   8
ATOM      7  N   UNL     1       7.964   7.210  17.342  0.00  0.00    +0.000 N 
ATOM      8  C   UNL     1       7.247   6.044  17.582  0.00  0.00    +0.000 C 
ATOM      9  O   UNL     1       6.920   5.704  18.713  0.00  0.00    +0.000 OA
ATOM     10  H   UNL     1       8.087   7.544  16.397  0.00  0.00    +0.000 HD
BRANCH   7  11
ATOM     11  C   UNL     1       8.228   8.192  18.381  0.00  0.00    +0.000 C 
BRANCH  11  12
ATOM     12  C   UNL     1       8.249   9.631  17.855  0.00  0.00    +0.000 C 
BRANCH  12  16
ATOM     13  C   UNL     1      11.047  12.414  19.649  0.00  0.00    +0.000 A 
ATOM     14  C   UNL     1      10.977  12.284  18.260  0.00  0.00    +0.000 A 
ATOM     15  C   UNL     1      10.098  11.369  17.671  0.00  0.00    +0.000 A 
ATOM     16  C   UNL     1       9.284  10.551  18.467  0.00  0.00    +0.000 A 
ATOM     17  C   UNL     1       9.387  10.664  19.861  0.00  0.00    +0.000 A 
ATOM     18  C   UNL     1      10.262  11.586  20.449  0.00  0.00    +0.000 A 
BRANCH  13  20
ATOM     19  C   UNL     1      12.296  14.366  19.173  0.00  0.00    +0.000 C 
ATOM     20  O   UNL     1      11.922  13.358  20.109  0.00  0.00    +0.000 OA
ENDBRANCH  13  20
ENDBRANCH  12  16
ENDBRANCH  11  12
ENDBRANCH   7  11
ENDBRANCH   1   8
BRANCH   6  21
ATOM     21  N   UNL     1       5.207   3.828  17.664  0.00  0.00    +0.000 N 
ATOM     22  H   UNL     1       5.172   4.602  18.328  0.00  0.00    +0.000 HD
BRANCH  21  23
ATOM     23  S   UNL     1       3.604   3.272  17.501  0.00  0.00    +0.000 S 
ATOM     24  O   UNL     1       3.218   3.593  16.142  0.00  0.00    +0.000 OA
ATOM     25  O   UNL     1       3.524   1.899  17.956  0.00  0.00    +0.000 OA
BRANCH  23  26
ATOM     26  C   UNL     1       2.630   4.280  18.602  0.00  0.00    +0.000 A 
ATOM     27  C   UNL     1       2.571   5.654  18.277  0.00  0.00    +0.000 A 
ATOM     28  C   UNL     1       2.117   6.602  19.203  0.00  0.00    +0.000 A 
ATOM     29  C   UNL     1       1.626   6.176  20.435  0.00  0.00    +0.000 A 
ATOM     30  C   UNL     1       1.653   4.813  20.750  0.00  0.00    +0.000 A 
ATOM     31  C   UNL     1       2.171   3.855  19.857  0.00  0.00    +0.000 A 
BRANCH  28  32
ATOM     32  C   UNL     1       2.222   8.042  18.840  0.00  0.00    +0.000 C 
ATOM     33  O   UNL     1       2.883   8.444  17.899  0.00  0.00    +0.000 OA
BRANCH  32  34
ATOM     34  O   UNL     1       1.573   8.872  19.685  0.00  0.00    +0.000 OA
ATOM     35  H   UNL     1       1.037   8.439  20.373  0.00  0.00    +0.000 HD
ENDBRANCH  32  34
ENDBRANCH  28  32
BRANCH  31  36
ATOM     36  O   UNL     1       2.316   2.627  20.438  0.00  0.00    +0.000 OA
ATOM     37  C   UNL     1       2.451   2.586  21.852  0.00  0.00    +0.000 C 
ENDBRANCH  31  36
ENDBRANCH  23  26
ENDBRANCH  21  23
ENDBRANCH   6  21
TORSDOF 11
ENDMDL
MODEL 6
REMARK VINA RESULT:      -7.7      0.772      1.144
REMARK  Name = 
REMARK  13 active torsions:
REMARK  status: ('A' for Active; 'I' for Inactive)
REMARK    1  A    between atoms: C_1  and  O_2
REMARK    2  A    between atoms: O_2  and  C_3
REMARK    3  A    between atoms: C_6  and  C_7
REMARK    4  A    between atoms: C_7  and  C_8
REMARK    5  A    between atoms: C_8  and  N_9
REMARK    6  A    between atoms: C_10  and  C_12
REMARK    7  A    between atoms: C_17  and  N_18
REMARK    8  A    between atoms: N_18  and  S_19
REMARK    9  A    between atoms: S_19  and  C_22
REMARK   10  A    between atoms: C_24  and  C_25
REMARK   11  A    between atoms: C_25  and  O_27
REMARK   12  A    between atoms: C_30  and  O_31
REMARK   13  A    between atoms: O_31  and  C_32
REMARK                            x       y       z     vdW  Elec       q    Type
REMARK                         _______ _______ _______ _____ _____    ______ ____
ROOT
ATOM      1  C   UNL     1       2.413   6.069  19.561  0.00  0.00    +0.000 A 
ATOM      2  C   UNL     1       1.699   5.743  20.735  0.00  0.00    +0.000 A 
ATOM      3  C   UNL     1       1.816   4.492  21.333  0.00  0.00    +0.000 A 
ATOM      4  C   UNL     1       2.616   3.518  20.754  0.00  0.00    +0.000 A 
ATOM      5  C   UNL     1       3.310   3.807  19.575  0.00  0.00    +0.000 A 
ATOM      6  C   UNL     1       3.222   5.070  18.974  0.00  0.00    +0.000 A 
ENDROOT
BRANCH   1   8
ATOM      7  N   UNL     1       1.383   8.309  19.573  0.00  0.00    +0.000 N 
ATOM      8  C   UNL     1       2.324   7.463  19.000  0.00  0.00    +0.000 C 
ATOM      9  O   UNL     1       3.069   7.834  18.100  0.00  0.00    +0.000 OA
ATOM     10  H   UNL     1       0.891   8.028  20.408  0.00  0.00    +0.000 HD
BRANCH   7  11
ATOM     11  C   UNL     1       1.327   9.730  19.273  0.00  0.00    +0.000 C 
BRANCH  11  12
ATOM     12  C   UNL     1       0.569  10.040  17.977  0.00  0.00    +0.000 C 
BRANCH  12  16
ATOM     13  C   UNL     1      -3.599  11.205  18.214  0.00  0.00    +0.000 A 
ATOM     14  C   UNL     1      -2.645  11.841  19.012  0.00  0.00    +0.000 A 
ATOM     15  C   UNL     1      -1.301  11.455  18.964  0.00  0.00    +0.000 A 
ATOM     16  C   UNL     1      -0.892  10.407  18.128  0.00  0.00    +0.000 A 
ATOM     17  C   UNL     1      -1.863   9.750  17.358  0.00  0.00    +0.000 A 
ATOM     18  C   UNL     1      -3.206  10.144  17.400  0.00  0.00    +0.000 A 
BRANCH  13  20
ATOM     19  C   UNL     1      -5.445  12.213  17.130  0.00  0.00    +0.000 C 
ATOM     20  O   UNL     1      -4.875  11.685  18.325  0.00  0.00    +0.000 OA
ENDBRANCH  13  20
ENDBRANCH  12  16
ENDBRANCH  11  12
ENDBRANCH   7  11
ENDBRANCH   1   8
BRANCH   6  21
ATOM     21  N   UNL     1       4.036   5.293  17.800  0.00  0.00    +0.000 N 
ATOM     22  H   UNL     1       4.636   6.111  17.902  0.00  0.00    +0.000 HD
BRANCH  21  23
ATOM     23  S   UNL     1       5.056   4.015  17.316  0.00  0.00    +0.000 S 
ATOM     24  O   UNL     1       6.087   3.937  18.329  0.00  0.00    +0.000 OA
ATOM     25  O   UNL     1       4.253   2.843  17.028  0.00  0.00    +0.000 OA
BRANCH  23  26
ATOM     26  C   UNL     1       5.816   4.555  15.797  0.00  0.00    +0.000 A 
ATOM     27  C   UNL     1       5.361   3.906  14.626  0.00  0.00    +0.000 A 
ATOM     28  C   UNL     1       6.072   3.995  13.422  0.00  0.00    +0.000 A 
ATOM     29  C   UNL     1       7.198   4.812  13.350  0.00  0.00    +0.000 A 
ATOM     30  C   UNL     1       7.635   5.481  14.498  0.00  0.00    +0.000 A 
ATOM     31  C   UNL     1       6.971   5.346  15.734  0.00  0.00    +0.000 A 
BRANCH  28  32
ATOM     32  C   UNL     1       5.610   3.168  12.273  0.00  0.00    +0.000 C 
ATOM     33  O   UNL     1       4.525   3.317  11.741  0.00  0.00    +0.000 OA
BRANCH  32  34
ATOM     34  O   UNL     1       6.474   2.194  11.914  0.00  0.00    +0.000 OA
ATOM     35  H   UNL     1       6.809   2.243  11.001  0.00  0.00    +0.000 HD
ENDBRANCH  32  34
ENDBRANCH  28  32
BRANCH  31  36
ATOM     36  O   UNL     1       7.680   5.890  16.767  0.00  0.00    +0.000 OA
ATOM     37  C   UNL     1       7.214   7.120  17.303  0.00  0.00    +0.000 C 
ENDBRANCH  31  36
ENDBRANCH  23  26
ENDBRANCH  21  23
ENDBRANCH   6  21
TORSDOF 11
ENDMDL
MODEL 7
REMARK VINA RESULT:      -7.7      1.161      1.489
REMARK  Name = 
REMARK  13 active torsions:
REMARK  status: ('A' for Active; 'I' for Inactive)
REMARK    1  A    between atoms: C_1  and  O_2
REMARK    2  A    between atoms: O_2  and  C_3
REMARK    3  A    between atoms: C_6  and  C_7
REMARK    4  A    between atoms: C_7  and  C_8
REMARK    5  A    between atoms: C_8  and  N_9
REMARK    6  A    between atoms: C_10  and  C_12
REMARK    7  A    between atoms: C_17  and  N_18
REMARK    8  A    between atoms: N_18  and  S_19
REMARK    9  A    between atoms: S_19  and  C_22
REMARK   10  A    between atoms: C_24  and  C_25
REMARK   11  A    between atoms: C_25  and  O_27
REMARK   12  A    between atoms: C_30  and  O_31
REMARK   13  A    between atoms: O_31  and  C_32
REMARK                            x       y       z     vdW  Elec       q    Type
REMARK                         _______ _______ _______ _____ _____    ______ ____
ROOT
ATOM      1  C   UNL     1       2.448   5.061  19.791  0.00  0.00    +0.000 A 
ATOM      2  C   UNL     1       1.495   4.888  20.820  0.00  0.00    +0.000 A 
ATOM      3  C   UNL     1       1.494   3.755  21.627  0.00  0.00    +0.000 A 
ATOM      4  C   UNL     1       2.416   2.743  21.405  0.00  0.00    +0.000 A 
ATOM      5  C   UNL     1       3.351   2.877  20.374  0.00  0.00    +0.000 A 
ATOM      6  C   UNL     1       3.382   4.023  19.567  0.00  0.00    +0.000 A 
ENDROOT
BRANCH   1   8
ATOM      7  N   UNL     1       1.886   7.453  19.601  0.00  0.00    +0.000 N 
ATOM      8  C   UNL     1       2.467   6.342  19.002  0.00  0.00    +0.000 C 
ATOM      9  O   UNL     1       2.996   6.400  17.898  0.00  0.00    +0.000 OA
ATOM     10  H   UNL     1       1.595   7.415  20.566  0.00  0.00    +0.000 HD
BRANCH   7  11
ATOM     11  C   UNL     1       2.011   8.792  19.047  0.00  0.00    +0.000 C 
BRANCH  11  12
ATOM     12  C   UNL     1       0.938   9.110  17.999  0.00  0.00    +0.000 C 
BRANCH  12  16
ATOM     13  C   UNL     1      -2.243  11.740  19.321  0.00  0.00    +0.000 A 
ATOM     14  C   UNL     1      -2.249  11.228  18.022  0.00  0.00    +0.000 A 
ATOM     15  C   UNL     1      -1.212  10.400  17.575  0.00  0.00    +0.000 A 
ATOM     16  C   UNL     1      -0.139  10.087  18.420  0.00  0.00    +0.000 A 
ATOM     17  C   UNL     1      -0.124  10.635  19.710  0.00  0.00    +0.000 A 
ATOM     18  C   UNL     1      -1.166  11.457  20.159  0.00  0.00    +0.000 A 
BRANCH  13  20
ATOM     19  C   UNL     1      -3.339  13.008  20.991  0.00  0.00    +0.000 C 
ATOM     20  O   UNL     1      -3.320  12.514  19.654  0.00  0.00    +0.000 OA
ENDBRANCH  13  20
ENDBRANCH  12  16
ENDBRANCH  11  12
ENDBRANCH   7  11
ENDBRANCH   1   8
BRANCH   6  21
ATOM     21  N   UNL     1       4.433   4.098  18.578  0.00  0.00    +0.000 N 
ATOM     22  H   UNL     1       5.323   3.756  18.942  0.00  0.00    +0.000 HD
BRANCH  21  23
ATOM     23  S   UNL     1       4.171   3.269  17.112  0.00  0.00    +0.000 S 
ATOM     24  O   UNL     1       4.667   1.927  17.331  0.00  0.00    +0.000 OA
ATOM     25  O   UNL     1       2.797   3.459  16.692  0.00  0.00    +0.000 OA
BRANCH  23  26
ATOM     26  C   UNL     1       5.231   4.059  15.916  0.00  0.00    +0.000 A 
ATOM     27  C   UNL     1       5.072   3.623  14.581  0.00  0.00    +0.000 A 
ATOM     28  C   UNL     1       6.029   3.915  13.601  0.00  0.00    +0.000 A 
ATOM     29  C   UNL     1       7.113   4.730  13.922  0.00  0.00    +0.000 A 
ATOM     30  C   UNL     1       7.258   5.190  15.235  0.00  0.00    +0.000 A 
ATOM     31  C   UNL     1       6.341   4.847  16.249  0.00  0.00    +0.000 A 
BRANCH  28  32
ATOM     32  C   UNL     1       5.865   3.299  12.255  0.00  0.00    +0.000 C 
ATOM     33  O   UNL     1       4.842   3.395  11.601  0.00  0.00    +0.000 OA
BRANCH  32  34
ATOM     34  O   UNL     1       6.926   2.568  11.851  0.00  0.00    +0.000 OA
ATOM     35  H   UNL     1       7.059   2.514  10.888  0.00  0.00    +0.000 HD
ENDBRANCH  32  34
ENDBRANCH  28  32
BRANCH  31  36
ATOM     36  O   UNL     1       6.783   5.203  17.491  0.00  0.00    +0.000 OA
ATOM     37  C   UNL     1       7.166   6.557  17.685  0.00  0.00    +0.000 C 
ENDBRANCH  31  36
ENDBRANCH  23  26
ENDBRANCH  21  23
ENDBRANCH   6  21
TORSDOF 11
ENDMDL
MODEL 8
REMARK VINA RESULT:      -7.7      4.010     10.205
REMARK  Name = 
REMARK  13 active torsions:
REMARK  status: ('A' for Active; 'I' for Inactive)
REMARK    1  A    between atoms: C_1  and  O_2
REMARK    2  A    between atoms: O_2  and  C_3
REMARK    3  A    between atoms: C_6  and  C_7
REMARK    4  A    between atoms: C_7  and  C_8
REMARK    5  A    between atoms: C_8  and  N_9
REMARK    6  A    between atoms: C_10  and  C_12
REMARK    7  A    between atoms: C_17  and  N_18
REMARK    8  A    between atoms: N_18  and  S_19
REMARK    9  A    between atoms: S_19  and  C_22
REMARK   10  A    between atoms: C_24  and  C_25
REMARK   11  A    between atoms: C_25  and  O_27
REMARK   12  A    between atoms: C_30  and  O_31
REMARK   13  A    between atoms: O_31  and  C_32
REMARK                            x       y       z     vdW  Elec       q    Type
REMARK                         _______ _______ _______ _____ _____    ______ ____
ROOT
ATOM      1  C   UNL     1       0.418  10.050  20.628  0.00  0.00    +0.000 A 
ATOM      2  C   UNL     1       0.166   8.889  21.392  0.00  0.00    +0.000 A 
ATOM      3  C   UNL     1      -0.485   8.954  22.620  0.00  0.00    +0.000 A 
ATOM      4  C   UNL     1      -0.865  10.183  23.139  0.00  0.00    +0.000 A 
ATOM      5  C   UNL     1      -0.600  11.349  22.416  0.00  0.00    +0.000 A 
ATOM      6  C   UNL     1       0.032  11.298  21.166  0.00  0.00    +0.000 A 
ENDROOT
BRANCH   1   8
ATOM      7  N   UNL     1       1.793   8.775  19.027  0.00  0.00    +0.000 N 
ATOM      8  C   UNL     1       1.045   9.921  19.266  0.00  0.00    +0.000 C 
ATOM      9  O   UNL     1       0.876  10.778  18.406  0.00  0.00    +0.000 OA
ATOM     10  H   UNL     1       1.790   8.019  19.696  0.00  0.00    +0.000 HD
BRANCH   7  11
ATOM     11  C   UNL     1       2.282   8.424  17.704  0.00  0.00    +0.000 C 
BRANCH  11  12
ATOM     12  C   UNL     1       3.511   7.509  17.742  0.00  0.00    +0.000 C 
BRANCH  12  16
ATOM     13  C   UNL     1       2.707   3.260  18.046  0.00  0.00    +0.000 A 
ATOM     14  C   UNL     1       4.007   3.714  17.811  0.00  0.00    +0.000 A 
ATOM     15  C   UNL     1       4.274   5.082  17.684  0.00  0.00    +0.000 A 
ATOM     16  C   UNL     1       3.236   6.020  17.769  0.00  0.00    +0.000 A 
ATOM     17  C   UNL     1       1.929   5.552  17.970  0.00  0.00    +0.000 A 
ATOM     18  C   UNL     1       1.665   4.183  18.105  0.00  0.00    +0.000 A 
BRANCH  13  20
ATOM     19  C   UNL     1       3.773   1.186  18.445  0.00  0.00    +0.000 C 
ATOM     20  O   UNL     1       2.572   1.906  18.180  0.00  0.00    +0.000 OA
ENDBRANCH  13  20
ENDBRANCH  12  16
ENDBRANCH  11  12
ENDBRANCH   7  11
ENDBRANCH   1   8
BRANCH   6  21
ATOM     21  N   UNL     1       0.194  12.552  20.464  0.00  0.00    +0.000 N 
ATOM     22  H   UNL     1       0.463  12.410  19.490  0.00  0.00    +0.000 HD
BRANCH  21  23
ATOM     23  S   UNL     1      -1.152  13.598  20.435  0.00  0.00    +0.000 S 
ATOM     24  O   UNL     1      -1.459  13.873  21.823  0.00  0.00    +0.000 OA
ATOM     25  O   UNL     1      -0.882  14.702  19.536  0.00  0.00    +0.000 OA
BRANCH  23  26
ATOM     26  C   UNL     1      -2.492  12.641  19.753  0.00  0.00    +0.000 A 
ATOM     27  C   UNL     1      -2.200  11.956  18.552  0.00  0.00    +0.000 A 
ATOM     28  C   UNL     1      -3.218  11.432  17.747  0.00  0.00    +0.000 A 
ATOM     29  C   UNL     1      -4.541  11.503  18.181  0.00  0.00    +0.000 A 
ATOM     30  C   UNL     1      -4.832  12.153  19.385  0.00  0.00    +0.000 A 
ATOM     31  C   UNL     1      -3.825  12.746  20.172  0.00  0.00    +0.000 A 
BRANCH  28  32
ATOM     32  C   UNL     1      -2.842  10.853  16.427  0.00  0.00    +0.000 C 
ATOM     33  O   UNL     1      -2.186   9.834  16.312  0.00  0.00    +0.000 OA
BRANCH  32  34
ATOM     34  O   UNL     1      -3.236  11.594  15.368  0.00  0.00    +0.000 OA
ATOM     35  H   UNL     1      -2.583  11.687  14.652  0.00  0.00    +0.000 HD
ENDBRANCH  32  34
ENDBRANCH  28  32
BRANCH  31  36
ATOM     36  O   UNL     1      -4.337  13.518  21.176  0.00  0.00    +0.000 OA
ATOM     37  C   UNL     1      -5.262  12.905  22.064  0.00  0.00    +0.000 C 
ENDBRANCH  31  36
ENDBRANCH  23  26
ENDBRANCH  21  23
ENDBRANCH   6  21
TORSDOF 11
ENDMDL
MODEL 9
REMARK VINA RESULT:      -7.7      4.389     11.787
REMARK  Name = 
REMARK  13 active torsions:
REMARK  status: ('A' for Active; 'I' for Inactive)
REMARK    1  A    between atoms: C_1  and  O_2
REMARK    2  A    between atoms: O_2  and  C_3
REMARK    3  A    between atoms: C_6  and  C_7
REMARK    4  A    between atoms: C_7  and  C_8
REMARK    5  A    between atoms: C_8  and  N_9
REMARK    6  A    between atoms: C_10  and  C_12
REMARK    7  A    between atoms: C_17  and  N_18
REMARK    8  A    between atoms: N_18  and  S_19
REMARK    9  A    between atoms: S_19  and  C_22
REMARK   10  A    between atoms: C_24  and  C_25
REMARK   11  A    between atoms: C_25  and  O_27
REMARK   12  A    between atoms: C_30  and  O_31
REMARK   13  A    between atoms: O_31  and  C_32
REMARK                            x       y       z     vdW  Elec       q    Type
REMARK                         _______ _______ _______ _____ _____    ______ ____
ROOT
ATOM      1  C   UNL     1      -2.286  10.857  17.362  0.00  0.00    +0.000 A 
ATOM      2  C   UNL     1      -2.273  10.079  16.183  0.00  0.00    +0.000 A 
ATOM      3  C   UNL     1      -3.340  10.093  15.291  0.00  0.00    +0.000 A 
ATOM      4  C   UNL     1      -4.468  10.850  15.570  0.00  0.00    +0.000 A 
ATOM      5  C   UNL     1      -4.518  11.605  16.746  0.00  0.00    +0.000 A 
ATOM      6  C   UNL     1      -3.440  11.621  17.643  0.00  0.00    +0.000 A 
ENDROOT
BRANCH   1   8
ATOM      7  N   UNL     1      -0.129   9.879  18.047  0.00  0.00    +0.000 N 
ATOM      8  C   UNL     1      -1.072  10.878  18.252  0.00  0.00    +0.000 C 
ATOM      9  O   UNL     1      -0.918  11.755  19.094  0.00  0.00    +0.000 OA
ATOM     10  H   UNL     1      -0.207   9.263  17.251  0.00  0.00    +0.000 HD
BRANCH   7  11
ATOM     11  C   UNL     1       1.175   9.894  18.689  0.00  0.00    +0.000 C 
BRANCH  11  12
ATOM     12  C   UNL     1       2.245   9.139  17.892  0.00  0.00    +0.000 C 
BRANCH  12  16
ATOM     13  C   UNL     1       3.274   5.172  19.302  0.00  0.00    +0.000 A 
ATOM     14  C   UNL     1       2.421   5.985  20.052  0.00  0.00    +0.000 A 
ATOM     15  C   UNL     1       2.103   7.278  19.620  0.00  0.00    +0.000 A 
ATOM     16  C   UNL     1       2.654   7.787  18.436  0.00  0.00    +0.000 A 
ATOM     17  C   UNL     1       3.538   6.976  17.709  0.00  0.00    +0.000 A 
ATOM     18  C   UNL     1       3.848   5.680  18.138  0.00  0.00    +0.000 A 
BRANCH  13  20
ATOM     19  C   UNL     1       4.031   2.967  18.896  0.00  0.00    +0.000 C 
ATOM     20  O   UNL     1       3.490   3.920  19.808  0.00  0.00    +0.000 OA
ENDBRANCH  13  20
ENDBRANCH  12  16
ENDBRANCH  11  12
ENDBRANCH   7  11
ENDBRANCH   1   8
BRANCH   6  21
ATOM     21  N   UNL     1      -3.560  12.491  18.791  0.00  0.00    +0.000 N 
ATOM     22  H   UNL     1      -3.392  13.468  18.548  0.00  0.00    +0.000 HD
BRANCH  21  23
ATOM     23  S   UNL     1      -5.043  12.461  19.630  0.00  0.00    +0.000 S 
ATOM     24  O   UNL     1      -5.790  13.600  19.139  0.00  0.00    +0.000 OA
ATOM     25  O   UNL     1      -5.623  11.136  19.531  0.00  0.00    +0.000 OA
BRANCH  23  26
ATOM     26  C   UNL     1      -4.637  12.763  21.339  0.00  0.00    +0.000 A 
ATOM     27  C   UNL     1      -3.262  12.695  21.658  0.00  0.00    +0.000 A 
ATOM     28  C   UNL     1      -2.826  12.599  22.986  0.00  0.00    +0.000 A 
ATOM     29  C   UNL     1      -3.759  12.665  24.019  0.00  0.00    +0.000 A 
ATOM     30  C   UNL     1      -5.119  12.764  23.709  0.00  0.00    +0.000 A 
ATOM     31  C   UNL     1      -5.578  12.791  22.377  0.00  0.00    +0.000 A 
BRANCH  28  32
ATOM     32  C   UNL     1      -1.374  12.384  23.234  0.00  0.00    +0.000 C 
ATOM     33  O   UNL     1      -0.859  11.280  23.253  0.00  0.00    +0.000 OA
BRANCH  32  34
ATOM     34  O   UNL     1      -0.687  13.516  23.501  0.00  0.00    +0.000 OA
ATOM     35  H   UNL     1       0.024  13.737  22.873  0.00  0.00    +0.000 HD
ENDBRANCH  32  34
ENDBRANCH  28  32
BRANCH  31  36
ATOM     36  O   UNL     1      -6.935  12.660  22.292  0.00  0.00    +0.000 OA
ATOM     37  C   UNL     1      -7.700  13.040  23.427  0.00  0.00    +0.000 C 
ENDBRANCH  31  36
ENDBRANCH  23  26
ENDBRANCH  21  23
ENDBRANCH   6  21
TORSDOF 11
ENDMDL
