MODEL 1
REMARK VINA RESULT:      -7.7      0.000      0.000
REMARK  Name = 
REMARK  3 active torsions:
REMARK  status: ('A' for Active; 'I' for Inactive)
REMARK    1  A    between atoms: O_1  and  C_2
REMARK    2  A    between atoms: C_5  and  C_6
REMARK    3  A    between atoms: N_8  and  C_9
REMARK                            x       y       z     vdW  Elec       q    Type
REMARK                         _______ _______ _______ _____ _____    ______ ____
ROOT
ATOM      1  C   UNL     1       5.767   4.289  16.881  0.00  0.00    +0.000 A 
ATOM      2  C   UNL     1       4.514   3.982  17.357  0.00  0.00    +0.000 A 
ATOM      3  N   UNL     1       4.633   4.121  18.710  0.00  0.00    +0.000 N 
ATOM      4  N   UNL     1       5.884   4.479  19.050  0.00  0.00    +0.000 NA
ATOM      5  N   UNL     1       6.590   4.589  17.934  0.00  0.00    +0.000 NA
ENDROOT
BRANCH   3   6
ATOM      6  C   UNL     1       3.576   4.024  19.701  0.00  0.00    +0.000 C 
ATOM      7  C   UNL     1       3.260   2.561  20.094  0.00  0.00    +0.000 C 
ATOM      8  N   UNL     1       1.817   2.242  19.938  0.00  0.00    +0.000 NA
ATOM      9  C   UNL     1       1.024   3.134  20.808  0.00  0.00    +0.000 C 
ATOM     10  C   UNL     1       1.308   4.620  20.520  0.00  0.00    +0.000 C 
ATOM     11  C   UNL     1       2.255   4.734  19.306  0.00  0.00    +0.000 C 
ATOM     12  C   UNL     1       1.558   3.982  18.159  0.00  0.00    +0.000 C 
ATOM     13  C   UNL     1       1.444   2.492  18.523  0.00  0.00    +0.000 C 
ENDBRANCH   3   6
BRANCH   1  17
ATOM     14  C   UNL     1       6.952   4.405  12.811  0.00  0.00    +0.000 A 
ATOM     15  C   UNL     1       5.855   3.638  13.187  0.00  0.00    +0.000 A 
ATOM     16  C   UNL     1       5.465   3.611  14.529  0.00  0.00    +0.000 A 
ATOM     17  C   UNL     1       6.177   4.342  15.493  0.00  0.00    +0.000 A 
ATOM     18  C   UNL     1       7.278   5.111  15.090  0.00  0.00    +0.000 A 
ATOM     19  C   UNL     1       7.662   5.142  13.750  0.00  0.00    +0.000 A 
BRANCH  14  20
ATOM     20  O   UNL     1       7.366   4.466  11.514  0.00  0.00    +0.000 OA
ATOM     21  H   UNL     1       6.744   3.960  10.966  0.00  0.00    +0.000 HD
ENDBRANCH  14  20
ENDBRANCH   1  17
TORSDOF 3
ENDMDL
MODEL 2
REMARK VINA RESULT:      -7.7      0.026      1.081
REMARK  Name = 
REMARK  3 active torsions:
REMARK  status: ('A' for Active; 'I' for Inactive)
REMARK    1  A    between atoms: O_1  and  C_2
REMARK    2  A    between atoms: C_5  and  C_6
REMARK    3  A    between atoms: N_8  and  C_9
REMARK                            x       y       z     vdW  Elec       q    Type
REMARK                         _______ _______ _______ _____ _____    ______ ____
ROOT
ATOM      1  C   UNL     1       5.766   4.271  16.882  0.00  0.00    +0.000 A 
ATOM      2  C   UNL     1       4.512   3.969  17.360  0.00  0.00    +0.000 A 
ATOM      3  N   UNL     1       4.631   4.116  18.712  0.00  0.00    +0.000 N 
ATOM      4  N   UNL     1       5.882   4.474  19.050  0.00  0.00    +0.000 NA
ATOM      5  N   UNL     1       6.589   4.576  17.934  0.00  0.00    +0.000 NA
ENDROOT
BRANCH   3   6
ATOM      6  C   UNL     1       3.574   4.027  19.703  0.00  0.00    +0.000 C 
ATOM      7  C   UNL     1       3.262   2.568  20.112  0.00  0.00    +0.000 C 
ATOM      8  N   UNL     1       1.820   2.242  19.958  0.00  0.00    +0.000 NA
ATOM      9  C   UNL     1       1.024   3.142  20.818  0.00  0.00    +0.000 C 
ATOM     10  C   UNL     1       1.303   4.625  20.514  0.00  0.00    +0.000 C 
ATOM     11  C   UNL     1       2.251   4.728  19.300  0.00  0.00    +0.000 C 
ATOM     12  C   UNL     1       1.556   3.961  18.160  0.00  0.00    +0.000 C 
ATOM     13  C   UNL     1       1.447   2.475  18.541  0.00  0.00    +0.000 C 
ENDBRANCH   3   6
BRANCH   1  17
ATOM     14  C   UNL     1       6.984   4.440  12.824  0.00  0.00    +0.000 A 
ATOM     15  C   UNL     1       7.680   5.170  13.783  0.00  0.00    +0.000 A 
ATOM     16  C   UNL     1       7.278   5.101  15.119  0.00  0.00    +0.000 A 
ATOM     17  C   UNL     1       6.177   4.315  15.494  0.00  0.00    +0.000 A 
ATOM     18  C   UNL     1       5.493   3.587  14.512  0.00  0.00    +0.000 A 
ATOM     19  C   UNL     1       5.899   3.650  13.178  0.00  0.00    +0.000 A 
BRANCH  14  20
ATOM     20  O   UNL     1       7.342   4.471  11.509  0.00  0.00    +0.000 OA
ATOM     21  H   UNL     1       7.904   3.701  11.323  0.00  0.00    +0.000 HD
ENDBRANCH  14  20
ENDBRANCH   1  17
TORSDOF 3
ENDMDL
MODEL 3
REMARK VINA RESULT:      -7.6      0.989      1.496
REMARK  Name = 
REMARK  3 active torsions:
REMARK  status: ('A' for Active; 'I' for Inactive)
REMARK    1  A    between atoms: O_1  and  C_2
REMARK    2  A    between atoms: C_5  and  C_6
REMARK    3  A    between atoms: N_8  and  C_9
REMARK                            x       y       z     vdW  Elec       q    Type
REMARK                         _______ _______ _______ _____ _____    ______ ____
ROOT
ATOM      1  C   UNL     1       5.118   4.981  16.239  0.00  0.00    +0.000 A 
ATOM      2  C   UNL     1       4.684   4.081  17.185  0.00  0.00    +0.000 A 
ATOM      3  N   UNL     1       4.136   4.866  18.158  0.00  0.00    +0.000 N 
ATOM      4  N   UNL     1       4.235   6.168  17.841  0.00  0.00    +0.000 NA
ATOM      5  N   UNL     1       4.833   6.253  16.661  0.00  0.00    +0.000 NA
ENDROOT
BRANCH   3   6
ATOM      6  C   UNL     1       3.425   4.426  19.345  0.00  0.00    +0.000 C 
ATOM      7  C   UNL     1       3.673   2.933  19.669  0.00  0.00    +0.000 C 
ATOM      8  N   UNL     1       2.402   2.175  19.808  0.00  0.00    +0.000 NA
ATOM      9  C   UNL     1       1.605   2.758  20.907  0.00  0.00    +0.000 C 
ATOM     10  C   UNL     1       1.345   4.260  20.693  0.00  0.00    +0.000 C 
ATOM     11  C   UNL     1       1.896   4.685  19.315  0.00  0.00    +0.000 C 
ATOM     12  C   UNL     1       1.211   3.765  18.289  0.00  0.00    +0.000 C 
ATOM     13  C   UNL     1       1.647   2.311  18.538  0.00  0.00    +0.000 C 
ENDBRANCH   3   6
BRANCH   1  17
ATOM     14  C   UNL     1       6.955   4.109  12.518  0.00  0.00    +0.000 A 
ATOM     15  C   UNL     1       7.616   4.912  13.441  0.00  0.00    +0.000 A 
ATOM     16  C   UNL     1       7.008   5.188  14.668  0.00  0.00    +0.000 A 
ATOM     17  C   UNL     1       5.738   4.670  14.968  0.00  0.00    +0.000 A 
ATOM     18  C   UNL     1       5.091   3.862  14.023  0.00  0.00    +0.000 A 
ATOM     19  C   UNL     1       5.701   3.582  12.800  0.00  0.00    +0.000 A 
BRANCH  14  20
ATOM     20  O   UNL     1       7.509   3.809  11.309  0.00  0.00    +0.000 OA
ATOM     21  H   UNL     1       7.034   3.051  10.930  0.00  0.00    +0.000 HD
ENDBRANCH  14  20
ENDBRANCH   1  17
TORSDOF 3
ENDMDL
MODEL 4
REMARK VINA RESULT:      -7.6      0.978      1.026
REMARK  Name = 
REMARK  3 active torsions:
REMARK  status: ('A' for Active; 'I' for Inactive)
REMARK    1  A    between atoms: O_1  and  C_2
REMARK    2  A    between atoms: C_5  and  C_6
REMARK    3  A    between atoms: N_8  and  C_9
REMARK                            x       y       z     vdW  Elec       q    Type
REMARK                         _______ _______ _______ _____ _____    ______ ____
ROOT
ATOM      1  C   UNL     1       5.103   5.005  16.298  0.00  0.00    +0.000 A 
ATOM      2  C   UNL     1       4.661   4.092  17.227  0.00  0.00    +0.000 A 
ATOM      3  N   UNL     1       4.113   4.863  18.211  0.00  0.00    +0.000 N 
ATOM      4  N   UNL     1       4.220   6.171  17.915  0.00  0.00    +0.000 NA
ATOM      5  N   UNL     1       4.823   6.271  16.739  0.00  0.00    +0.000 NA
ENDROOT
BRANCH   3   6
ATOM      6  C   UNL     1       3.396   4.408  19.388  0.00  0.00    +0.000 C 
ATOM      7  C   UNL     1       3.654   2.915  19.703  0.00  0.00    +0.000 C 
ATOM      8  N   UNL     1       2.389   2.145  19.825  0.00  0.00    +0.000 NA
ATOM      9  C   UNL     1       1.577   2.713  20.921  0.00  0.00    +0.000 C 
ATOM     10  C   UNL     1       1.306   4.215  20.716  0.00  0.00    +0.000 C 
ATOM     11  C   UNL     1       1.865   4.654  19.347  0.00  0.00    +0.000 C 
ATOM     12  C   UNL     1       1.197   3.737  18.308  0.00  0.00    +0.000 C 
ATOM     13  C   UNL     1       1.644   2.285  18.549  0.00  0.00    +0.000 C 
ENDBRANCH   3   6
BRANCH   1  17
ATOM     14  C   UNL     1       6.906   4.108  12.565  0.00  0.00    +0.000 A 
ATOM     15  C   UNL     1       5.646   3.597  12.863  0.00  0.00    +0.000 A 
ATOM     16  C   UNL     1       5.055   3.905  14.091  0.00  0.00    +0.000 A 
ATOM     17  C   UNL     1       5.726   4.711  15.024  0.00  0.00    +0.000 A 
ATOM     18  C   UNL     1       6.992   5.217  14.701  0.00  0.00    +0.000 A 
ATOM     19  C   UNL     1       7.580   4.915  13.472  0.00  0.00    +0.000 A 
BRANCH  14  20
ATOM     20  O   UNL     1       7.520   3.840  11.379  0.00  0.00    +0.000 OA
ATOM     21  H   UNL     1       7.808   2.912  11.382  0.00  0.00    +0.000 HD
ENDBRANCH  14  20
ENDBRANCH   1  17
TORSDOF 3
ENDMDL
MODEL 5
REMARK VINA RESULT:      -7.4      5.479      8.198
REMARK  Name = 
REMARK  3 active torsions:
REMARK  status: ('A' for Active; 'I' for Inactive)
REMARK    1  A    between atoms: O_1  and  C_2
REMARK    2  A    between atoms: C_5  and  C_6
REMARK    3  A    between atoms: N_8  and  C_9
REMARK                            x       y       z     vdW  Elec       q    Type
REMARK                         _______ _______ _______ _____ _____    ______ ____
ROOT
ATOM      1  C   UNL     1       1.280   8.328  20.512  0.00  0.00    +0.000 A 
ATOM      2  C   UNL     1       1.560   7.071  20.997  0.00  0.00    +0.000 A 
ATOM      3  N   UNL     1       2.270   6.481  19.992  0.00  0.00    +0.000 N 
ATOM      4  N   UNL     1       2.411   7.316  18.947  0.00  0.00    +0.000 NA
ATOM      5  N   UNL     1       1.810   8.456  19.256  0.00  0.00    +0.000 NA
ENDROOT
BRANCH   3   6
ATOM      6  C   UNL     1       2.914   5.181  20.016  0.00  0.00    +0.000 C 
ATOM      7  C   UNL     1       3.269   4.665  18.601  0.00  0.00    +0.000 C 
ATOM      8  N   UNL     1       2.717   3.309  18.348  0.00  0.00    +0.000 NA
ATOM      9  C   UNL     1       3.275   2.363  19.336  0.00  0.00    +0.000 C 
ATOM     10  C   UNL     1       3.009   2.820  20.782  0.00  0.00    +0.000 C 
ATOM     11  C   UNL     1       2.119   4.080  20.765  0.00  0.00    +0.000 C 
ATOM     12  C   UNL     1       0.857   3.691  19.976  0.00  0.00    +0.000 C 
ATOM     13  C   UNL     1       1.244   3.376  18.521  0.00  0.00    +0.000 C 
ENDBRANCH   3   6
BRANCH   1  17
ATOM     14  C   UNL     1      -0.737  11.465  22.531  0.00  0.00    +0.000 A 
ATOM     15  C   UNL     1      -0.066  11.731  21.343  0.00  0.00    +0.000 A 
ATOM     16  C   UNL     1       0.589  10.690  20.679  0.00  0.00    +0.000 A 
ATOM     17  C   UNL     1       0.582   9.389  21.207  0.00  0.00    +0.000 A 
ATOM     18  C   UNL     1      -0.104   9.145  22.405  0.00  0.00    +0.000 A 
ATOM     19  C   UNL     1      -0.763  10.183  23.064  0.00  0.00    +0.000 A 
BRANCH  14  20
ATOM     20  O   UNL     1      -1.394  12.446  23.212  0.00  0.00    +0.000 OA
ATOM     21  H   UNL     1      -0.990  12.537  24.091  0.00  0.00    +0.000 HD
ENDBRANCH  14  20
ENDBRANCH   1  17
TORSDOF 3
ENDMDL
MODEL 6
REMARK VINA RESULT:      -7.3      4.935      7.529
REMARK  Name = 
REMARK  3 active torsions:
REMARK  status: ('A' for Active; 'I' for Inactive)
REMARK    1  A    between atoms: O_1  and  C_2
REMARK    2  A    between atoms: C_5  and  C_6
REMARK    3  A    between atoms: N_8  and  C_9
REMARK                            x       y       z     vdW  Elec       q    Type
REMARK                         _______ _______ _______ _____ _____    ______ ____
ROOT
ATOM      1  C   UNL     1       1.843   7.743  19.772  0.00  0.00    +0.000 A 
ATOM      2  C   UNL     1       2.109   6.437  20.117  0.00  0.00    +0.000 A 
ATOM      3  N   UNL     1       2.752   5.933  19.024  0.00  0.00    +0.000 N 
ATOM      4  N   UNL     1       2.867   6.862  18.059  0.00  0.00    +0.000 NA
ATOM      5  N   UNL     1       2.315   7.981  18.508  0.00  0.00    +0.000 NA
ENDROOT
BRANCH   3   6
ATOM      6  C   UNL     1       3.358   4.621  18.888  0.00  0.00    +0.000 C 
ATOM      7  C   UNL     1       3.032   3.951  17.532  0.00  0.00    +0.000 C 
ATOM      8  N   UNL     1       2.449   2.595  17.706  0.00  0.00    +0.000 NA
ATOM      9  C   UNL     1       3.415   1.737  18.422  0.00  0.00    +0.000 C 
ATOM     10  C   UNL     1       3.835   2.349  19.771  0.00  0.00    +0.000 C 
ATOM     11  C   UNL     1       3.015   3.630  20.031  0.00  0.00    +0.000 C 
ATOM     12  C   UNL     1       1.538   3.204  19.954  0.00  0.00    +0.000 C 
ATOM     13  C   UNL     1       1.219   2.729  18.527  0.00  0.00    +0.000 C 
ENDBRANCH   3   6
BRANCH   1  17
ATOM     14  C   UNL     1      -0.023  10.651  22.229  0.00  0.00    +0.000 A 
ATOM     15  C   UNL     1       0.415   9.455  22.789  0.00  0.00    +0.000 A 
ATOM     16  C   UNL     1       1.037   8.506  21.974  0.00  0.00    +0.000 A 
ATOM     17  C   UNL     1       1.211   8.746  20.602  0.00  0.00    +0.000 A 
ATOM     18  C   UNL     1       0.764   9.959  20.061  0.00  0.00    +0.000 A 
ATOM     19  C   UNL     1       0.148  10.910  20.876  0.00  0.00    +0.000 A 
BRANCH  14  20
ATOM     20  O   UNL     1      -0.631  11.609  22.984  0.00  0.00    +0.000 OA
ATOM     21  H   UNL     1      -0.768  11.257  23.879  0.00  0.00    +0.000 HD
ENDBRANCH  14  20
ENDBRANCH   1  17
TORSDOF 3
ENDMDL
MODEL 7
REMARK VINA RESULT:      -7.3      5.535      7.243
REMARK  Name = 
REMARK  3 active torsions:
REMARK  status: ('A' for Active; 'I' for Inactive)
REMARK    1  A    between atoms: O_1  and  C_2
REMARK    2  A    between atoms: C_5  and  C_6
REMARK    3  A    between atoms: N_8  and  C_9
REMARK                            x       y       z     vdW  Elec       q    Type
REMARK                         _______ _______ _______ _____ _____    ______ ____
ROOT
ATOM      1  C   UNL     1       1.755   9.007  18.493  0.00  0.00    +0.000 A 
ATOM      2  C   UNL     1       1.724   8.010  19.440  0.00  0.00    +0.000 A 
ATOM      3  N   UNL     1       2.591   7.072  18.958  0.00  0.00    +0.000 N 
ATOM      4  N   UNL     1       3.116   7.458  17.782  0.00  0.00    +0.000 NA
ATOM      5  N   UNL     1       2.613   8.649  17.487  0.00  0.00    +0.000 NA
ENDROOT
BRANCH   3   6
ATOM      6  C   UNL     1       3.025   5.854  19.619  0.00  0.00    +0.000 C 
ATOM      7  C   UNL     1       4.315   5.266  18.997  0.00  0.00    +0.000 C 
ATOM      8  N   UNL     1       4.146   3.842  18.606  0.00  0.00    +0.000 NA
ATOM      9  C   UNL     1       3.807   3.046  19.803  0.00  0.00    +0.000 C 
ATOM     10  C   UNL     1       2.556   3.587  20.518  0.00  0.00    +0.000 C 
ATOM     11  C   UNL     1       1.950   4.739  19.689  0.00  0.00    +0.000 C 
ATOM     12  C   UNL     1       1.684   4.154  18.291  0.00  0.00    +0.000 C 
ATOM     13  C   UNL     1       3.022   3.765  17.639  0.00  0.00    +0.000 C 
ENDBRANCH   3   6
BRANCH   1  17
ATOM     14  C   UNL     1      -0.356  12.683  18.606  0.00  0.00    +0.000 A 
ATOM     15  C   UNL     1      -1.060  11.488  18.503  0.00  0.00    +0.000 A 
ATOM     16  C   UNL     1      -0.357  10.280  18.475  0.00  0.00    +0.000 A 
ATOM     17  C   UNL     1       1.045  10.268  18.539  0.00  0.00    +0.000 A 
ATOM     18  C   UNL     1       1.733  11.485  18.646  0.00  0.00    +0.000 A 
ATOM     19  C   UNL     1       1.031  12.690  18.679  0.00  0.00    +0.000 A 
BRANCH  14  20
ATOM     20  O   UNL     1      -0.997  13.885  18.642  0.00  0.00    +0.000 OA
ATOM     21  H   UNL     1      -0.806  14.313  19.493  0.00  0.00    +0.000 HD
ENDBRANCH  14  20
ENDBRANCH   1  17
TORSDOF 3
ENDMDL
MODEL 8
REMARK VINA RESULT:      -7.3      5.189      7.902
REMARK  Name = 
REMARK  3 active torsions:
REMARK  status: ('A' for Active; 'I' for Inactive)
REMARK    1  A    between atoms: O_1  and  C_2
REMARK    2  A    between atoms: C_5  and  C_6
REMARK    3  A    between atoms: N_8  and  C_9
REMARK                            x       y       z     vdW  Elec       q    Type
REMARK                         _______ _______ _______ _____ _____    ______ ____
ROOT
ATOM      1  C   UNL     1       1.438   7.913  20.408  0.00  0.00    +0.000 A 
ATOM      2  C   UNL     1       1.459   6.605  20.834  0.00  0.00    +0.000 A 
ATOM      3  N   UNL     1       2.266   5.977  19.930  0.00  0.00    +0.000 N 
ATOM      4  N   UNL     1       2.708   6.839  18.997  0.00  0.00    +0.000 NA
ATOM      5  N   UNL     1       2.208   8.033  19.282  0.00  0.00    +0.000 NA
ENDROOT
BRANCH   3   6
ATOM      6  C   UNL     1       2.724   4.600  19.968  0.00  0.00    +0.000 C 
ATOM      7  C   UNL     1       4.041   4.388  19.184  0.00  0.00    +0.000 C 
ATOM      8  N   UNL     1       3.922   3.303  18.175  0.00  0.00    +0.000 NA
ATOM      9  C   UNL     1       3.585   2.038  18.859  0.00  0.00    +0.000 C 
ATOM     10  C   UNL     1       2.305   2.166  19.706  0.00  0.00    +0.000 C 
ATOM     11  C   UNL     1       1.681   3.559  19.484  0.00  0.00    +0.000 C 
ATOM     12  C   UNL     1       1.458   3.681  17.966  0.00  0.00    +0.000 C 
ATOM     13  C   UNL     1       2.819   3.660  17.249  0.00  0.00    +0.000 C 
ENDBRANCH   3   6
BRANCH   1  17
ATOM     14  C   UNL     1      -0.569  11.131  22.303  0.00  0.00    +0.000 A 
ATOM     15  C   UNL     1      -0.416   9.924  22.976  0.00  0.00    +0.000 A 
ATOM     16  C   UNL     1       0.255   8.871  22.348  0.00  0.00    +0.000 A 
ATOM     17  C   UNL     1       0.761   9.021  21.047  0.00  0.00    +0.000 A 
ATOM     18  C   UNL     1       0.597  10.248  20.390  0.00  0.00    +0.000 A 
ATOM     19  C   UNL     1      -0.068  11.301  21.019  0.00  0.00    +0.000 A 
BRANCH  14  20
ATOM     20  O   UNL     1      -1.211  12.188  22.876  0.00  0.00    +0.000 OA
ATOM     21  H   UNL     1      -0.661  12.529  23.601  0.00  0.00    +0.000 HD
ENDBRANCH  14  20
ENDBRANCH   1  17
TORSDOF 3
ENDMDL
MODEL 9
REMARK VINA RESULT:      -7.3      5.523      7.300
REMARK  Name = 
REMARK  3 active torsions:
REMARK  status: ('A' for Active; 'I' for Inactive)
REMARK    1  A    between atoms: O_1  and  C_2
REMARK    2  A    between atoms: C_5  and  C_6
REMARK    3  A    between atoms: N_8  and  C_9
REMARK                            x       y       z     vdW  Elec       q    Type
REMARK                         _______ _______ _______ _____ _____    ______ ____
ROOT
ATOM      1  C   UNL     1       1.765   8.985  18.472  0.00  0.00    +0.000 A 
ATOM      2  C   UNL     1       1.726   7.985  19.417  0.00  0.00    +0.000 A 
ATOM      3  N   UNL     1       2.603   7.052  18.943  0.00  0.00    +0.000 N 
ATOM      4  N   UNL     1       3.141   7.443  17.775  0.00  0.00    +0.000 NA
ATOM      5  N   UNL     1       2.637   8.632  17.476  0.00  0.00    +0.000 NA
ENDROOT
BRANCH   3   6
ATOM      6  C   UNL     1       3.033   5.834  19.606  0.00  0.00    +0.000 C 
ATOM      7  C   UNL     1       4.316   5.237  18.980  0.00  0.00    +0.000 C 
ATOM      8  N   UNL     1       4.137   3.812  18.596  0.00  0.00    +0.000 NA
ATOM      9  C   UNL     1       3.800   3.022  19.797  0.00  0.00    +0.000 C 
ATOM     10  C   UNL     1       2.555   3.574  20.517  0.00  0.00    +0.000 C 
ATOM     11  C   UNL     1       1.952   4.726  19.687  0.00  0.00    +0.000 C 
ATOM     12  C   UNL     1       1.675   4.137  18.292  0.00  0.00    +0.000 C 
ATOM     13  C   UNL     1       3.007   3.737  17.636  0.00  0.00    +0.000 C 
ENDBRANCH   3   6
BRANCH   1  17
ATOM     14  C   UNL     1      -0.296  12.688  18.614  0.00  0.00    +0.000 A 
ATOM     15  C   UNL     1       1.094  12.671  18.664  0.00  0.00    +0.000 A 
ATOM     16  C   UNL     1       1.766  11.448  18.608  0.00  0.00    +0.000 A 
ATOM     17  C   UNL     1       1.050  10.244  18.513  0.00  0.00    +0.000 A 
ATOM     18  C   UNL     1      -0.350  10.285  18.461  0.00  0.00    +0.000 A 
ATOM     19  C   UNL     1      -1.020  11.508  18.512  0.00  0.00    +0.000 A 
BRANCH  14  20
ATOM     20  O   UNL     1      -0.996  13.857  18.661  0.00  0.00    +0.000 OA
ATOM     21  H   UNL     1      -0.636  14.405  19.379  0.00  0.00    +0.000 HD
ENDBRANCH  14  20
ENDBRANCH   1  17
TORSDOF 3
ENDMDL
