MODEL 1
REMARK VINA RESULT:      -7.9      0.000      0.000
REMARK  Name = 
REMARK  4 active torsions:
REMARK  status: ('A' for Active; 'I' for Inactive)
REMARK    1  A    between atoms: C_1  and  O_2
REMARK    2  A    between atoms: O_2  and  C_3
REMARK    3  A    between atoms: C_7  and  N_8
REMARK    4  A    between atoms: C_17  and  C_18
REMARK                            x       y       z     vdW  Elec       q    Type
REMARK                         _______ _______ _______ _____ _____    ______ ____
ROOT
ATOM      1  N   UNL     1       2.311   6.409  20.267  0.00  0.00    +0.000 N 
ATOM      2  C   UNL     1       2.217   7.463  19.391  0.00  0.00    +0.000 C 
ATOM      3  O   UNL     1       2.662   7.446  18.245  0.00  0.00    +0.000 OA
ATOM      4  N   UNL     1       1.509   8.559  19.847  0.00  0.00    +0.000 N 
ATOM      5  C   UNL     1       1.249   9.633  18.881  0.00  0.00    +0.000 C 
ATOM      6  C   UNL     1      -0.200  10.116  18.995  0.00  0.00    +0.000 C 
ATOM      7  N   UNL     1      -0.460  10.547  20.371  0.00  0.00    +0.000 N 
ATOM      8  C   UNL     1      -1.077  11.720  20.675  0.00  0.00    +0.000 A 
ATOM      9  N   UNL     1      -1.318  12.155  21.895  0.00  0.00    +0.000 NA
ATOM     10  C   UNL     1      -1.909  13.424  21.845  0.00  0.00    +0.000 A 
ATOM     11  N   UNL     1      -2.151  13.962  20.646  0.00  0.00    +0.000 NA
ATOM     12  S   UNL     1      -1.628  12.887  19.510  0.00  0.00    +0.000 S 
ATOM     13  C   UNL     1      -0.191   9.542  21.410  0.00  0.00    +0.000 C 
ATOM     14  C   UNL     1       1.226   8.939  21.244  0.00  0.00    +0.000 C 
ATOM     15  H   UNL     1       1.624   6.387  21.001  0.00  0.00    +0.000 HD
ENDROOT
BRANCH   1  20
ATOM     16  C   UNL     1       5.019   4.090  19.249  0.00  0.00    +0.000 A 
ATOM     17  C   UNL     1       4.443   2.850  19.526  0.00  0.00    +0.000 A 
ATOM     18  C   UNL     1       3.148   2.768  20.027  0.00  0.00    +0.000 A 
ATOM     19  C   UNL     1       2.422   3.936  20.260  0.00  0.00    +0.000 A 
ATOM     20  C   UNL     1       2.988   5.191  20.014  0.00  0.00    +0.000 A 
ATOM     21  C   UNL     1       4.288   5.259  19.491  0.00  0.00    +0.000 A 
BRANCH  16  23
ATOM     22  C   UNL     1       6.543   4.685  17.522  0.00  0.00    +0.000 C 
ATOM     23  O   UNL     1       6.291   4.021  18.751  0.00  0.00    +0.000 OA
ENDBRANCH  16  23
ENDBRANCH   1  20
BRANCH  10  24
ATOM     24  C   UNL     1      -2.247  14.142  23.078  0.00  0.00    +0.000 A 
ATOM     25  C   UNL     1      -3.580  14.437  23.395  0.00  0.00    +0.000 A 
ATOM     26  C   UNL     1      -3.892  15.127  24.571  0.00  0.00    +0.000 A 
ATOM     27  C   UNL     1      -2.878  15.527  25.439  0.00  0.00    +0.000 A 
ATOM     28  C   UNL     1      -1.550  15.236  25.139  0.00  0.00    +0.000 A 
ATOM     29  C   UNL     1      -1.237  14.547  23.966  0.00  0.00    +0.000 A 
ENDBRANCH  10  24
TORSDOF 3
ENDMDL
MODEL 2
REMARK VINA RESULT:      -7.8      1.108      1.119
REMARK  Name = 
REMARK  4 active torsions:
REMARK  status: ('A' for Active; 'I' for Inactive)
REMARK    1  A    between atoms: C_1  and  O_2
REMARK    2  A    between atoms: O_2  and  C_3
REMARK    3  A    between atoms: C_7  and  N_8
REMARK    4  A    between atoms: C_17  and  C_18
REMARK                            x       y       z     vdW  Elec       q    Type
REMARK                         _______ _______ _______ _____ _____    ______ ____
ROOT
ATOM      1  N   UNL     1       2.259   6.791  19.001  0.00  0.00    +0.000 N 
ATOM      2  C   UNL     1       2.296   8.012  18.374  0.00  0.00    +0.000 C 
ATOM      3  O   UNL     1       2.824   8.207  17.280  0.00  0.00    +0.000 OA
ATOM      4  N   UNL     1       1.626   9.037  19.015  0.00  0.00    +0.000 N 
ATOM      5  C   UNL     1       1.506  10.309  18.294  0.00  0.00    +0.000 C 
ATOM      6  C   UNL     1       0.085  10.866  18.424  0.00  0.00    +0.000 C 
ATOM      7  N   UNL     1      -0.249  11.011  19.843  0.00  0.00    +0.000 N 
ATOM      8  C   UNL     1      -0.813  12.137  20.359  0.00  0.00    +0.000 A 
ATOM      9  N   UNL     1      -1.117  12.317  21.628  0.00  0.00    +0.000 NA
ATOM     10  C   UNL     1      -1.622  13.610  21.822  0.00  0.00    +0.000 A 
ATOM     11  N   UNL     1      -1.740  14.409  20.758  0.00  0.00    +0.000 NA
ATOM     12  S   UNL     1      -1.201  13.565  19.447  0.00  0.00    +0.000 S 
ATOM     13  C   UNL     1      -0.122   9.790  20.651  0.00  0.00    +0.000 C 
ATOM     14  C   UNL     1       1.263   9.129  20.442  0.00  0.00    +0.000 C 
ATOM     15  H   UNL     1       1.519   6.665  19.671  0.00  0.00    +0.000 HD
ENDROOT
BRANCH   1  20
ATOM     16  C   UNL     1       4.903   4.270  18.369  0.00  0.00    +0.000 A 
ATOM     17  C   UNL     1       4.188   3.281  17.691  0.00  0.00    +0.000 A 
ATOM     18  C   UNL     1       2.835   3.449  17.416  0.00  0.00    +0.000 A 
ATOM     19  C   UNL     1       2.186   4.613  17.826  0.00  0.00    +0.000 A 
ATOM     20  C   UNL     1       2.875   5.607  18.529  0.00  0.00    +0.000 A 
ATOM     21  C   UNL     1       4.244   5.433  18.783  0.00  0.00    +0.000 A 
BRANCH  16  23
ATOM     22  C   UNL     1       7.162   4.625  17.714  0.00  0.00    +0.000 C 
ATOM     23  O   UNL     1       6.225   3.977  18.561  0.00  0.00    +0.000 OA
ENDBRANCH  16  23
ENDBRANCH   1  20
BRANCH  10  24
ATOM     24  C   UNL     1      -2.007  14.071  23.160  0.00  0.00    +0.000 A 
ATOM     25  C   UNL     1      -3.244  13.718  23.714  0.00  0.00    +0.000 A 
ATOM     26  C   UNL     1      -3.603  14.168  24.988  0.00  0.00    +0.000 A 
ATOM     27  C   UNL     1      -2.731  14.972  25.720  0.00  0.00    +0.000 A 
ATOM     28  C   UNL     1      -1.496  15.326  25.184  0.00  0.00    +0.000 A 
ATOM     29  C   UNL     1      -1.136  14.877  23.912  0.00  0.00    +0.000 A 
ENDBRANCH  10  24
TORSDOF 3
ENDMDL
MODEL 3
REMARK VINA RESULT:      -7.7      3.291     10.756
REMARK  Name = 
REMARK  4 active torsions:
REMARK  status: ('A' for Active; 'I' for Inactive)
REMARK    1  A    between atoms: C_1  and  O_2
REMARK    2  A    between atoms: O_2  and  C_3
REMARK    3  A    between atoms: C_7  and  N_8
REMARK    4  A    between atoms: C_17  and  C_18
REMARK                            x       y       z     vdW  Elec       q    Type
REMARK                         _______ _______ _______ _____ _____    ______ ____
ROOT
ATOM      1  N   UNL     1      -1.559  12.905  23.086  0.00  0.00    +0.000 N 
ATOM      2  C   UNL     1      -1.504  12.706  21.729  0.00  0.00    +0.000 C 
ATOM      3  O   UNL     1      -1.945  13.499  20.899  0.00  0.00    +0.000 OA
ATOM      4  N   UNL     1      -0.840  11.565  21.317  0.00  0.00    +0.000 N 
ATOM      5  C   UNL     1      -0.619  11.408  19.875  0.00  0.00    +0.000 C 
ATOM      6  C   UNL     1       0.811  10.929  19.601  0.00  0.00    +0.000 C 
ATOM      7  N   UNL     1       1.050   9.681  20.329  0.00  0.00    +0.000 N 
ATOM      8  C   UNL     1       1.621   8.588  19.754  0.00  0.00    +0.000 A 
ATOM      9  N   UNL     1       1.842   7.441  20.364  0.00  0.00    +0.000 NA
ATOM     10  C   UNL     1       2.384   6.514  19.463  0.00  0.00    +0.000 A 
ATOM     11  N   UNL     1       2.608   6.910  18.207  0.00  0.00    +0.000 NA
ATOM     12  S   UNL     1       2.129   8.484  18.095  0.00  0.00    +0.000 S 
ATOM     13  C   UNL     1       0.817   9.739  21.779  0.00  0.00    +0.000 C 
ATOM     14  C   UNL     1      -0.575  10.340  22.093  0.00  0.00    +0.000 C 
ATOM     15  H   UNL     1      -0.874  12.409  23.630  0.00  0.00    +0.000 HD
ENDROOT
BRANCH   1  20
ATOM     16  C   UNL     1      -4.260  15.174  24.227  0.00  0.00    +0.000 A 
ATOM     17  C   UNL     1      -3.546  16.089  25.003  0.00  0.00    +0.000 A 
ATOM     18  C   UNL     1      -2.166  15.979  25.134  0.00  0.00    +0.000 A 
ATOM     19  C   UNL     1      -1.491  14.942  24.491  0.00  0.00    +0.000 A 
ATOM     20  C   UNL     1      -2.188  13.999  23.730  0.00  0.00    +0.000 A 
ATOM     21  C   UNL     1      -3.578  14.132  23.589  0.00  0.00    +0.000 A 
BRANCH  16  23
ATOM     22  C   UNL     1      -6.360  14.662  23.234  0.00  0.00    +0.000 C 
ATOM     23  O   UNL     1      -5.607  15.409  24.177  0.00  0.00    +0.000 OA
ENDBRANCH  16  23
ENDBRANCH   1  20
BRANCH  10  24
ATOM     24  C   UNL     1       2.692   5.146  19.891  0.00  0.00    +0.000 A 
ATOM     25  C   UNL     1       1.934   4.516  20.887  0.00  0.00    +0.000 A 
ATOM     26  C   UNL     1       2.239   3.213  21.290  0.00  0.00    +0.000 A 
ATOM     27  C   UNL     1       3.301   2.527  20.704  0.00  0.00    +0.000 A 
ATOM     28  C   UNL     1       4.059   3.138  19.709  0.00  0.00    +0.000 A 
ATOM     29  C   UNL     1       3.755   4.439  19.304  0.00  0.00    +0.000 A 
ENDBRANCH  10  24
TORSDOF 3
ENDMDL
MODEL 4
REMARK VINA RESULT:      -7.7      1.158      1.436
REMARK  Name = 
REMARK  4 active torsions:
REMARK  status: ('A' for Active; 'I' for Inactive)
REMARK    1  A    between atoms: C_1  and  O_2
REMARK    2  A    between atoms: O_2  and  C_3
REMARK    3  A    between atoms: C_7  and  N_8
REMARK    4  A    between atoms: C_17  and  C_18
REMARK                            x       y       z     vdW  Elec       q    Type
REMARK                         _______ _______ _______ _____ _____    ______ ____
ROOT
ATOM      1  N   UNL     1       1.991   6.328  19.269  0.00  0.00    +0.000 N 
ATOM      2  C   UNL     1       2.225   7.534  18.655  0.00  0.00    +0.000 C 
ATOM      3  O   UNL     1       2.874   7.663  17.618  0.00  0.00    +0.000 OA
ATOM      4  N   UNL     1       1.614   8.630  19.235  0.00  0.00    +0.000 N 
ATOM      5  C   UNL     1       1.707   9.904  18.513  0.00  0.00    +0.000 C 
ATOM      6  C   UNL     1       0.351  10.617  18.508  0.00  0.00    +0.000 C 
ATOM      7  N   UNL     1      -0.100  10.805  19.889  0.00  0.00    +0.000 N 
ATOM      8  C   UNL     1      -0.583  11.989  20.355  0.00  0.00    +0.000 A 
ATOM      9  N   UNL     1      -0.986  12.208  21.590  0.00  0.00    +0.000 NA
ATOM     10  C   UNL     1      -1.361  13.550  21.742  0.00  0.00    +0.000 A 
ATOM     11  N   UNL     1      -1.286  14.352  20.676  0.00  0.00    +0.000 NA
ATOM     12  S   UNL     1      -0.720  13.447  19.419  0.00  0.00    +0.000 S 
ATOM     13  C   UNL     1      -0.188   9.581  20.699  0.00  0.00    +0.000 C 
ATOM     14  C   UNL     1       1.128   8.770  20.620  0.00  0.00    +0.000 C 
ATOM     15  H   UNL     1       1.181   6.289  19.864  0.00  0.00    +0.000 HD
ENDROOT
BRANCH   1  20
ATOM     16  C   UNL     1       4.146   3.310  19.217  0.00  0.00    +0.000 A 
ATOM     17  C   UNL     1       3.597   2.595  18.151  0.00  0.00    +0.000 A 
ATOM     18  C   UNL     1       2.530   3.115  17.426  0.00  0.00    +0.000 A 
ATOM     19  C   UNL     1       1.999   4.356  17.771  0.00  0.00    +0.000 A 
ATOM     20  C   UNL     1       2.515   5.080  18.851  0.00  0.00    +0.000 A 
ATOM     21  C   UNL     1       3.604   4.554  19.562  0.00  0.00    +0.000 A 
BRANCH  16  23
ATOM     22  C   UNL     1       4.889   1.605  20.699  0.00  0.00    +0.000 C 
ATOM     23  O   UNL     1       5.196   2.687  19.832  0.00  0.00    +0.000 OA
ENDBRANCH  16  23
ENDBRANCH   1  20
BRANCH  10  24
ATOM     24  C   UNL     1      -1.818  14.058  23.039  0.00  0.00    +0.000 A 
ATOM     25  C   UNL     1      -3.065  13.684  23.558  0.00  0.00    +0.000 A 
ATOM     26  C   UNL     1      -3.494  14.178  24.794  0.00  0.00    +0.000 A 
ATOM     27  C   UNL     1      -2.685  15.049  25.521  0.00  0.00    +0.000 A 
ATOM     28  C   UNL     1      -1.442  15.424  25.020  0.00  0.00    +0.000 A 
ATOM     29  C   UNL     1      -1.011  14.931  23.787  0.00  0.00    +0.000 A 
ENDBRANCH  10  24
TORSDOF 3
ENDMDL
MODEL 5
REMARK VINA RESULT:      -7.6      0.795      1.191
REMARK  Name = 
REMARK  4 active torsions:
REMARK  status: ('A' for Active; 'I' for Inactive)
REMARK    1  A    between atoms: C_1  and  O_2
REMARK    2  A    between atoms: O_2  and  C_3
REMARK    3  A    between atoms: C_7  and  N_8
REMARK    4  A    between atoms: C_17  and  C_18
REMARK                            x       y       z     vdW  Elec       q    Type
REMARK                         _______ _______ _______ _____ _____    ______ ____
ROOT
ATOM      1  N   UNL     1       1.956   6.455  20.613  0.00  0.00    +0.000 N 
ATOM      2  C   UNL     1       1.880   7.494  19.719  0.00  0.00    +0.000 C 
ATOM      3  O   UNL     1       2.203   7.408  18.535  0.00  0.00    +0.000 OA
ATOM      4  N   UNL     1       1.334   8.667  20.208  0.00  0.00    +0.000 N 
ATOM      5  C   UNL     1       1.085   9.740  19.239  0.00  0.00    +0.000 C 
ATOM      6  C   UNL     1      -0.290  10.371  19.479  0.00  0.00    +0.000 C 
ATOM      7  N   UNL     1      -0.364  10.855  20.860  0.00  0.00    +0.000 N 
ATOM      8  C   UNL     1      -0.828  12.092  21.186  0.00  0.00    +0.000 A 
ATOM      9  N   UNL     1      -0.900  12.574  22.410  0.00  0.00    +0.000 NA
ATOM     10  C   UNL     1      -1.363  13.896  22.379  0.00  0.00    +0.000 A 
ATOM     11  N   UNL     1      -1.671  14.431  21.194  0.00  0.00    +0.000 NA
ATOM     12  S   UNL     1      -1.375  13.284  20.046  0.00  0.00    +0.000 S 
ATOM     13  C   UNL     1      -0.093   9.851  21.898  0.00  0.00    +0.000 C 
ATOM     14  C   UNL     1       1.233   9.103  21.612  0.00  0.00    +0.000 C 
ATOM     15  H   UNL     1       1.348   6.519  21.412  0.00  0.00    +0.000 HD
ENDROOT
BRANCH   1  20
ATOM     16  C   UNL     1       4.342   3.848  19.489  0.00  0.00    +0.000 A 
ATOM     17  C   UNL     1       3.638   2.680  19.787  0.00  0.00    +0.000 A 
ATOM     18  C   UNL     1       2.362   2.744  20.337  0.00  0.00    +0.000 A 
ATOM     19  C   UNL     1       1.784   3.985  20.600  0.00  0.00    +0.000 A 
ATOM     20  C   UNL     1       2.479   5.169  20.333  0.00  0.00    +0.000 A 
ATOM     21  C   UNL     1       3.758   5.091  19.760  0.00  0.00    +0.000 A 
BRANCH  16  23
ATOM     22  C   UNL     1       6.237   4.761  18.379  0.00  0.00    +0.000 C 
ATOM     23  O   UNL     1       5.577   3.637  18.943  0.00  0.00    +0.000 OA
ENDBRANCH  16  23
ENDBRANCH   1  20
BRANCH  10  24
ATOM     24  C   UNL     1      -1.502  14.671  23.616  0.00  0.00    +0.000 A 
ATOM     25  C   UNL     1      -0.588  15.683  23.937  0.00  0.00    +0.000 A 
ATOM     26  C   UNL     1      -0.726  16.412  25.122  0.00  0.00    +0.000 A 
ATOM     27  C   UNL     1      -1.778  16.139  25.996  0.00  0.00    +0.000 A 
ATOM     28  C   UNL     1      -2.697  15.141  25.686  0.00  0.00    +0.000 A 
ATOM     29  C   UNL     1      -2.561  14.412  24.503  0.00  0.00    +0.000 A 
ENDBRANCH  10  24
TORSDOF 3
ENDMDL
MODEL 6
REMARK VINA RESULT:      -7.6      3.145     10.699
REMARK  Name = 
REMARK  4 active torsions:
REMARK  status: ('A' for Active; 'I' for Inactive)
REMARK    1  A    between atoms: C_1  and  O_2
REMARK    2  A    between atoms: O_2  and  C_3
REMARK    3  A    between atoms: C_7  and  N_8
REMARK    4  A    between atoms: C_17  and  C_18
REMARK                            x       y       z     vdW  Elec       q    Type
REMARK                         _______ _______ _______ _____ _____    ______ ____
ROOT
ATOM      1  N   UNL     1      -1.338  11.492  22.483  0.00  0.00    +0.000 N 
ATOM      2  C   UNL     1      -1.011  11.578  21.152  0.00  0.00    +0.000 C 
ATOM      3  O   UNL     1      -1.245  12.559  20.448  0.00  0.00    +0.000 OA
ATOM      4  N   UNL     1      -0.317  10.500  20.634  0.00  0.00    +0.000 N 
ATOM      5  C   UNL     1       0.191  10.631  19.263  0.00  0.00    +0.000 C 
ATOM      6  C   UNL     1       1.628  10.110  19.172  0.00  0.00    +0.000 C 
ATOM      7  N   UNL     1       1.669   8.721  19.639  0.00  0.00    +0.000 N 
ATOM      8  C   UNL     1       2.308   7.731  18.959  0.00  0.00    +0.000 A 
ATOM      9  N   UNL     1       2.360   6.468  19.332  0.00  0.00    +0.000 NA
ATOM     10  C   UNL     1       3.042   5.711  18.370  0.00  0.00    +0.000 A 
ATOM     11  N   UNL     1       3.534   6.342  17.300  0.00  0.00    +0.000 NA
ATOM     12  S   UNL     1       3.142   7.938  17.448  0.00  0.00    +0.000 S 
ATOM     13  C   UNL     1       1.146   8.493  20.993  0.00  0.00    +0.000 C 
ATOM     14  C   UNL     1      -0.259   9.123  21.157  0.00  0.00    +0.000 C 
ATOM     15  H   UNL     1      -0.796  10.841  23.026  0.00  0.00    +0.000 HD
ENDROOT
BRANCH   1  20
ATOM     16  C   UNL     1      -2.049  14.699  24.203  0.00  0.00    +0.000 A 
ATOM     17  C   UNL     1      -3.368  14.507  24.616  0.00  0.00    +0.000 A 
ATOM     18  C   UNL     1      -4.024  13.309  24.352  0.00  0.00    +0.000 A 
ATOM     19  C   UNL     1      -3.361  12.294  23.663  0.00  0.00    +0.000 A 
ATOM     20  C   UNL     1      -2.047  12.473  23.218  0.00  0.00    +0.000 A 
ATOM     21  C   UNL     1      -1.390  13.679  23.507  0.00  0.00    +0.000 A 
BRANCH  16  23
ATOM     22  C   UNL     1      -2.017  16.528  25.723  0.00  0.00    +0.000 C 
ATOM     23  O   UNL     1      -1.526  15.917  24.539  0.00  0.00    +0.000 OA
ENDBRANCH  16  23
ENDBRANCH   1  20
BRANCH  10  24
ATOM     24  C   UNL     1       3.208   4.264  18.536  0.00  0.00    +0.000 A 
ATOM     25  C   UNL     1       4.083   3.746  19.501  0.00  0.00    +0.000 A 
ATOM     26  C   UNL     1       4.237   2.364  19.648  0.00  0.00    +0.000 A 
ATOM     27  C   UNL     1       3.521   1.488  18.834  0.00  0.00    +0.000 A 
ATOM     28  C   UNL     1       2.644   1.988  17.876  0.00  0.00    +0.000 A 
ATOM     29  C   UNL     1       2.488   3.368  17.729  0.00  0.00    +0.000 A 
ENDBRANCH  10  24
TORSDOF 3
ENDMDL
MODEL 7
REMARK VINA RESULT:      -7.6      3.289     10.674
REMARK  Name = 
REMARK  4 active torsions:
REMARK  status: ('A' for Active; 'I' for Inactive)
REMARK    1  A    between atoms: C_1  and  O_2
REMARK    2  A    between atoms: O_2  and  C_3
REMARK    3  A    between atoms: C_7  and  N_8
REMARK    4  A    between atoms: C_17  and  C_18
REMARK                            x       y       z     vdW  Elec       q    Type
REMARK                         _______ _______ _______ _____ _____    ______ ____
ROOT
ATOM      1  N   UNL     1      -1.593  12.843  23.107  0.00  0.00    +0.000 N 
ATOM      2  C   UNL     1      -1.547  12.643  21.750  0.00  0.00    +0.000 C 
ATOM      3  O   UNL     1      -2.005  13.430  20.922  0.00  0.00    +0.000 OA
ATOM      4  N   UNL     1      -0.873  11.510  21.333  0.00  0.00    +0.000 N 
ATOM      5  C   UNL     1      -0.663  11.353  19.890  0.00  0.00    +0.000 C 
ATOM      6  C   UNL     1       0.770  10.891  19.604  0.00  0.00    +0.000 C 
ATOM      7  N   UNL     1       1.030   9.646  20.332  0.00  0.00    +0.000 N 
ATOM      8  C   UNL     1       1.610   8.559  19.754  0.00  0.00    +0.000 A 
ATOM      9  N   UNL     1       1.850   7.416  20.364  0.00  0.00    +0.000 NA
ATOM     10  C   UNL     1       2.394   6.494  19.459  0.00  0.00    +0.000 A 
ATOM     11  N   UNL     1       2.603   6.891  18.201  0.00  0.00    +0.000 NA
ATOM     12  S   UNL     1       2.104   8.459  18.090  0.00  0.00    +0.000 S 
ATOM     13  C   UNL     1       0.810   9.704  21.784  0.00  0.00    +0.000 C 
ATOM     14  C   UNL     1      -0.587  10.289  22.109  0.00  0.00    +0.000 C 
ATOM     15  H   UNL     1      -0.897  12.356  23.646  0.00  0.00    +0.000 HD
ENDROOT
BRANCH   1  20
ATOM     16  C   UNL     1      -1.986  15.990  25.029  0.00  0.00    +0.000 A 
ATOM     17  C   UNL     1      -3.372  16.151  25.020  0.00  0.00    +0.000 A 
ATOM     18  C   UNL     1      -4.189  15.210  24.401  0.00  0.00    +0.000 A 
ATOM     19  C   UNL     1      -3.617  14.100  23.780  0.00  0.00    +0.000 A 
ATOM     20  C   UNL     1      -2.229  13.930  23.755  0.00  0.00    +0.000 A 
ATOM     21  C   UNL     1      -1.418  14.876  24.399  0.00  0.00    +0.000 A 
BRANCH  16  23
ATOM     22  C   UNL     1      -0.664  16.636  26.898  0.00  0.00    +0.000 C 
ATOM     23  O   UNL     1      -1.308  16.983  25.681  0.00  0.00    +0.000 OA
ENDBRANCH  16  23
ENDBRANCH   1  20
BRANCH  10  24
ATOM     24  C   UNL     1       2.722   5.130  19.886  0.00  0.00    +0.000 A 
ATOM     25  C   UNL     1       3.744   4.406  19.257  0.00  0.00    +0.000 A 
ATOM     26  C   UNL     1       4.045   3.104  19.668  0.00  0.00    +0.000 A 
ATOM     27  C   UNL     1       3.330   2.514  20.709  0.00  0.00    +0.000 A 
ATOM     28  C   UNL     1       2.317   3.224  21.346  0.00  0.00    +0.000 A 
ATOM     29  C   UNL     1       2.016   4.525  20.938  0.00  0.00    +0.000 A 
ENDBRANCH  10  24
TORSDOF 3
ENDMDL
MODEL 8
REMARK VINA RESULT:      -7.6      2.844      3.505
REMARK  Name = 
REMARK  4 active torsions:
REMARK  status: ('A' for Active; 'I' for Inactive)
REMARK    1  A    between atoms: C_1  and  O_2
REMARK    2  A    between atoms: O_2  and  C_3
REMARK    3  A    between atoms: C_7  and  N_8
REMARK    4  A    between atoms: C_17  and  C_18
REMARK                            x       y       z     vdW  Elec       q    Type
REMARK                         _______ _______ _______ _____ _____    ______ ____
ROOT
ATOM      1  N   UNL     1       2.558   7.384  18.676  0.00  0.00    +0.000 N 
ATOM      2  C   UNL     1       1.717   7.643  19.730  0.00  0.00    +0.000 C 
ATOM      3  O   UNL     1       1.416   6.815  20.590  0.00  0.00    +0.000 OA
ATOM      4  N   UNL     1       1.263   8.945  19.829  0.00  0.00    +0.000 N 
ATOM      5  C   UNL     1       0.499   9.295  21.032  0.00  0.00    +0.000 C 
ATOM      6  C   UNL     1       0.959  10.647  21.585  0.00  0.00    +0.000 C 
ATOM      7  N   UNL     1       0.827  11.666  20.540  0.00  0.00    +0.000 N 
ATOM      8  C   UNL     1       0.251  12.879  20.759  0.00  0.00    +0.000 A 
ATOM      9  N   UNL     1       0.097  13.819  19.848  0.00  0.00    +0.000 NA
ATOM     10  C   UNL     1      -0.589  14.911  20.395  0.00  0.00    +0.000 A 
ATOM     11  N   UNL     1      -0.941  14.856  21.683  0.00  0.00    +0.000 NA
ATOM     12  S   UNL     1      -0.430  13.402  22.270  0.00  0.00    +0.000 S 
ATOM     13  C   UNL     1       1.534  11.379  19.284  0.00  0.00    +0.000 C 
ATOM     14  C   UNL     1       1.187   9.962  18.764  0.00  0.00    +0.000 C 
ATOM     15  H   UNL     1       3.012   8.185  18.271  0.00  0.00    +0.000 HD
ENDROOT
BRANCH   1  20
ATOM     16  C   UNL     1       5.119   4.713  18.441  0.00  0.00    +0.000 A 
ATOM     17  C   UNL     1       4.379   3.665  17.890  0.00  0.00    +0.000 A 
ATOM     18  C   UNL     1       3.036   3.840  17.570  0.00  0.00    +0.000 A 
ATOM     19  C   UNL     1       2.424   5.070  17.806  0.00  0.00    +0.000 A 
ATOM     20  C   UNL     1       3.138   6.126  18.380  0.00  0.00    +0.000 A 
ATOM     21  C   UNL     1       4.497   5.943  18.681  0.00  0.00    +0.000 A 
BRANCH  16  23
ATOM     22  C   UNL     1       7.400   4.922  17.800  0.00  0.00    +0.000 C 
ATOM     23  O   UNL     1       6.427   4.404  18.695  0.00  0.00    +0.000 OA
ENDBRANCH  16  23
ENDBRANCH   1  20
BRANCH  10  24
ATOM     24  C   UNL     1      -0.915  16.080  19.573  0.00  0.00    +0.000 A 
ATOM     25  C   UNL     1      -1.988  16.917  19.906  0.00  0.00    +0.000 A 
ATOM     26  C   UNL     1      -2.293  18.027  19.112  0.00  0.00    +0.000 A 
ATOM     27  C   UNL     1      -1.531  18.311  17.980  0.00  0.00    +0.000 A 
ATOM     28  C   UNL     1      -0.459  17.491  17.640  0.00  0.00    +0.000 A 
ATOM     29  C   UNL     1      -0.152  16.383  18.433  0.00  0.00    +0.000 A 
ENDBRANCH  10  24
TORSDOF 3
ENDMDL
MODEL 9
REMARK VINA RESULT:      -7.6      3.232     10.770
REMARK  Name = 
REMARK  4 active torsions:
REMARK  status: ('A' for Active; 'I' for Inactive)
REMARK    1  A    between atoms: C_1  and  O_2
REMARK    2  A    between atoms: O_2  and  C_3
REMARK    3  A    between atoms: C_7  and  N_8
REMARK    4  A    between atoms: C_17  and  C_18
REMARK                            x       y       z     vdW  Elec       q    Type
REMARK                         _______ _______ _______ _____ _____    ______ ____
ROOT
ATOM      1  N   UNL     1      -1.499  11.629  22.366  0.00  0.00    +0.000 N 
ATOM      2  C   UNL     1      -1.125  11.717  21.048  0.00  0.00    +0.000 C 
ATOM      3  O   UNL     1      -1.324  12.703  20.340  0.00  0.00    +0.000 OA
ATOM      4  N   UNL     1      -0.422  10.634  20.551  0.00  0.00    +0.000 N 
ATOM      5  C   UNL     1       0.135  10.765  19.200  0.00  0.00    +0.000 C 
ATOM      6  C   UNL     1       1.570  10.230  19.159  0.00  0.00    +0.000 C 
ATOM      7  N   UNL     1       1.581   8.840  19.621  0.00  0.00    +0.000 N 
ATOM      8  C   UNL     1       2.234   7.846  18.960  0.00  0.00    +0.000 A 
ATOM      9  N   UNL     1       2.260   6.581  19.330  0.00  0.00    +0.000 NA
ATOM     10  C   UNL     1       2.969   5.821  18.390  0.00  0.00    +0.000 A 
ATOM     11  N   UNL     1       3.505   6.451  17.341  0.00  0.00    +0.000 NA
ATOM     12  S   UNL     1       3.124   8.050  17.481  0.00  0.00    +0.000 S 
ATOM     13  C   UNL     1       1.007   8.611  20.955  0.00  0.00    +0.000 C 
ATOM     14  C   UNL     1      -0.397   9.254  21.071  0.00  0.00    +0.000 C 
ATOM     15  H   UNL     1      -0.984  10.971  22.926  0.00  0.00    +0.000 HD
ENDROOT
BRANCH   1  20
ATOM     16  C   UNL     1      -4.383  13.381  23.904  0.00  0.00    +0.000 A 
ATOM     17  C   UNL     1      -3.756  14.469  24.512  0.00  0.00    +0.000 A 
ATOM     18  C   UNL     1      -2.381  14.647  24.399  0.00  0.00    +0.000 A 
ATOM     19  C   UNL     1      -1.622  13.726  23.677  0.00  0.00    +0.000 A 
ATOM     20  C   UNL     1      -2.225  12.615  23.079  0.00  0.00    +0.000 A 
ATOM     21  C   UNL     1      -3.615  12.458  23.185  0.00  0.00    +0.000 A 
BRANCH  16  23
ATOM     22  C   UNL     1      -6.483  14.478  23.688  0.00  0.00    +0.000 C 
ATOM     23  O   UNL     1      -5.738  13.337  24.087  0.00  0.00    +0.000 OA
ENDBRANCH  16  23
ENDBRANCH   1  20
BRANCH  10  24
ATOM     24  C   UNL     1       3.115   4.371  18.556  0.00  0.00    +0.000 A 
ATOM     25  C   UNL     1       2.518   3.481  17.654  0.00  0.00    +0.000 A 
ATOM     26  C   UNL     1       2.658   2.100  17.824  0.00  0.00    +0.000 A 
ATOM     27  C   UNL     1       3.396   1.597  18.895  0.00  0.00    +0.000 A 
ATOM     28  C   UNL     1       4.000   2.470  19.795  0.00  0.00    +0.000 A 
ATOM     29  C   UNL     1       3.861   3.849  19.626  0.00  0.00    +0.000 A 
ENDBRANCH  10  24
TORSDOF 3
ENDMDL
