MODEL 1
REMARK VINA RESULT:      -8.6      0.000      0.000
REMARK  Name = 
REMARK  12 active torsions:
REMARK  status: ('A' for Active; 'I' for Inactive)
REMARK    1  A    between atoms: C_1  and  O_2
REMARK    2  A    between atoms: O_2  and  C_3
REMARK    3  A    between atoms: C_6  and  C_7
REMARK    4  A    between atoms: C_10  and  O_11
REMARK    5  A    between atoms: O_11  and  C_12
REMARK    6  A    between atoms: C_12  and  C_13
REMARK    7  A    between atoms: C_15  and  C_16
REMARK    8  A    between atoms: N_18  and  S_19
REMARK    9  A    between atoms: S_19  and  C_22
REMARK   10  A    between atoms: C_23  and  C_24
REMARK   11  A    between atoms: C_27  and  C_28
REMARK   12  A    between atoms: C_30  and  C_31
REMARK                            x       y       z     vdW  Elec       q    Type
REMARK                         _______ _______ _______ _____ _____    ______ ____
ROOT
ATOM      1  C   UNL     1       1.452   8.799  18.969  0.00  0.00    +0.000 A 
ATOM      2  C   UNL     1       2.314   7.864  18.346  0.00  0.00    +0.000 A 
ATOM      3  C   UNL     1       2.544   6.861  19.264  0.00  0.00    +0.000 A 
ATOM      4  O   UNL     1       1.861   7.125  20.423  0.00  0.00    +0.000 OA
ATOM      5  C   UNL     1       1.199   8.300  20.232  0.00  0.00    +0.000 A 
ATOM      6  C   UNL     1       0.386   8.814  21.357  0.00  0.00    +0.000 C 
ENDROOT
BRANCH   3   7
ATOM      7  C   UNL     1       3.360   5.682  19.153  0.00  0.00    +0.000 C 
ATOM      8  O   UNL     1       3.554   4.899  20.070  0.00  0.00    +0.000 OA
ATOM      9  N   UNL     1       3.882   5.498  17.873  0.00  0.00    +0.000 N 
ATOM     10  H   UNL     1       3.681   6.177  17.145  0.00  0.00    +0.000 HD
BRANCH   9  11
ATOM     11  S   UNL     1       4.961   4.315  17.481  0.00  0.00    +0.000 S 
ATOM     12  O   UNL     1       5.609   3.959  18.724  0.00  0.00    +0.000 OA
ATOM     13  O   UNL     1       4.307   3.310  16.676  0.00  0.00    +0.000 OA
BRANCH  11  14
ATOM     14  C   UNL     1       6.197   4.980  16.515  0.00  0.00    +0.000 A 
ATOM     15  C   UNL     1       6.501   4.727  15.155  0.00  0.00    +0.000 A 
ATOM     16  C   UNL     1       5.869   3.826  14.160  0.00  0.00    +0.000 C 
ATOM     17  N   UNL     1       7.538   5.481  14.757  0.00  0.00    +0.000 NA
ATOM     18  O   UNL     1       7.905   6.241  15.847  0.00  0.00    +0.000 OA
ATOM     19  C   UNL     1       7.095   5.950  16.898  0.00  0.00    +0.000 A 
ATOM     20  C   UNL     1       7.341   6.710  18.138  0.00  0.00    +0.000 C 
ENDBRANCH  11  14
ENDBRANCH   9  11
ENDBRANCH   3   7
BRANCH   1  21
ATOM     21  C   UNL     1       0.972  10.086  18.410  0.00  0.00    +0.000 C 
BRANCH  21  22
ATOM     22  O   UNL     1      -0.275   9.929  17.722  0.00  0.00    +0.000 OA
BRANCH  22  26
ATOM     23  C   UNL     1      -3.520  12.086  19.272  0.00  0.00    +0.000 A 
ATOM     24  C   UNL     1      -2.243  12.214  19.842  0.00  0.00    +0.000 A 
ATOM     25  C   UNL     1      -1.137  11.558  19.315  0.00  0.00    +0.000 A 
ATOM     26  C   UNL     1      -1.287  10.693  18.237  0.00  0.00    +0.000 A 
ATOM     27  C   UNL     1      -2.536  10.562  17.634  0.00  0.00    +0.000 A 
ATOM     28  C   UNL     1      -3.643  11.254  18.145  0.00  0.00    +0.000 A 
BRANCH  23  32
ATOM     29  C   UNL     1      -6.823  14.309  20.908  0.00  0.00    +0.000 A 
ATOM     30  C   UNL     1      -6.965  13.605  19.719  0.00  0.00    +0.000 A 
ATOM     31  C   UNL     1      -5.908  12.842  19.227  0.00  0.00    +0.000 A 
ATOM     32  C   UNL     1      -4.660  12.802  19.879  0.00  0.00    +0.000 A 
ATOM     33  C   UNL     1      -4.538  13.521  21.077  0.00  0.00    +0.000 A 
ATOM     34  C   UNL     1      -5.611  14.264  21.591  0.00  0.00    +0.000 A 
BRANCH  29  36
ATOM     35  C   UNL     1      -7.738  16.456  21.223  0.00  0.00    +0.000 C 
ATOM     36  O   UNL     1      -7.912  15.047  21.274  0.00  0.00    +0.000 OA
ENDBRANCH  29  36
ENDBRANCH  23  32
ENDBRANCH  22  26
ENDBRANCH  21  22
ENDBRANCH   1  21
TORSDOF 8
ENDMDL
MODEL 2
REMARK VINA RESULT:      -8.3      4.677     12.541
REMARK  Name = 
REMARK  12 active torsions:
REMARK  status: ('A' for Active; 'I' for Inactive)
REMARK    1  A    between atoms: C_1  and  O_2
REMARK    2  A    between atoms: O_2  and  C_3
REMARK    3  A    between atoms: C_6  and  C_7
REMARK    4  A    between atoms: C_10  and  O_11
REMARK    5  A    between atoms: O_11  and  C_12
REMARK    6  A    between atoms: C_12  and  C_13
REMARK    7  A    between atoms: C_15  and  C_16
REMARK    8  A    between atoms: N_18  and  S_19
REMARK    9  A    between atoms: S_19  and  C_22
REMARK   10  A    between atoms: C_23  and  C_24
REMARK   11  A    between atoms: C_27  and  C_28
REMARK   12  A    between atoms: C_30  and  C_31
REMARK                            x       y       z     vdW  Elec       q    Type
REMARK                         _______ _______ _______ _____ _____    ______ ____
ROOT
ATOM      1  C   UNL     1       0.012  10.411  21.643  0.00  0.00    +0.000 A 
ATOM      2  C   UNL     1      -1.062  10.633  22.539  0.00  0.00    +0.000 A 
ATOM      3  C   UNL     1      -1.797  11.682  22.029  0.00  0.00    +0.000 A 
ATOM      4  O   UNL     1      -1.234  12.118  20.856  0.00  0.00    +0.000 OA
ATOM      5  C   UNL     1      -0.141  11.337  20.629  0.00  0.00    +0.000 A 
ATOM      6  C   UNL     1       0.655  11.618  19.415  0.00  0.00    +0.000 C 
ENDROOT
BRANCH   3   7
ATOM      7  C   UNL     1      -2.974  12.321  22.553  0.00  0.00    +0.000 C 
ATOM      8  O   UNL     1      -3.497  12.020  23.615  0.00  0.00    +0.000 OA
ATOM      9  N   UNL     1      -3.441  13.354  21.742  0.00  0.00    +0.000 N 
ATOM     10  H   UNL     1      -2.962  13.567  20.872  0.00  0.00    +0.000 HD
BRANCH   9  11
ATOM     11  S   UNL     1      -4.846  14.173  22.013  0.00  0.00    +0.000 S 
ATOM     12  O   UNL     1      -4.744  14.671  23.367  0.00  0.00    +0.000 OA
ATOM     13  O   UNL     1      -5.101  15.073  20.913  0.00  0.00    +0.000 OA
BRANCH  11  14
ATOM     14  C   UNL     1      -6.143  13.070  22.046  0.00  0.00    +0.000 A 
ATOM     15  C   UNL     1      -6.499  12.081  21.096  0.00  0.00    +0.000 A 
ATOM     16  C   UNL     1      -5.886  11.700  19.800  0.00  0.00    +0.000 C 
ATOM     17  N   UNL     1      -7.576  11.394  21.513  0.00  0.00    +0.000 NA
ATOM     18  O   UNL     1      -7.916  11.918  22.742  0.00  0.00    +0.000 OA
ATOM     19  C   UNL     1      -7.052  12.914  23.068  0.00  0.00    +0.000 A 
ATOM     20  C   UNL     1      -7.265  13.556  24.379  0.00  0.00    +0.000 C 
ENDBRANCH  11  14
ENDBRANCH   9  11
ENDBRANCH   3   7
BRANCH   1  21
ATOM     21  C   UNL     1       1.116   9.433  21.793  0.00  0.00    +0.000 C 
BRANCH  21  22
ATOM     22  O   UNL     1       0.728   8.128  21.346  0.00  0.00    +0.000 OA
BRANCH  22  26
ATOM     23  C   UNL     1       3.233   6.262  18.548  0.00  0.00    +0.000 A 
ATOM     24  C   UNL     1       2.831   7.595  18.366  0.00  0.00    +0.000 A 
ATOM     25  C   UNL     1       2.050   8.259  19.304  0.00  0.00    +0.000 A 
ATOM     26  C   UNL     1       1.584   7.584  20.427  0.00  0.00    +0.000 A 
ATOM     27  C   UNL     1       1.985   6.268  20.649  0.00  0.00    +0.000 A 
ATOM     28  C   UNL     1       2.803   5.613  19.718  0.00  0.00    +0.000 A 
BRANCH  23  32
ATOM     29  C   UNL     1       5.495   4.381  15.405  0.00  0.00    +0.000 A 
ATOM     30  C   UNL     1       5.369   5.764  15.455  0.00  0.00    +0.000 A 
ATOM     31  C   UNL     1       4.683   6.367  16.507  0.00  0.00    +0.000 A 
ATOM     32  C   UNL     1       4.057   5.605  17.513  0.00  0.00    +0.000 A 
ATOM     33  C   UNL     1       4.197   4.211  17.444  0.00  0.00    +0.000 A 
ATOM     34  C   UNL     1       4.914   3.604  16.403  0.00  0.00    +0.000 A 
BRANCH  29  36
ATOM     35  C   UNL     1       7.101   4.794  13.733  0.00  0.00    +0.000 C 
ATOM     36  O   UNL     1       6.158   3.902  14.312  0.00  0.00    +0.000 OA
ENDBRANCH  29  36
ENDBRANCH  23  32
ENDBRANCH  22  26
ENDBRANCH  21  22
ENDBRANCH   1  21
TORSDOF 8
ENDMDL
MODEL 3
REMARK VINA RESULT:      -8.3      1.525      2.537
REMARK  Name = 
REMARK  12 active torsions:
REMARK  status: ('A' for Active; 'I' for Inactive)
REMARK    1  A    between atoms: C_1  and  O_2
REMARK    2  A    between atoms: O_2  and  C_3
REMARK    3  A    between atoms: C_6  and  C_7
REMARK    4  A    between atoms: C_10  and  O_11
REMARK    5  A    between atoms: O_11  and  C_12
REMARK    6  A    between atoms: C_12  and  C_13
REMARK    7  A    between atoms: C_15  and  C_16
REMARK    8  A    between atoms: N_18  and  S_19
REMARK    9  A    between atoms: S_19  and  C_22
REMARK   10  A    between atoms: C_23  and  C_24
REMARK   11  A    between atoms: C_27  and  C_28
REMARK   12  A    between atoms: C_30  and  C_31
REMARK                            x       y       z     vdW  Elec       q    Type
REMARK                         _______ _______ _______ _____ _____    ______ ____
ROOT
ATOM      1  C   UNL     1       1.105   8.101  20.708  0.00  0.00    +0.000 A 
ATOM      2  C   UNL     1       1.647   6.808  20.903  0.00  0.00    +0.000 A 
ATOM      3  C   UNL     1       2.386   6.511  19.777  0.00  0.00    +0.000 A 
ATOM      4  O   UNL     1       2.333   7.560  18.896  0.00  0.00    +0.000 OA
ATOM      5  C   UNL     1       1.558   8.520  19.471  0.00  0.00    +0.000 A 
ATOM      6  C   UNL     1       1.335   9.766  18.704  0.00  0.00    +0.000 C 
ENDROOT
BRANCH   3   7
ATOM      7  C   UNL     1       3.126   5.321  19.450  0.00  0.00    +0.000 C 
ATOM      8  O   UNL     1       2.920   4.230  19.958  0.00  0.00    +0.000 OA
ATOM      9  N   UNL     1       4.084   5.530  18.459  0.00  0.00    +0.000 N 
ATOM     10  H   UNL     1       4.207   6.458  18.065  0.00  0.00    +0.000 HD
BRANCH   9  11
ATOM     11  S   UNL     1       5.173   4.390  17.978  0.00  0.00    +0.000 S 
ATOM     12  O   UNL     1       5.978   4.110  19.147  0.00  0.00    +0.000 OA
ATOM     13  O   UNL     1       4.486   3.327  17.283  0.00  0.00    +0.000 OA
BRANCH  11  14
ATOM     14  C   UNL     1       6.253   5.083  16.857  0.00  0.00    +0.000 A 
ATOM     15  C   UNL     1       7.235   6.083  17.064  0.00  0.00    +0.000 A 
ATOM     16  C   UNL     1       7.627   6.837  18.280  0.00  0.00    +0.000 C 
ATOM     17  N   UNL     1       7.902   6.330  15.924  0.00  0.00    +0.000 NA
ATOM     18  O   UNL     1       7.372   5.482  14.975  0.00  0.00    +0.000 OA
ATOM     19  C   UNL     1       6.392   4.726  15.535  0.00  0.00    +0.000 A 
ATOM     20  C   UNL     1       5.747   3.739  14.650  0.00  0.00    +0.000 C 
ENDBRANCH  11  14
ENDBRANCH   9  11
ENDBRANCH   3   7
BRANCH   1  21
ATOM     21  C   UNL     1       0.183   8.832  21.610  0.00  0.00    +0.000 C 
BRANCH  21  22
ATOM     22  O   UNL     1       0.488  10.231  21.653  0.00  0.00    +0.000 OA
BRANCH  22  26
ATOM     23  C   UNL     1      -2.952  12.589  22.092  0.00  0.00    +0.000 A 
ATOM     24  C   UNL     1      -2.391  11.936  23.201  0.00  0.00    +0.000 A 
ATOM     25  C   UNL     1      -1.219  11.196  23.099  0.00  0.00    +0.000 A 
ATOM     26  C   UNL     1      -0.607  11.026  21.863  0.00  0.00    +0.000 A 
ATOM     27  C   UNL     1      -1.126  11.680  20.747  0.00  0.00    +0.000 A 
ATOM     28  C   UNL     1      -2.287  12.457  20.861  0.00  0.00    +0.000 A 
BRANCH  23  32
ATOM     29  C   UNL     1      -6.506  14.981  22.514  0.00  0.00    +0.000 A 
ATOM     30  C   UNL     1      -6.066  14.586  21.257  0.00  0.00    +0.000 A 
ATOM     31  C   UNL     1      -4.947  13.764  21.134  0.00  0.00    +0.000 A 
ATOM     32  C   UNL     1      -4.203  13.356  22.259  0.00  0.00    +0.000 A 
ATOM     33  C   UNL     1      -4.665  13.767  23.518  0.00  0.00    +0.000 A 
ATOM     34  C   UNL     1      -5.809  14.568  23.646  0.00  0.00    +0.000 A 
BRANCH  29  36
ATOM     35  C   UNL     1      -7.767  16.575  21.324  0.00  0.00    +0.000 C 
ATOM     36  O   UNL     1      -7.590  15.811  22.509  0.00  0.00    +0.000 OA
ENDBRANCH  29  36
ENDBRANCH  23  32
ENDBRANCH  22  26
ENDBRANCH  21  22
ENDBRANCH   1  21
TORSDOF 8
ENDMDL
MODEL 4
REMARK VINA RESULT:      -8.3      0.665      1.691
REMARK  Name = 
REMARK  12 active torsions:
REMARK  status: ('A' for Active; 'I' for Inactive)
REMARK    1  A    between atoms: C_1  and  O_2
REMARK    2  A    between atoms: O_2  and  C_3
REMARK    3  A    between atoms: C_6  and  C_7
REMARK    4  A    between atoms: C_10  and  O_11
REMARK    5  A    between atoms: O_11  and  C_12
REMARK    6  A    between atoms: C_12  and  C_13
REMARK    7  A    between atoms: C_15  and  C_16
REMARK    8  A    between atoms: N_18  and  S_19
REMARK    9  A    between atoms: S_19  and  C_22
REMARK   10  A    between atoms: C_23  and  C_24
REMARK   11  A    between atoms: C_27  and  C_28
REMARK   12  A    between atoms: C_30  and  C_31
REMARK                            x       y       z     vdW  Elec       q    Type
REMARK                         _______ _______ _______ _____ _____    ______ ____
ROOT
ATOM      1  C   UNL     1       1.398   8.995  19.610  0.00  0.00    +0.000 A 
ATOM      2  C   UNL     1       2.115   8.025  18.869  0.00  0.00    +0.000 A 
ATOM      3  C   UNL     1       2.307   6.946  19.705  0.00  0.00    +0.000 A 
ATOM      4  O   UNL     1       1.739   7.197  20.927  0.00  0.00    +0.000 OA
ATOM      5  C   UNL     1       1.187   8.440  20.857  0.00  0.00    +0.000 A 
ATOM      6  C   UNL     1       0.512   8.954  22.069  0.00  0.00    +0.000 C 
ENDROOT
BRANCH   3   7
ATOM      7  C   UNL     1       2.991   5.703  19.461  0.00  0.00    +0.000 C 
ATOM      8  O   UNL     1       2.720   4.655  20.026  0.00  0.00    +0.000 OA
ATOM      9  N   UNL     1       3.976   5.805  18.480  0.00  0.00    +0.000 N 
ATOM     10  H   UNL     1       4.154   6.702  18.036  0.00  0.00    +0.000 HD
BRANCH   9  11
ATOM     11  S   UNL     1       5.013   4.586  18.088  0.00  0.00    +0.000 S 
ATOM     12  O   UNL     1       5.777   4.330  19.289  0.00  0.00    +0.000 OA
ATOM     13  O   UNL     1       4.285   3.522  17.435  0.00  0.00    +0.000 OA
BRANCH  11  14
ATOM     14  C   UNL     1       6.151   5.158  16.957  0.00  0.00    +0.000 A 
ATOM     15  C   UNL     1       7.199   6.093  17.140  0.00  0.00    +0.000 A 
ATOM     16  C   UNL     1       7.631   6.862  18.333  0.00  0.00    +0.000 C 
ATOM     17  N   UNL     1       7.894   6.250  16.001  0.00  0.00    +0.000 NA
ATOM     18  O   UNL     1       7.316   5.406  15.076  0.00  0.00    +0.000 OA
ATOM     19  C   UNL     1       6.279   4.743  15.650  0.00  0.00    +0.000 A 
ATOM     20  C   UNL     1       5.573   3.772  14.793  0.00  0.00    +0.000 C 
ENDBRANCH  11  14
ENDBRANCH   9  11
ENDBRANCH   3   7
BRANCH   1  21
ATOM     21  C   UNL     1       1.013  10.357  19.167  0.00  0.00    +0.000 C 
BRANCH  21  22
ATOM     22  O   UNL     1      -0.084  10.319  18.246  0.00  0.00    +0.000 OA
BRANCH  22  26
ATOM     23  C   UNL     1      -3.420  12.377  19.738  0.00  0.00    +0.000 A 
ATOM     24  C   UNL     1      -3.523  11.609  18.567  0.00  0.00    +0.000 A 
ATOM     25  C   UNL     1      -2.452  10.869  18.081  0.00  0.00    +0.000 A 
ATOM     26  C   UNL     1      -1.216  10.931  18.714  0.00  0.00    +0.000 A 
ATOM     27  C   UNL     1      -1.087  11.666  19.891  0.00  0.00    +0.000 A 
ATOM     28  C   UNL     1      -2.180  12.382  20.400  0.00  0.00    +0.000 A 
BRANCH  23  32
ATOM     29  C   UNL     1      -6.782  14.765  20.971  0.00  0.00    +0.000 A 
ATOM     30  C   UNL     1      -6.802  14.091  19.757  0.00  0.00    +0.000 A 
ATOM     31  C   UNL     1      -5.733  13.274  19.392  0.00  0.00    +0.000 A 
ATOM     32  C   UNL     1      -4.589  13.149  20.205  0.00  0.00    +0.000 A 
ATOM     33  C   UNL     1      -4.590  13.840  21.426  0.00  0.00    +0.000 A 
ATOM     34  C   UNL     1      -5.678  14.637  21.809  0.00  0.00    +0.000 A 
BRANCH  29  36
ATOM     35  C   UNL     1      -7.720  16.921  20.822  0.00  0.00    +0.000 C 
ATOM     36  O   UNL     1      -7.867  15.560  21.206  0.00  0.00    +0.000 OA
ENDBRANCH  29  36
ENDBRANCH  23  32
ENDBRANCH  22  26
ENDBRANCH  21  22
ENDBRANCH   1  21
TORSDOF 8
ENDMDL
MODEL 5
REMARK VINA RESULT:      -8.1      3.848     10.840
REMARK  Name = 
REMARK  12 active torsions:
REMARK  status: ('A' for Active; 'I' for Inactive)
REMARK    1  A    between atoms: C_1  and  O_2
REMARK    2  A    between atoms: O_2  and  C_3
REMARK    3  A    between atoms: C_6  and  C_7
REMARK    4  A    between atoms: C_10  and  O_11
REMARK    5  A    between atoms: O_11  and  C_12
REMARK    6  A    between atoms: C_12  and  C_13
REMARK    7  A    between atoms: C_15  and  C_16
REMARK    8  A    between atoms: N_18  and  S_19
REMARK    9  A    between atoms: S_19  and  C_22
REMARK   10  A    between atoms: C_23  and  C_24
REMARK   11  A    between atoms: C_27  and  C_28
REMARK   12  A    between atoms: C_30  and  C_31
REMARK                            x       y       z     vdW  Elec       q    Type
REMARK                         _______ _______ _______ _____ _____    ______ ____
ROOT
ATOM      1  C   UNL     1       4.214   5.332  18.961  0.00  0.00    +0.000 A 
ATOM      2  C   UNL     1       3.986   6.539  18.257  0.00  0.00    +0.000 A 
ATOM      3  C   UNL     1       2.791   7.050  18.717  0.00  0.00    +0.000 A 
ATOM      4  O   UNL     1       2.270   6.222  19.678  0.00  0.00    +0.000 OA
ATOM      5  C   UNL     1       3.142   5.186  19.821  0.00  0.00    +0.000 A 
ATOM      6  C   UNL     1       2.797   4.136  20.804  0.00  0.00    +0.000 C 
ENDROOT
BRANCH   3   7
ATOM      7  C   UNL     1       2.088   8.242  18.325  0.00  0.00    +0.000 C 
ATOM      8  O   UNL     1       2.144   8.728  17.206  0.00  0.00    +0.000 OA
ATOM      9  N   UNL     1       1.299   8.771  19.344  0.00  0.00    +0.000 N 
ATOM     10  H   UNL     1       1.283   8.320  20.255  0.00  0.00    +0.000 HD
BRANCH   9  11
ATOM     11  S   UNL     1       0.490  10.203  19.233  0.00  0.00    +0.000 S 
ATOM     12  O   UNL     1       1.500  11.191  18.920  0.00  0.00    +0.000 OA
ATOM     13  O   UNL     1      -0.670  10.040  18.389  0.00  0.00    +0.000 OA
BRANCH  11  14
ATOM     14  C   UNL     1      -0.090  10.642  20.774  0.00  0.00    +0.000 A 
ATOM     15  C   UNL     1       0.283  10.141  22.045  0.00  0.00    +0.000 A 
ATOM     16  C   UNL     1       1.264   9.100  22.439  0.00  0.00    +0.000 C 
ATOM     17  N   UNL     1      -0.391  10.775  23.018  0.00  0.00    +0.000 NA
ATOM     18  O   UNL     1      -1.194  11.704  22.389  0.00  0.00    +0.000 OA
ATOM     19  C   UNL     1      -1.006  11.633  21.046  0.00  0.00    +0.000 A 
ATOM     20  C   UNL     1      -1.775  12.592  20.231  0.00  0.00    +0.000 C 
ENDBRANCH  11  14
ENDBRANCH   9  11
ENDBRANCH   3   7
BRANCH   1  21
ATOM     21  C   UNL     1       5.335   4.380  18.769  0.00  0.00    +0.000 C 
BRANCH  21  22
ATOM     22  O   UNL     1       6.152   4.749  17.652  0.00  0.00    +0.000 OA
BRANCH  22  26
ATOM     23  C   UNL     1       8.099   8.425  18.181  0.00  0.00    +0.000 A 
ATOM     24  C   UNL     1       8.360   7.351  19.047  0.00  0.00    +0.000 A 
ATOM     25  C   UNL     1       7.775   6.104  18.862  0.00  0.00    +0.000 A 
ATOM     26  C   UNL     1       6.851   5.910  17.842  0.00  0.00    +0.000 A 
ATOM     27  C   UNL     1       6.589   6.950  16.951  0.00  0.00    +0.000 A 
ATOM     28  C   UNL     1       7.208   8.196  17.118  0.00  0.00    +0.000 A 
BRANCH  23  32
ATOM     29  C   UNL     1       9.851  12.260  19.049  0.00  0.00    +0.000 A 
ATOM     30  C   UNL     1      10.068  11.177  19.892  0.00  0.00    +0.000 A 
ATOM     31  C   UNL     1       9.544   9.926  19.573  0.00  0.00    +0.000 A 
ATOM     32  C   UNL     1       8.744   9.730  18.430  0.00  0.00    +0.000 A 
ATOM     33  C   UNL     1       8.537  10.837  17.593  0.00  0.00    +0.000 A 
ATOM     34  C   UNL     1       9.090  12.090  17.896  0.00  0.00    +0.000 A 
BRANCH  29  36
ATOM     35  C   UNL     1       9.467  14.330  20.105  0.00  0.00    +0.000 C 
ATOM     36  O   UNL     1      10.384  13.441  19.480  0.00  0.00    +0.000 OA
ENDBRANCH  29  36
ENDBRANCH  23  32
ENDBRANCH  22  26
ENDBRANCH  21  22
ENDBRANCH   1  21
TORSDOF 8
ENDMDL
MODEL 6
REMARK VINA RESULT:      -8.1      4.654     12.666
REMARK  Name = 
REMARK  12 active torsions:
REMARK  status: ('A' for Active; 'I' for Inactive)
REMARK    1  A    between atoms: C_1  and  O_2
REMARK    2  A    between atoms: O_2  and  C_3
REMARK    3  A    between atoms: C_6  and  C_7
REMARK    4  A    between atoms: C_10  and  O_11
REMARK    5  A    between atoms: O_11  and  C_12
REMARK    6  A    between atoms: C_12  and  C_13
REMARK    7  A    between atoms: C_15  and  C_16
REMARK    8  A    between atoms: N_18  and  S_19
REMARK    9  A    between atoms: S_19  and  C_22
REMARK   10  A    between atoms: C_23  and  C_24
REMARK   11  A    between atoms: C_27  and  C_28
REMARK   12  A    between atoms: C_30  and  C_31
REMARK                            x       y       z     vdW  Elec       q    Type
REMARK                         _______ _______ _______ _____ _____    ______ ____
ROOT
ATOM      1  C   UNL     1       0.260  10.082  21.947  0.00  0.00    +0.000 A 
ATOM      2  C   UNL     1      -0.627  10.524  22.958  0.00  0.00    +0.000 A 
ATOM      3  C   UNL     1      -1.164  11.717  22.524  0.00  0.00    +0.000 A 
ATOM      4  O   UNL     1      -0.657  12.034  21.289  0.00  0.00    +0.000 OA
ATOM      5  C   UNL     1       0.202  11.034  20.947  0.00  0.00    +0.000 A 
ATOM      6  C   UNL     1       0.896  11.148  19.645  0.00  0.00    +0.000 C 
ENDROOT
BRANCH   3   7
ATOM      7  C   UNL     1      -2.101  12.595  23.173  0.00  0.00    +0.000 C 
ATOM      8  O   UNL     1      -1.776  13.567  23.835  0.00  0.00    +0.000 OA
ATOM      9  N   UNL     1      -3.429  12.245  22.937  0.00  0.00    +0.000 N 
ATOM     10  H   UNL     1      -3.642  11.428  22.370  0.00  0.00    +0.000 HD
BRANCH   9  11
ATOM     11  S   UNL     1      -4.717  12.979  23.659  0.00  0.00    +0.000 S 
ATOM     12  O   UNL     1      -5.330  11.958  24.480  0.00  0.00    +0.000 OA
ATOM     13  O   UNL     1      -4.297  14.236  24.234  0.00  0.00    +0.000 OA
BRANCH  11  14
ATOM     14  C   UNL     1      -5.885  13.354  22.477  0.00  0.00    +0.000 A 
ATOM     15  C   UNL     1      -5.780  14.219  21.360  0.00  0.00    +0.000 A 
ATOM     16  C   UNL     1      -4.659  15.059  20.872  0.00  0.00    +0.000 C 
ATOM     17  N   UNL     1      -6.921  14.215  20.652  0.00  0.00    +0.000 NA
ATOM     18  O   UNL     1      -7.769  13.336  21.292  0.00  0.00    +0.000 OA
ATOM     19  C   UNL     1      -7.146  12.811  22.379  0.00  0.00    +0.000 A 
ATOM     20  C   UNL     1      -7.916  11.822  23.155  0.00  0.00    +0.000 C 
ENDBRANCH  11  14
ENDBRANCH   9  11
ENDBRANCH   3   7
BRANCH   1  21
ATOM     21  C   UNL     1       1.129   8.881  21.980  0.00  0.00    +0.000 C 
BRANCH  21  22
ATOM     22  O   UNL     1       0.585   7.815  21.191  0.00  0.00    +0.000 OA
BRANCH  22  26
ATOM     23  C   UNL     1       3.461   6.282  18.553  0.00  0.00    +0.000 A 
ATOM     24  C   UNL     1       3.018   5.518  19.645  0.00  0.00    +0.000 A 
ATOM     25  C   UNL     1       2.024   5.975  20.502  0.00  0.00    +0.000 A 
ATOM     26  C   UNL     1       1.490   7.247  20.336  0.00  0.00    +0.000 A 
ATOM     27  C   UNL     1       1.892   8.021  19.249  0.00  0.00    +0.000 A 
ATOM     28  C   UNL     1       2.868   7.542  18.364  0.00  0.00    +0.000 A 
BRANCH  23  32
ATOM     29  C   UNL     1       6.515   4.857  15.874  0.00  0.00    +0.000 A 
ATOM     30  C   UNL     1       6.675   6.058  16.553  0.00  0.00    +0.000 A 
ATOM     31  C   UNL     1       5.708   6.483  17.462  0.00  0.00    +0.000 A 
ATOM     32  C   UNL     1       4.526   5.748  17.679  0.00  0.00    +0.000 A 
ATOM     33  C   UNL     1       4.384   4.539  16.983  0.00  0.00    +0.000 A 
ATOM     34  C   UNL     1       5.371   4.094  16.092  0.00  0.00    +0.000 A 
BRANCH  29  36
ATOM     35  C   UNL     1       7.217   4.852  13.626  0.00  0.00    +0.000 C 
ATOM     36  O   UNL     1       7.509   4.560  14.986  0.00  0.00    +0.000 OA
ENDBRANCH  29  36
ENDBRANCH  23  32
ENDBRANCH  22  26
ENDBRANCH  21  22
ENDBRANCH   1  21
TORSDOF 8
ENDMDL
MODEL 7
REMARK VINA RESULT:      -8.1      1.427      1.978
REMARK  Name = 
REMARK  12 active torsions:
REMARK  status: ('A' for Active; 'I' for Inactive)
REMARK    1  A    between atoms: C_1  and  O_2
REMARK    2  A    between atoms: O_2  and  C_3
REMARK    3  A    between atoms: C_6  and  C_7
REMARK    4  A    between atoms: C_10  and  O_11
REMARK    5  A    between atoms: O_11  and  C_12
REMARK    6  A    between atoms: C_12  and  C_13
REMARK    7  A    between atoms: C_15  and  C_16
REMARK    8  A    between atoms: N_18  and  S_19
REMARK    9  A    between atoms: S_19  and  C_22
REMARK   10  A    between atoms: C_23  and  C_24
REMARK   11  A    between atoms: C_27  and  C_28
REMARK   12  A    between atoms: C_30  and  C_31
REMARK                            x       y       z     vdW  Elec       q    Type
REMARK                         _______ _______ _______ _____ _____    ______ ____
ROOT
ATOM      1  C   UNL     1       1.444   8.941  19.366  0.00  0.00    +0.000 A 
ATOM      2  C   UNL     1       2.076   7.973  18.548  0.00  0.00    +0.000 A 
ATOM      3  C   UNL     1       2.318   6.874  19.344  0.00  0.00    +0.000 A 
ATOM      4  O   UNL     1       1.862   7.110  20.616  0.00  0.00    +0.000 OA
ATOM      5  C   UNL     1       1.330   8.364  20.617  0.00  0.00    +0.000 A 
ATOM      6  C   UNL     1       0.772   8.866  21.892  0.00  0.00    +0.000 C 
ENDROOT
BRANCH   3   7
ATOM      7  C   UNL     1       2.954   5.625  19.020  0.00  0.00    +0.000 C 
ATOM      8  O   UNL     1       2.547   4.536  19.394  0.00  0.00    +0.000 OA
ATOM      9  N   UNL     1       4.068   5.777  18.197  0.00  0.00    +0.000 N 
ATOM     10  H   UNL     1       4.359   6.707  17.908  0.00  0.00    +0.000 HD
BRANCH   9  11
ATOM     11  S   UNL     1       5.076   4.543  17.774  0.00  0.00    +0.000 S 
ATOM     12  O   UNL     1       5.810   4.218  18.977  0.00  0.00    +0.000 OA
ATOM     13  O   UNL     1       4.329   3.528  17.069  0.00  0.00    +0.000 OA
BRANCH  11  14
ATOM     14  C   UNL     1       6.250   5.123  16.685  0.00  0.00    +0.000 A 
ATOM     15  C   UNL     1       6.464   4.770  15.330  0.00  0.00    +0.000 A 
ATOM     16  C   UNL     1       5.764   3.807  14.446  0.00  0.00    +0.000 C 
ATOM     17  N   UNL     1       7.477   5.483  14.812  0.00  0.00    +0.000 NA
ATOM     18  O   UNL     1       7.918   6.316  15.819  0.00  0.00    +0.000 OA
ATOM     19  C   UNL     1       7.177   6.109  16.938  0.00  0.00    +0.000 A 
ATOM     20  C   UNL     1       7.507   6.954  18.101  0.00  0.00    +0.000 C 
ENDBRANCH  11  14
ENDBRANCH   9  11
ENDBRANCH   3   7
BRANCH   1  21
ATOM     21  C   UNL     1       1.049  10.317  18.983  0.00  0.00    +0.000 C 
BRANCH  21  22
ATOM     22  O   UNL     1       1.136  11.218  20.094  0.00  0.00    +0.000 OA
BRANCH  22  26
ATOM     23  C   UNL     1      -2.463  12.894  21.446  0.00  0.00    +0.000 A 
ATOM     24  C   UNL     1      -2.377  12.335  20.160  0.00  0.00    +0.000 A 
ATOM     25  C   UNL     1      -1.216  11.720  19.706  0.00  0.00    +0.000 A 
ATOM     26  C   UNL     1      -0.076  11.708  20.501  0.00  0.00    +0.000 A 
ATOM     27  C   UNL     1      -0.135  12.234  21.790  0.00  0.00    +0.000 A 
ATOM     28  C   UNL     1      -1.319  12.820  22.260  0.00  0.00    +0.000 A 
BRANCH  23  32
ATOM     29  C   UNL     1      -6.061  14.778  22.872  0.00  0.00    +0.000 A 
ATOM     30  C   UNL     1      -4.877  15.498  22.775  0.00  0.00    +0.000 A 
ATOM     31  C   UNL     1      -3.731  14.896  22.259  0.00  0.00    +0.000 A 
ATOM     32  C   UNL     1      -3.720  13.541  21.873  0.00  0.00    +0.000 A 
ATOM     33  C   UNL     1      -4.926  12.833  21.979  0.00  0.00    +0.000 A 
ATOM     34  C   UNL     1      -6.088  13.446  22.469  0.00  0.00    +0.000 A 
BRANCH  29  36
ATOM     35  C   UNL     1      -7.122  16.860  23.171  0.00  0.00    +0.000 C 
ATOM     36  O   UNL     1      -7.107  15.461  23.423  0.00  0.00    +0.000 OA
ENDBRANCH  29  36
ENDBRANCH  23  32
ENDBRANCH  22  26
ENDBRANCH  21  22
ENDBRANCH   1  21
TORSDOF 8
ENDMDL
MODEL 8
REMARK VINA RESULT:      -8.0      2.024      2.541
REMARK  Name = 
REMARK  12 active torsions:
REMARK  status: ('A' for Active; 'I' for Inactive)
REMARK    1  A    between atoms: C_1  and  O_2
REMARK    2  A    between atoms: O_2  and  C_3
REMARK    3  A    between atoms: C_6  and  C_7
REMARK    4  A    between atoms: C_10  and  O_11
REMARK    5  A    between atoms: O_11  and  C_12
REMARK    6  A    between atoms: C_12  and  C_13
REMARK    7  A    between atoms: C_15  and  C_16
REMARK    8  A    between atoms: N_18  and  S_19
REMARK    9  A    between atoms: S_19  and  C_22
REMARK   10  A    between atoms: C_23  and  C_24
REMARK   11  A    between atoms: C_27  and  C_28
REMARK   12  A    between atoms: C_30  and  C_31
REMARK                            x       y       z     vdW  Elec       q    Type
REMARK                         _______ _______ _______ _____ _____    ______ ____
ROOT
ATOM      1  C   UNL     1       1.325   9.218  19.328  0.00  0.00    +0.000 A 
ATOM      2  C   UNL     1       2.064   8.469  18.381  0.00  0.00    +0.000 A 
ATOM      3  C   UNL     1       2.434   7.295  19.001  0.00  0.00    +0.000 A 
ATOM      4  O   UNL     1       1.955   7.277  20.286  0.00  0.00    +0.000 OA
ATOM      5  C   UNL     1       1.280   8.445  20.472  0.00  0.00    +0.000 A 
ATOM      6  C   UNL     1       0.668   8.674  21.800  0.00  0.00    +0.000 C 
ENDROOT
BRANCH   3   7
ATOM      7  C   UNL     1       3.212   6.194  18.499  0.00  0.00    +0.000 C 
ATOM      8  O   UNL     1       2.794   5.379  17.691  0.00  0.00    +0.000 OA
ATOM      9  N   UNL     1       4.512   6.170  19.000  0.00  0.00    +0.000 N 
ATOM     10  H   UNL     1       4.809   6.879  19.664  0.00  0.00    +0.000 HD
BRANCH   9  11
ATOM     11  S   UNL     1       5.587   4.953  18.712  0.00  0.00    +0.000 S 
ATOM     12  O   UNL     1       6.556   5.037  19.783  0.00  0.00    +0.000 OA
ATOM     13  O   UNL     1       4.871   3.725  18.458  0.00  0.00    +0.000 OA
BRANCH  11  14
ATOM     14  C   UNL     1       6.466   5.303  17.295  0.00  0.00    +0.000 A 
ATOM     15  C   UNL     1       6.460   4.626  16.051  0.00  0.00    +0.000 A 
ATOM     16  C   UNL     1       5.718   3.427  15.590  0.00  0.00    +0.000 C 
ATOM     17  N   UNL     1       7.273   5.240  15.177  0.00  0.00    +0.000 NA
ATOM     18  O   UNL     1       7.800   6.329  15.839  0.00  0.00    +0.000 OA
ATOM     19  C   UNL     1       7.308   6.374  17.104  0.00  0.00    +0.000 A 
ATOM     20  C   UNL     1       7.754   7.508  17.935  0.00  0.00    +0.000 C 
ENDBRANCH  11  14
ENDBRANCH   9  11
ENDBRANCH   3   7
BRANCH   1  21
ATOM     21  C   UNL     1       0.770  10.582  19.156  0.00  0.00    +0.000 C 
BRANCH  21  22
ATOM     22  O   UNL     1      -0.650  10.554  18.971  0.00  0.00    +0.000 OA
BRANCH  22  26
ATOM     23  C   UNL     1      -2.501  13.535  21.266  0.00  0.00    +0.000 A 
ATOM     24  C   UNL     1      -3.157  12.984  20.153  0.00  0.00    +0.000 A 
ATOM     25  C   UNL     1      -2.594  11.954  19.409  0.00  0.00    +0.000 A 
ATOM     26  C   UNL     1      -1.320  11.489  19.712  0.00  0.00    +0.000 A 
ATOM     27  C   UNL     1      -0.653  11.999  20.824  0.00  0.00    +0.000 A 
ATOM     28  C   UNL     1      -1.239  13.013  21.596  0.00  0.00    +0.000 A 
BRANCH  23  32
ATOM     29  C   UNL     1      -4.208  16.831  23.447  0.00  0.00    +0.000 A 
ATOM     30  C   UNL     1      -3.960  16.938  22.085  0.00  0.00    +0.000 A 
ATOM     31  C   UNL     1      -3.460  15.847  21.376  0.00  0.00    +0.000 A 
ATOM     32  C   UNL     1      -3.144  14.633  22.017  0.00  0.00    +0.000 A 
ATOM     33  C   UNL     1      -3.402  14.546  23.393  0.00  0.00    +0.000 A 
ATOM     34  C   UNL     1      -3.934  15.633  24.102  0.00  0.00    +0.000 A 
BRANCH  29  36
ATOM     35  C   UNL     1      -5.012  17.847  25.414  0.00  0.00    +0.000 C 
ATOM     36  O   UNL     1      -4.664  17.972  24.042  0.00  0.00    +0.000 OA
ENDBRANCH  29  36
ENDBRANCH  23  32
ENDBRANCH  22  26
ENDBRANCH  21  22
ENDBRANCH   1  21
TORSDOF 8
ENDMDL
MODEL 9
REMARK VINA RESULT:      -8.0      4.939     12.373
REMARK  Name = 
REMARK  12 active torsions:
REMARK  status: ('A' for Active; 'I' for Inactive)
REMARK    1  A    between atoms: C_1  and  O_2
REMARK    2  A    between atoms: O_2  and  C_3
REMARK    3  A    between atoms: C_6  and  C_7
REMARK    4  A    between atoms: C_10  and  O_11
REMARK    5  A    between atoms: O_11  and  C_12
REMARK    6  A    between atoms: C_12  and  C_13
REMARK    7  A    between atoms: C_15  and  C_16
REMARK    8  A    between atoms: N_18  and  S_19
REMARK    9  A    between atoms: S_19  and  C_22
REMARK   10  A    between atoms: C_23  and  C_24
REMARK   11  A    between atoms: C_27  and  C_28
REMARK   12  A    between atoms: C_30  and  C_31
REMARK                            x       y       z     vdW  Elec       q    Type
REMARK                         _______ _______ _______ _____ _____    ______ ____
ROOT
ATOM      1  C   UNL     1      -1.377  12.348  18.960  0.00  0.00    +0.000 A 
ATOM      2  C   UNL     1      -2.007  13.282  19.818  0.00  0.00    +0.000 A 
ATOM      3  C   UNL     1      -3.310  12.861  19.978  0.00  0.00    +0.000 A 
ATOM      4  O   UNL     1      -3.517  11.707  19.266  0.00  0.00    +0.000 OA
ATOM      5  C   UNL     1      -2.337  11.403  18.657  0.00  0.00    +0.000 A 
ATOM      6  C   UNL     1      -2.302  10.190  17.810  0.00  0.00    +0.000 C 
ENDROOT
BRANCH   3   7
ATOM      7  C   UNL     1      -4.383  13.455  20.730  0.00  0.00    +0.000 C 
ATOM      8  O   UNL     1      -4.749  14.612  20.597  0.00  0.00    +0.000 OA
ATOM      9  N   UNL     1      -4.996  12.560  21.605  0.00  0.00    +0.000 N 
ATOM     10  H   UNL     1      -4.655  11.605  21.670  0.00  0.00    +0.000 HD
BRANCH   9  11
ATOM     11  S   UNL     1      -6.159  12.988  22.693  0.00  0.00    +0.000 S 
ATOM     12  O   UNL     1      -7.322  13.321  21.899  0.00  0.00    +0.000 OA
ATOM     13  O   UNL     1      -6.237  11.991  23.735  0.00  0.00    +0.000 OA
BRANCH  11  14
ATOM     14  C   UNL     1      -5.711  14.446  23.451  0.00  0.00    +0.000 A 
ATOM     15  C   UNL     1      -6.486  15.611  23.673  0.00  0.00    +0.000 A 
ATOM     16  C   UNL     1      -7.891  15.936  23.326  0.00  0.00    +0.000 C 
ATOM     17  N   UNL     1      -5.769  16.533  24.336  0.00  0.00    +0.000 NA
ATOM     18  O   UNL     1      -4.531  15.970  24.564  0.00  0.00    +0.000 OA
ATOM     19  C   UNL     1      -4.499  14.716  24.044  0.00  0.00    +0.000 A 
ATOM     20  C   UNL     1      -3.245  13.964  24.237  0.00  0.00    +0.000 C 
ENDBRANCH  11  14
ENDBRANCH   9  11
ENDBRANCH   3   7
BRANCH   1  21
ATOM     21  C   UNL     1       0.009  12.406  18.436  0.00  0.00    +0.000 C 
BRANCH  21  22
ATOM     22  O   UNL     1       0.961  11.978  19.417  0.00  0.00    +0.000 OA
BRANCH  22  26
ATOM     23  C   UNL     1       1.934   7.905  19.205  0.00  0.00    +0.000 A 
ATOM     24  C   UNL     1       1.386   8.445  20.379  0.00  0.00    +0.000 A 
ATOM     25  C   UNL     1       0.999   9.777  20.460  0.00  0.00    +0.000 A 
ATOM     26  C   UNL     1       1.215  10.633  19.387  0.00  0.00    +0.000 A 
ATOM     27  C   UNL     1       1.736  10.123  18.199  0.00  0.00    +0.000 A 
ATOM     28  C   UNL     1       2.091   8.770  18.108  0.00  0.00    +0.000 A 
BRANCH  23  32
ATOM     29  C   UNL     1       3.247   3.805  19.244  0.00  0.00    +0.000 A 
ATOM     30  C   UNL     1       2.608   4.353  20.349  0.00  0.00    +0.000 A 
ATOM     31  C   UNL     1       2.136   5.663  20.306  0.00  0.00    +0.000 A 
ATOM     32  C   UNL     1       2.334   6.483  19.178  0.00  0.00    +0.000 A 
ATOM     33  C   UNL     1       2.982   5.910  18.073  0.00  0.00    +0.000 A 
ATOM     34  C   UNL     1       3.430   4.582  18.103  0.00  0.00    +0.000 A 
BRANCH  29  36
ATOM     35  C   UNL     1       3.491   1.659  18.306  0.00  0.00    +0.000 C 
ATOM     36  O   UNL     1       3.695   2.527  19.412  0.00  0.00    +0.000 OA
ENDBRANCH  29  36
ENDBRANCH  23  32
ENDBRANCH  22  26
ENDBRANCH  21  22
ENDBRANCH   1  21
TORSDOF 8
ENDMDL
