MODEL 1
REMARK VINA RESULT:      -6.1      0.000      0.000
REMARK  Name = 
REMARK  14 active torsions:
REMARK  status: ('A' for Active; 'I' for Inactive)
REMARK    1  A    between atoms: C_1  and  C_2
REMARK    2  A    between atoms: C_2  and  O_3
REMARK    3  A    between atoms: O_3  and  C_4
REMARK    4  A    between atoms: C_4  and  C_6
REMARK    5  A    between atoms: C_7  and  C_8
REMARK    6  A    between atoms: C_8  and  O_9
REMARK    7  A    between atoms: C_8  and  C_17
REMARK    8  A    between atoms: O_9  and  C_10
REMARK    9  A    between atoms: C_11  and  C_12
REMARK   10  A    between atoms: C_12  and  O_14
REMARK   11  A    between atoms: O_14  and  C_15
REMARK   12  A    between atoms: C_15  and  C_16
REMARK   13  A    between atoms: C_17  and  C_18
REMARK   14  A    between atoms: C_17  and  C_19
REMARK                            x       y       z     vdW  Elec       q    Type
REMARK                         _______ _______ _______ _____ _____    ______ ____
ROOT
ATOM      1  C   UNL     1       3.796   6.645  18.319  0.00  0.00    +0.000 C 
ENDROOT
BRANCH   1   2
ATOM      2  C   UNL     1       2.412   7.328  18.475  0.00  0.00    +0.000 C 
ATOM      3  C   UNL     1       2.020   7.541  19.942  0.00  0.00    +0.000 C 
ATOM      4  C   UNL     1       2.368   8.676  17.746  0.00  0.00    +0.000 C 
ENDBRANCH   1   2
BRANCH   1   6
ATOM      5  C   UNL     1       3.753   4.105  19.177  0.00  0.00    +0.000 C 
ATOM      6  C   UNL     1       3.737   5.243  18.783  0.00  0.00    +0.000 C 
BRANCH   5   7
ATOM      7  C   UNL     1       3.856   2.756  19.666  0.00  0.00    +0.000 C 
ATOM      8  O   UNL     1       4.896   2.345  20.159  0.00  0.00    +0.000 OA
BRANCH   7   9
ATOM      9  O   UNL     1       2.697   2.062  19.527  0.00  0.00    +0.000 OA
BRANCH   9  11
ATOM     10  C   UNL     1       1.588   2.611  21.619  0.00  0.00    +0.000 C 
ATOM     11  C   UNL     1       1.539   2.682  20.104  0.00  0.00    +0.000 C 
ENDBRANCH   9  11
ENDBRANCH   7   9
ENDBRANCH   5   7
ENDBRANCH   1   6
BRANCH   1  12
ATOM     12  O   UNL     1       4.136   6.659  16.919  0.00  0.00    +0.000 OA
BRANCH  12  13
ATOM     13  C   UNL     1       5.384   6.173  16.637  0.00  0.00    +0.000 C 
ATOM     14  C   UNL     1       5.565   5.184  15.758  0.00  0.00    +0.000 C 
BRANCH  14  15
ATOM     15  C   UNL     1       6.930   4.722  15.448  0.00  0.00    +0.000 C 
ATOM     16  O   UNL     1       7.816   4.554  16.268  0.00  0.00    +0.000 OA
BRANCH  15  17
ATOM     17  O   UNL     1       7.038   4.641  14.100  0.00  0.00    +0.000 OA
BRANCH  17  18
ATOM     18  C   UNL     1       6.064   3.804  13.460  0.00  0.00    +0.000 C 
ATOM     19  C   UNL     1       6.575   3.471  12.070  0.00  0.00    +0.000 C 
ENDBRANCH  17  18
ENDBRANCH  15  17
ENDBRANCH  14  15
ENDBRANCH  12  13
ENDBRANCH   1  12
TORSDOF 10
ENDMDL
MODEL 2
REMARK VINA RESULT:      -6.1      2.144      6.691
REMARK  Name = 
REMARK  14 active torsions:
REMARK  status: ('A' for Active; 'I' for Inactive)
REMARK    1  A    between atoms: C_1  and  C_2
REMARK    2  A    between atoms: C_2  and  O_3
REMARK    3  A    between atoms: O_3  and  C_4
REMARK    4  A    between atoms: C_4  and  C_6
REMARK    5  A    between atoms: C_7  and  C_8
REMARK    6  A    between atoms: C_8  and  O_9
REMARK    7  A    between atoms: C_8  and  C_17
REMARK    8  A    between atoms: O_9  and  C_10
REMARK    9  A    between atoms: C_11  and  C_12
REMARK   10  A    between atoms: C_12  and  O_14
REMARK   11  A    between atoms: O_14  and  C_15
REMARK   12  A    between atoms: C_15  and  C_16
REMARK   13  A    between atoms: C_17  and  C_18
REMARK   14  A    between atoms: C_17  and  C_19
REMARK                            x       y       z     vdW  Elec       q    Type
REMARK                         _______ _______ _______ _____ _____    ______ ____
ROOT
ATOM      1  C   UNL     1       6.028   5.354  17.453  0.00  0.00    +0.000 C 
ENDROOT
BRANCH   1   2
ATOM      2  C   UNL     1       7.408   5.958  17.827  0.00  0.00    +0.000 C 
ATOM      3  C   UNL     1       7.512   7.448  17.485  0.00  0.00    +0.000 C 
ATOM      4  C   UNL     1       7.718   5.765  19.316  0.00  0.00    +0.000 C 
ENDBRANCH   1   2
BRANCH   1   6
ATOM      5  C   UNL     1       6.094   4.531  14.902  0.00  0.00    +0.000 C 
ATOM      6  C   UNL     1       6.029   4.890  16.050  0.00  0.00    +0.000 C 
BRANCH   5   7
ATOM      7  C   UNL     1       6.253   4.133  13.528  0.00  0.00    +0.000 C 
ATOM      8  O   UNL     1       7.249   4.448  12.895  0.00  0.00    +0.000 OA
BRANCH   7   9
ATOM      9  O   UNL     1       5.211   3.386  13.080  0.00  0.00    +0.000 OA
BRANCH   9  11
ATOM     10  C   UNL     1       3.900   3.176  11.044  0.00  0.00    +0.000 C 
ATOM     11  C   UNL     1       5.264   3.027  11.693  0.00  0.00    +0.000 C 
ENDBRANCH   9  11
ENDBRANCH   7   9
ENDBRANCH   5   7
ENDBRANCH   1   6
BRANCH   1  12
ATOM     12  O   UNL     1       5.796   4.225  18.317  0.00  0.00    +0.000 OA
BRANCH  12  13
ATOM     13  C   UNL     1       4.516   3.740  18.279  0.00  0.00    +0.000 C 
ATOM     14  C   UNL     1       3.461   4.559  18.244  0.00  0.00    +0.000 C 
BRANCH  14  15
ATOM     15  C   UNL     1       2.102   3.997  18.155  0.00  0.00    +0.000 C 
ATOM     16  O   UNL     1       1.237   4.375  17.384  0.00  0.00    +0.000 OA
BRANCH  15  17
ATOM     17  O   UNL     1       1.969   3.088  19.152  0.00  0.00    +0.000 OA
BRANCH  17  18
ATOM     18  C   UNL     1       1.117   3.493  20.234  0.00  0.00    +0.000 C 
ATOM     19  C   UNL     1       1.774   3.058  21.531  0.00  0.00    +0.000 C 
ENDBRANCH  17  18
ENDBRANCH  15  17
ENDBRANCH  14  15
ENDBRANCH  12  13
ENDBRANCH   1  12
TORSDOF 10
ENDMDL
MODEL 3
REMARK VINA RESULT:      -6.1      2.134      6.721
REMARK  Name = 
REMARK  14 active torsions:
REMARK  status: ('A' for Active; 'I' for Inactive)
REMARK    1  A    between atoms: C_1  and  C_2
REMARK    2  A    between atoms: C_2  and  O_3
REMARK    3  A    between atoms: O_3  and  C_4
REMARK    4  A    between atoms: C_4  and  C_6
REMARK    5  A    between atoms: C_7  and  C_8
REMARK    6  A    between atoms: C_8  and  O_9
REMARK    7  A    between atoms: C_8  and  C_17
REMARK    8  A    between atoms: O_9  and  C_10
REMARK    9  A    between atoms: C_11  and  C_12
REMARK   10  A    between atoms: C_12  and  O_14
REMARK   11  A    between atoms: O_14  and  C_15
REMARK   12  A    between atoms: C_15  and  C_16
REMARK   13  A    between atoms: C_17  and  C_18
REMARK   14  A    between atoms: C_17  and  C_19
REMARK                            x       y       z     vdW  Elec       q    Type
REMARK                         _______ _______ _______ _____ _____    ______ ____
ROOT
ATOM      1  C   UNL     1       5.679   6.111  17.409  0.00  0.00    +0.000 C 
ENDROOT
BRANCH   1   2
ATOM      2  C   UNL     1       6.883   6.648  18.228  0.00  0.00    +0.000 C 
ATOM      3  C   UNL     1       7.823   5.532  18.697  0.00  0.00    +0.000 C 
ATOM      4  C   UNL     1       7.690   7.677  17.428  0.00  0.00    +0.000 C 
ENDBRANCH   1   2
BRANCH   1   6
ATOM      5  C   UNL     1       6.468   5.267  14.989  0.00  0.00    +0.000 C 
ATOM      6  C   UNL     1       6.118   5.681  16.065  0.00  0.00    +0.000 C 
BRANCH   5   7
ATOM      7  C   UNL     1       6.878   4.692  13.736  0.00  0.00    +0.000 C 
ATOM      8  O   UNL     1       7.701   5.253  13.028  0.00  0.00    +0.000 OA
BRANCH   7   9
ATOM      9  O   UNL     1       6.271   3.503  13.486  0.00  0.00    +0.000 OA
BRANCH   9  11
ATOM     10  C   UNL     1       4.632   3.372  11.696  0.00  0.00    +0.000 C 
ATOM     11  C   UNL     1       6.084   3.189  12.100  0.00  0.00    +0.000 C 
ENDBRANCH   9  11
ENDBRANCH   7   9
ENDBRANCH   5   7
ENDBRANCH   1   6
BRANCH   1  12
ATOM     12  O   UNL     1       5.145   4.972  18.111  0.00  0.00    +0.000 OA
BRANCH  12  13
ATOM     13  C   UNL     1       3.805   4.768  17.916  0.00  0.00    +0.000 C 
ATOM     14  C   UNL     1       3.177   3.713  18.442  0.00  0.00    +0.000 C 
BRANCH  14  15
ATOM     15  C   UNL     1       1.725   3.555  18.248  0.00  0.00    +0.000 C 
ATOM     16  O   UNL     1       1.068   4.116  17.386  0.00  0.00    +0.000 OA
BRANCH  15  17
ATOM     17  O   UNL     1       1.257   2.785  19.260  0.00  0.00    +0.000 OA
BRANCH  17  18
ATOM     18  C   UNL     1       0.959   3.490  20.473  0.00  0.00    +0.000 C 
ATOM     19  C   UNL     1       1.612   2.740  21.620  0.00  0.00    +0.000 C 
ENDBRANCH  17  18
ENDBRANCH  15  17
ENDBRANCH  14  15
ENDBRANCH  12  13
ENDBRANCH   1  12
TORSDOF 10
ENDMDL
MODEL 4
REMARK VINA RESULT:      -6.0      2.319      7.022
REMARK  Name = 
REMARK  14 active torsions:
REMARK  status: ('A' for Active; 'I' for Inactive)
REMARK    1  A    between atoms: C_1  and  C_2
REMARK    2  A    between atoms: C_2  and  O_3
REMARK    3  A    between atoms: O_3  and  C_4
REMARK    4  A    between atoms: C_4  and  C_6
REMARK    5  A    between atoms: C_7  and  C_8
REMARK    6  A    between atoms: C_8  and  O_9
REMARK    7  A    between atoms: C_8  and  C_17
REMARK    8  A    between atoms: O_9  and  C_10
REMARK    9  A    between atoms: C_11  and  C_12
REMARK   10  A    between atoms: C_12  and  O_14
REMARK   11  A    between atoms: O_14  and  C_15
REMARK   12  A    between atoms: C_15  and  C_16
REMARK   13  A    between atoms: C_17  and  C_18
REMARK   14  A    between atoms: C_17  and  C_19
REMARK                            x       y       z     vdW  Elec       q    Type
REMARK                         _______ _______ _______ _____ _____    ______ ____
ROOT
ATOM      1  C   UNL     1       5.884   5.362  16.525  0.00  0.00    +0.000 C 
ENDROOT
BRANCH   1   2
ATOM      2  C   UNL     1       7.308   5.697  17.043  0.00  0.00    +0.000 C 
ATOM      3  C   UNL     1       7.452   7.161  17.470  0.00  0.00    +0.000 C 
ATOM      4  C   UNL     1       7.705   4.793  18.216  0.00  0.00    +0.000 C 
ENDBRANCH   1   2
BRANCH   1   6
ATOM      5  C   UNL     1       6.067   4.260  14.088  0.00  0.00    +0.000 C 
ATOM      6  C   UNL     1       5.952   4.738  15.187  0.00  0.00    +0.000 C 
BRANCH   5   7
ATOM      7  C   UNL     1       6.280   3.730  12.767  0.00  0.00    +0.000 C 
ATOM      8  O   UNL     1       7.170   4.166  12.053  0.00  0.00    +0.000 OA
BRANCH   7   9
ATOM      9  O   UNL     1       5.416   2.726  12.465  0.00  0.00    +0.000 OA
BRANCH   9  11
ATOM     10  C   UNL     1       6.304   0.832  11.227  0.00  0.00    +0.000 C 
ATOM     11  C   UNL     1       5.569   2.159  11.157  0.00  0.00    +0.000 C 
ENDBRANCH   9  11
ENDBRANCH   7   9
ENDBRANCH   5   7
ENDBRANCH   1   6
BRANCH   1  12
ATOM     12  O   UNL     1       5.293   4.425  17.447  0.00  0.00    +0.000 OA
BRANCH  12  13
ATOM     13  C   UNL     1       3.923   4.433  17.457  0.00  0.00    +0.000 C 
ATOM     14  C   UNL     1       3.224   3.419  17.974  0.00  0.00    +0.000 C 
BRANCH  14  15
ATOM     15  C   UNL     1       1.753   3.488  18.008  0.00  0.00    +0.000 C 
ATOM     16  O   UNL     1       1.068   4.195  17.288  0.00  0.00    +0.000 OA
BRANCH  15  17
ATOM     17  O   UNL     1       1.331   2.728  19.047  0.00  0.00    +0.000 OA
BRANCH  17  18
ATOM     18  C   UNL     1       0.923   3.461  20.211  0.00  0.00    +0.000 C 
ATOM     19  C   UNL     1       1.528   2.781  21.426  0.00  0.00    +0.000 C 
ENDBRANCH  17  18
ENDBRANCH  15  17
ENDBRANCH  14  15
ENDBRANCH  12  13
ENDBRANCH   1  12
TORSDOF 10
ENDMDL
MODEL 5
REMARK VINA RESULT:      -5.9      2.024      4.367
REMARK  Name = 
REMARK  14 active torsions:
REMARK  status: ('A' for Active; 'I' for Inactive)
REMARK    1  A    between atoms: C_1  and  C_2
REMARK    2  A    between atoms: C_2  and  O_3
REMARK    3  A    between atoms: O_3  and  C_4
REMARK    4  A    between atoms: C_4  and  C_6
REMARK    5  A    between atoms: C_7  and  C_8
REMARK    6  A    between atoms: C_8  and  O_9
REMARK    7  A    between atoms: C_8  and  C_17
REMARK    8  A    between atoms: O_9  and  C_10
REMARK    9  A    between atoms: C_11  and  C_12
REMARK   10  A    between atoms: C_12  and  O_14
REMARK   11  A    between atoms: O_14  and  C_15
REMARK   12  A    between atoms: C_15  and  C_16
REMARK   13  A    between atoms: C_17  and  C_18
REMARK   14  A    between atoms: C_17  and  C_19
REMARK                            x       y       z     vdW  Elec       q    Type
REMARK                         _______ _______ _______ _____ _____    ______ ____
ROOT
ATOM      1  C   UNL     1       2.973   4.888  18.127  0.00  0.00    +0.000 C 
ENDROOT
BRANCH   1   2
ATOM      2  C   UNL     1       1.757   3.946  18.335  0.00  0.00    +0.000 C 
ATOM      3  C   UNL     1       2.073   2.488  17.986  0.00  0.00    +0.000 C 
ATOM      4  C   UNL     1       1.237   4.013  19.776  0.00  0.00    +0.000 C 
ENDBRANCH   1   2
BRANCH   1   6
ATOM      5  C   UNL     1       2.226   7.463  18.179  0.00  0.00    +0.000 C 
ATOM      6  C   UNL     1       2.539   6.301  18.126  0.00  0.00    +0.000 C 
BRANCH   5   7
ATOM      7  C   UNL     1       1.902   8.858  18.311  0.00  0.00    +0.000 C 
ATOM      8  O   UNL     1       2.283   9.672  17.482  0.00  0.00    +0.000 OA
BRANCH   7   9
ATOM      9  O   UNL     1       1.143   9.114  19.408  0.00  0.00    +0.000 OA
BRANCH   9  11
ATOM     10  C   UNL     1       0.965   8.990  21.829  0.00  0.00    +0.000 C 
ATOM     11  C   UNL     1       1.436   8.308  20.557  0.00  0.00    +0.000 C 
ENDBRANCH   9  11
ENDBRANCH   7   9
ENDBRANCH   5   7
ENDBRANCH   1   6
BRANCH   1  12
ATOM     12  O   UNL     1       3.881   4.679  19.226  0.00  0.00    +0.000 OA
BRANCH  12  13
ATOM     13  C   UNL     1       5.184   4.486  18.850  0.00  0.00    +0.000 C 
ATOM     14  C   UNL     1       5.594   4.733  17.604  0.00  0.00    +0.000 C 
BRANCH  14  15
ATOM     15  C   UNL     1       7.014   4.558  17.253  0.00  0.00    +0.000 C 
ATOM     16  O   UNL     1       7.928   4.466  18.056  0.00  0.00    +0.000 OA
BRANCH  15  17
ATOM     17  O   UNL     1       7.117   4.638  15.904  0.00  0.00    +0.000 OA
BRANCH  17  18
ATOM     18  C   UNL     1       5.920   4.312  15.183  0.00  0.00    +0.000 C 
ATOM     19  C   UNL     1       6.318   3.923  13.771  0.00  0.00    +0.000 C 
ENDBRANCH  17  18
ENDBRANCH  15  17
ENDBRANCH  14  15
ENDBRANCH  12  13
ENDBRANCH   1  12
TORSDOF 10
ENDMDL
MODEL 6
REMARK VINA RESULT:      -5.9      1.735      2.622
REMARK  Name = 
REMARK  14 active torsions:
REMARK  status: ('A' for Active; 'I' for Inactive)
REMARK    1  A    between atoms: C_1  and  C_2
REMARK    2  A    between atoms: C_2  and  O_3
REMARK    3  A    between atoms: O_3  and  C_4
REMARK    4  A    between atoms: C_4  and  C_6
REMARK    5  A    between atoms: C_7  and  C_8
REMARK    6  A    between atoms: C_8  and  O_9
REMARK    7  A    between atoms: C_8  and  C_17
REMARK    8  A    between atoms: O_9  and  C_10
REMARK    9  A    between atoms: C_11  and  C_12
REMARK   10  A    between atoms: C_12  and  O_14
REMARK   11  A    between atoms: O_14  and  C_15
REMARK   12  A    between atoms: C_15  and  C_16
REMARK   13  A    between atoms: C_17  and  C_18
REMARK   14  A    between atoms: C_17  and  C_19
REMARK                            x       y       z     vdW  Elec       q    Type
REMARK                         _______ _______ _______ _____ _____    ______ ____
ROOT
ATOM      1  C   UNL     1       2.928   7.107  18.638  0.00  0.00    +0.000 C 
ENDROOT
BRANCH   1   2
ATOM      2  C   UNL     1       1.716   8.075  18.685  0.00  0.00    +0.000 C 
ATOM      3  C   UNL     1       1.399   8.556  20.105  0.00  0.00    +0.000 C 
ATOM      4  C   UNL     1       1.938   9.295  17.783  0.00  0.00    +0.000 C 
ENDBRANCH   1   2
BRANCH   1   6
ATOM      5  C   UNL     1       2.092   4.560  18.612  0.00  0.00    +0.000 C 
ATOM      6  C   UNL     1       2.469   5.704  18.587  0.00  0.00    +0.000 C 
BRANCH   5   7
ATOM      7  C   UNL     1       1.643   3.198  18.728  0.00  0.00    +0.000 C 
ATOM      8  O   UNL     1       0.586   2.841  18.230  0.00  0.00    +0.000 OA
BRANCH   7   9
ATOM      9  O   UNL     1       2.521   2.418  19.410  0.00  0.00    +0.000 OA
BRANCH   9  11
ATOM     10  C   UNL     1       1.590   2.648  21.643  0.00  0.00    +0.000 C 
ATOM     11  C   UNL     1       2.803   2.840  20.751  0.00  0.00    +0.000 C 
ENDBRANCH   9  11
ENDBRANCH   7   9
ENDBRANCH   5   7
ENDBRANCH   1   6
BRANCH   1  12
ATOM     12  O   UNL     1       3.674   7.398  17.440  0.00  0.00    +0.000 OA
BRANCH  12  13
ATOM     13  C   UNL     1       4.843   6.695  17.319  0.00  0.00    +0.000 C 
ATOM     14  C   UNL     1       5.261   6.236  16.137  0.00  0.00    +0.000 C 
BRANCH  14  15
ATOM     15  C   UNL     1       6.548   5.524  16.043  0.00  0.00    +0.000 C 
ATOM     16  O   UNL     1       7.372   5.681  15.157  0.00  0.00    +0.000 OA
BRANCH  15  17
ATOM     17  O   UNL     1       6.581   4.603  17.036  0.00  0.00    +0.000 OA
BRANCH  17  18
ATOM     18  C   UNL     1       7.808   4.552  17.778  0.00  0.00    +0.000 C 
ATOM     19  C   UNL     1       7.725   5.586  18.886  0.00  0.00    +0.000 C 
ENDBRANCH  17  18
ENDBRANCH  15  17
ENDBRANCH  14  15
ENDBRANCH  12  13
ENDBRANCH   1  12
TORSDOF 10
ENDMDL
MODEL 7
REMARK VINA RESULT:      -5.8      2.445      7.072
REMARK  Name = 
REMARK  14 active torsions:
REMARK  status: ('A' for Active; 'I' for Inactive)
REMARK    1  A    between atoms: C_1  and  C_2
REMARK    2  A    between atoms: C_2  and  O_3
REMARK    3  A    between atoms: O_3  and  C_4
REMARK    4  A    between atoms: C_4  and  C_6
REMARK    5  A    between atoms: C_7  and  C_8
REMARK    6  A    between atoms: C_8  and  O_9
REMARK    7  A    between atoms: C_8  and  C_17
REMARK    8  A    between atoms: O_9  and  C_10
REMARK    9  A    between atoms: C_11  and  C_12
REMARK   10  A    between atoms: C_12  and  O_14
REMARK   11  A    between atoms: O_14  and  C_15
REMARK   12  A    between atoms: C_15  and  C_16
REMARK   13  A    between atoms: C_17  and  C_18
REMARK   14  A    between atoms: C_17  and  C_19
REMARK                            x       y       z     vdW  Elec       q    Type
REMARK                         _______ _______ _______ _____ _____    ______ ____
ROOT
ATOM      1  C   UNL     1       5.657   5.009  16.548  0.00  0.00    +0.000 C 
ENDROOT
BRANCH   1   2
ATOM      2  C   UNL     1       7.047   5.456  17.074  0.00  0.00    +0.000 C 
ATOM      3  C   UNL     1       7.235   6.977  17.029  0.00  0.00    +0.000 C 
ATOM      4  C   UNL     1       7.288   4.966  18.507  0.00  0.00    +0.000 C 
ENDBRANCH   1   2
BRANCH   1   6
ATOM      5  C   UNL     1       5.794   4.079  14.037  0.00  0.00    +0.000 C 
ATOM      6  C   UNL     1       5.768   4.489  15.169  0.00  0.00    +0.000 C 
BRANCH   5   7
ATOM      7  C   UNL     1       5.739   3.606  12.679  0.00  0.00    +0.000 C 
ATOM      8  O   UNL     1       6.679   2.998  12.189  0.00  0.00    +0.000 OA
BRANCH   7   9
ATOM      9  O   UNL     1       4.558   3.898  12.075  0.00  0.00    +0.000 OA
BRANCH   9  11
ATOM     10  C   UNL     1       3.208   3.633  10.071  0.00  0.00    +0.000 C 
ATOM     11  C   UNL     1       4.138   2.966  11.069  0.00  0.00    +0.000 C 
ENDBRANCH   9  11
ENDBRANCH   7   9
ENDBRANCH   5   7
ENDBRANCH   1   6
BRANCH   1  12
ATOM     12  O   UNL     1       5.183   3.954  17.408  0.00  0.00    +0.000 OA
BRANCH  12  13
ATOM     13  C   UNL     1       3.829   3.964  17.616  0.00  0.00    +0.000 C 
ATOM     14  C   UNL     1       3.283   3.363  18.676  0.00  0.00    +0.000 C 
BRANCH  14  15
ATOM     15  C   UNL     1       1.827   3.437  18.888  0.00  0.00    +0.000 C 
ATOM     16  O   UNL     1       0.987   2.916  18.173  0.00  0.00    +0.000 OA
BRANCH  15  17
ATOM     17  O   UNL     1       1.606   4.274  19.931  0.00  0.00    +0.000 OA
BRANCH  17  18
ATOM     18  C   UNL     1       2.196   3.864  21.173  0.00  0.00    +0.000 C 
ATOM     19  C   UNL     1       1.470   2.618  21.646  0.00  0.00    +0.000 C 
ENDBRANCH  17  18
ENDBRANCH  15  17
ENDBRANCH  14  15
ENDBRANCH  12  13
ENDBRANCH   1  12
TORSDOF 10
ENDMDL
MODEL 8
REMARK VINA RESULT:      -5.8      2.386      6.423
REMARK  Name = 
REMARK  14 active torsions:
REMARK  status: ('A' for Active; 'I' for Inactive)
REMARK    1  A    between atoms: C_1  and  C_2
REMARK    2  A    between atoms: C_2  and  O_3
REMARK    3  A    between atoms: O_3  and  C_4
REMARK    4  A    between atoms: C_4  and  C_6
REMARK    5  A    between atoms: C_7  and  C_8
REMARK    6  A    between atoms: C_8  and  O_9
REMARK    7  A    between atoms: C_8  and  C_17
REMARK    8  A    between atoms: O_9  and  C_10
REMARK    9  A    between atoms: C_11  and  C_12
REMARK   10  A    between atoms: C_12  and  O_14
REMARK   11  A    between atoms: O_14  and  C_15
REMARK   12  A    between atoms: C_15  and  C_16
REMARK   13  A    between atoms: C_17  and  C_18
REMARK   14  A    between atoms: C_17  and  C_19
REMARK                            x       y       z     vdW  Elec       q    Type
REMARK                         _______ _______ _______ _____ _____    ______ ____
ROOT
ATOM      1  C   UNL     1       4.576   5.680  17.585  0.00  0.00    +0.000 C 
ENDROOT
BRANCH   1   2
ATOM      2  C   UNL     1       5.732   6.045  16.615  0.00  0.00    +0.000 C 
ATOM      3  C   UNL     1       6.693   7.083  17.205  0.00  0.00    +0.000 C 
ATOM      4  C   UNL     1       6.531   4.802  16.204  0.00  0.00    +0.000 C 
ENDBRANCH   1   2
BRANCH   1   6
ATOM      5  C   UNL     1       2.913   7.757  17.907  0.00  0.00    +0.000 C 
ATOM      6  C   UNL     1       3.644   6.817  17.730  0.00  0.00    +0.000 C 
BRANCH   5   7
ATOM      7  C   UNL     1       2.078   8.893  18.195  0.00  0.00    +0.000 C 
ATOM      8  O   UNL     1       1.999   9.828  17.412  0.00  0.00    +0.000 OA
BRANCH   7   9
ATOM      9  O   UNL     1       1.419   8.767  19.376  0.00  0.00    +0.000 OA
BRANCH   9  11
ATOM     10  C   UNL     1       0.243   9.761  21.257  0.00  0.00    +0.000 C 
ATOM     11  C   UNL     1       0.772   9.957  19.847  0.00  0.00    +0.000 C 
ENDBRANCH   9  11
ENDBRANCH   7   9
ENDBRANCH   5   7
ENDBRANCH   1   6
BRANCH   1  12
ATOM     12  O   UNL     1       3.865   4.563  17.017  0.00  0.00    +0.000 OA
BRANCH  12  13
ATOM     13  C   UNL     1       3.091   3.874  17.912  0.00  0.00    +0.000 C 
ATOM     14  C   UNL     1       1.759   3.868  17.821  0.00  0.00    +0.000 C 
BRANCH  14  15
ATOM     15  C   UNL     1       0.964   3.076  18.777  0.00  0.00    +0.000 C 
ATOM     16  O   UNL     1       0.330   2.073  18.497  0.00  0.00    +0.000 OA
BRANCH  15  17
ATOM     17  O   UNL     1       0.979   3.729  19.963  0.00  0.00    +0.000 OA
BRANCH  17  18
ATOM     18  C   UNL     1       1.130   2.890  21.118  0.00  0.00    +0.000 C 
ATOM     19  C   UNL     1       2.606   2.836  21.464  0.00  0.00    +0.000 C 
ENDBRANCH  17  18
ENDBRANCH  15  17
ENDBRANCH  14  15
ENDBRANCH  12  13
ENDBRANCH   1  12
TORSDOF 10
ENDMDL
MODEL 9
REMARK VINA RESULT:      -5.8      2.524      3.597
REMARK  Name = 
REMARK  14 active torsions:
REMARK  status: ('A' for Active; 'I' for Inactive)
REMARK    1  A    between atoms: C_1  and  C_2
REMARK    2  A    between atoms: C_2  and  O_3
REMARK    3  A    between atoms: O_3  and  C_4
REMARK    4  A    between atoms: C_4  and  C_6
REMARK    5  A    between atoms: C_7  and  C_8
REMARK    6  A    between atoms: C_8  and  O_9
REMARK    7  A    between atoms: C_8  and  C_17
REMARK    8  A    between atoms: O_9  and  C_10
REMARK    9  A    between atoms: C_11  and  C_12
REMARK   10  A    between atoms: C_12  and  O_14
REMARK   11  A    between atoms: O_14  and  C_15
REMARK   12  A    between atoms: C_15  and  C_16
REMARK   13  A    between atoms: C_17  and  C_18
REMARK   14  A    between atoms: C_17  and  C_19
REMARK                            x       y       z     vdW  Elec       q    Type
REMARK                         _______ _______ _______ _____ _____    ______ ____
ROOT
ATOM      1  C   UNL     1       6.296   4.221  17.051  0.00  0.00    +0.000 C 
ENDROOT
BRANCH   1   2
ATOM      2  C   UNL     1       6.871   5.125  18.174  0.00  0.00    +0.000 C 
ATOM      3  C   UNL     1       7.309   6.500  17.659  0.00  0.00    +0.000 C 
ATOM      4  C   UNL     1       5.860   5.316  19.311  0.00  0.00    +0.000 C 
ENDBRANCH   1   2
BRANCH   1   6
ATOM      5  C   UNL     1       3.656   3.885  17.374  0.00  0.00    +0.000 C 
ATOM      6  C   UNL     1       4.835   4.066  17.208  0.00  0.00    +0.000 C 
BRANCH   5   7
ATOM      7  C   UNL     1       2.267   3.598  17.618  0.00  0.00    +0.000 C 
ATOM      8  O   UNL     1       1.390   4.329  17.183  0.00  0.00    +0.000 OA
BRANCH   7   9
ATOM      9  O   UNL     1       2.090   2.458  18.335  0.00  0.00    +0.000 OA
BRANCH   9  11
ATOM     10  C   UNL     1       1.282   3.311  20.463  0.00  0.00    +0.000 C 
ATOM     11  C   UNL     1       0.976   2.469  19.238  0.00  0.00    +0.000 C 
ENDBRANCH   9  11
ENDBRANCH   7   9
ENDBRANCH   5   7
ENDBRANCH   1   6
BRANCH   1  12
ATOM     12  O   UNL     1       6.564   4.866  15.791  0.00  0.00    +0.000 OA
BRANCH  12  13
ATOM     13  C   UNL     1       6.421   4.051  14.700  0.00  0.00    +0.000 C 
ATOM     14  C   UNL     1       5.585   4.358  13.705  0.00  0.00    +0.000 C 
BRANCH  14  15
ATOM     15  C   UNL     1       5.496   3.478  12.526  0.00  0.00    +0.000 C 
ATOM     16  O   UNL     1       6.441   2.920  11.996  0.00  0.00    +0.000 OA
BRANCH  15  17
ATOM     17  O   UNL     1       4.214   3.509  12.088  0.00  0.00    +0.000 OA
BRANCH  17  18
ATOM     18  C   UNL     1       4.008   2.972  10.773  0.00  0.00    +0.000 C 
ATOM     19  C   UNL     1       3.156   3.958   9.995  0.00  0.00    +0.000 C 
ENDBRANCH  17  18
ENDBRANCH  15  17
ENDBRANCH  14  15
ENDBRANCH  12  13
ENDBRANCH   1  12
TORSDOF 10
ENDMDL
