MODEL 1
REMARK VINA RESULT:      -8.4      0.000      0.000
REMARK  Name = 
REMARK  9 active torsions:
REMARK  status: ('A' for Active; 'I' for Inactive)
REMARK    1  A    between atoms: C_1  and  C_2
REMARK    2  A    between atoms: N_4  and  C_5
REMARK    3  A    between atoms: C_8  and  S_9
REMARK    4  A    between atoms: S_9  and  N_12
REMARK    5  A    between atoms: N_16  and  C_17
REMARK    6  A    between atoms: C_17  and  C_18
REMARK    7  A    between atoms: C_18  and  O_19
REMARK    8  A    between atoms: O_19  and  C_20
REMARK    9  A    between atoms: C_20  and  C_22
REMARK                            x       y       z     vdW  Elec       q    Type
REMARK                         _______ _______ _______ _____ _____    ______ ____
ROOT
ATOM      1  N   UNL     1       4.756   4.326  19.406  0.00  0.00    +0.000 N 
ATOM      2  C   UNL     1       5.762   5.063  18.800  0.00  0.00    +0.000 C 
ATOM      3  N   UNL     1       6.727   5.438  19.544  0.00  0.00    +0.000 NA
ATOM      4  C   UNL     1       7.803   6.185  18.894  0.00  0.00    +0.000 C 
ATOM      5  N   UNL     1       7.579   6.817  17.600  0.00  0.00    +0.000 NA
ATOM      6  C   UNL     1       6.344   6.412  16.960  0.00  0.00    +0.000 C 
ATOM      7  N   UNL     1       5.628   5.302  17.492  0.00  0.00    +0.000 N 
ATOM      8  H   UNL     1       5.006   3.868  20.276  0.00  0.00    +0.000 HD
ATOM      9  H   UNL     1       4.745   5.068  17.045  0.00  0.00    +0.000 HD
ENDROOT
BRANCH   1  10
ATOM     10  S   UNL     1       3.164   4.161  18.970  0.00  0.00    +0.000 S 
ATOM     11  O   UNL     1       2.521   3.400  20.020  0.00  0.00    +0.000 OA
ATOM     12  O   UNL     1       3.093   3.757  17.580  0.00  0.00    +0.000 OA
BRANCH  10  16
ATOM     13  C   UNL     1       1.660   8.493  19.239  0.00  0.00    +0.000 A 
ATOM     14  C   UNL     1       1.702   7.674  20.370  0.00  0.00    +0.000 A 
ATOM     15  C   UNL     1       2.148   6.351  20.287  0.00  0.00    +0.000 A 
ATOM     16  C   UNL     1       2.549   5.830  19.057  0.00  0.00    +0.000 A 
ATOM     17  C   UNL     1       2.503   6.631  17.912  0.00  0.00    +0.000 A 
ATOM     18  C   UNL     1       2.052   7.958  18.005  0.00  0.00    +0.000 A 
BRANCH  13  22
ATOM     19  C   UNL     1       1.120  12.213  18.858  0.00  0.00    +0.000 C 
ATOM     20  C   UNL     1       1.703  10.873  18.493  0.00  0.00    +0.000 C 
ATOM     21  O   UNL     1       2.527  10.784  17.587  0.00  0.00    +0.000 OA
ATOM     22  N   UNL     1       1.224   9.838  19.282  0.00  0.00    +0.000 N 
ATOM     23  H   UNL     1       0.427  10.038  19.874  0.00  0.00    +0.000 HD
ENDBRANCH  13  22
ENDBRANCH  10  16
ENDBRANCH   1  10
BRANCH   5  24
ATOM     24  C   UNL     1       7.745   8.272  17.580  0.00  0.00    +0.000 C 
BRANCH  24  25
ATOM     25  C   UNL     1       8.597   8.838  18.730  0.00  0.00    +0.000 C 
BRANCH  25  26
ATOM     26  O   UNL     1       9.122  10.134  18.377  0.00  0.00    +0.000 OA
BRANCH  26  27
ATOM     27  C   UNL     1       9.620  10.854  19.416  0.00  0.00    +0.000 C 
ATOM     28  O   UNL     1       9.365  10.667  20.595  0.00  0.00    +0.000 OA
BRANCH  27  29
ATOM     29  C   UNL     1      10.550  11.910  18.941  0.00  0.00    +0.000 A 
ATOM     30  C   UNL     1      10.874  11.924  17.577  0.00  0.00    +0.000 A 
ATOM     31  C   UNL     1      11.758  12.878  17.072  0.00  0.00    +0.000 A 
ATOM     32  C   UNL     1      12.322  13.824  17.926  0.00  0.00    +0.000 A 
ATOM     33  C   UNL     1      11.999  13.823  19.283  0.00  0.00    +0.000 A 
ATOM     34  C   UNL     1      11.113  12.870  19.794  0.00  0.00    +0.000 A 
ENDBRANCH  27  29
ENDBRANCH  26  27
ENDBRANCH  25  26
ENDBRANCH  24  25
ENDBRANCH   5  24
TORSDOF 8
ENDMDL
MODEL 2
REMARK VINA RESULT:      -8.3      1.163      1.609
REMARK  Name = 
REMARK  9 active torsions:
REMARK  status: ('A' for Active; 'I' for Inactive)
REMARK    1  A    between atoms: C_1  and  C_2
REMARK    2  A    between atoms: N_4  and  C_5
REMARK    3  A    between atoms: C_8  and  S_9
REMARK    4  A    between atoms: S_9  and  N_12
REMARK    5  A    between atoms: N_16  and  C_17
REMARK    6  A    between atoms: C_17  and  C_18
REMARK    7  A    between atoms: C_18  and  O_19
REMARK    8  A    between atoms: O_19  and  C_20
REMARK    9  A    between atoms: C_20  and  C_22
REMARK                            x       y       z     vdW  Elec       q    Type
REMARK                         _______ _______ _______ _____ _____    ______ ____
ROOT
ATOM      1  N   UNL     1       4.495   4.613  19.667  0.00  0.00    +0.000 N 
ATOM      2  C   UNL     1       5.583   5.051  18.927  0.00  0.00    +0.000 C 
ATOM      3  N   UNL     1       6.604   5.443  19.583  0.00  0.00    +0.000 NA
ATOM      4  C   UNL     1       7.760   5.872  18.797  0.00  0.00    +0.000 C 
ATOM      5  N   UNL     1       7.602   6.228  17.393  0.00  0.00    +0.000 NA
ATOM      6  C   UNL     1       6.311   5.867  16.842  0.00  0.00    +0.000 C 
ATOM      7  N   UNL     1       5.459   5.012  17.596  0.00  0.00    +0.000 N 
ATOM      8  H   UNL     1       4.695   4.327  20.620  0.00  0.00    +0.000 HD
ATOM      9  H   UNL     1       4.544   4.810  17.201  0.00  0.00    +0.000 HD
ENDROOT
BRANCH   1  10
ATOM     10  S   UNL     1       2.889   4.578  19.258  0.00  0.00    +0.000 S 
ATOM     11  O   UNL     1       2.186   3.983  20.375  0.00  0.00    +0.000 OA
ATOM     12  O   UNL     1       2.753   4.064  17.910  0.00  0.00    +0.000 OA
BRANCH  10  16
ATOM     13  C   UNL     1       1.678   9.005  19.062  0.00  0.00    +0.000 A 
ATOM     14  C   UNL     1       2.151   8.337  17.929  0.00  0.00    +0.000 A 
ATOM     15  C   UNL     1       2.531   6.992  17.991  0.00  0.00    +0.000 A 
ATOM     16  C   UNL     1       2.451   6.303  19.201  0.00  0.00    +0.000 A 
ATOM     17  C   UNL     1       1.991   6.959  20.348  0.00  0.00    +0.000 A 
ATOM     18  C   UNL     1       1.613   8.309  20.276  0.00  0.00    +0.000 A 
BRANCH  13  22
ATOM     19  C   UNL     1      -0.141  12.315  18.966  0.00  0.00    +0.000 C 
ATOM     20  C   UNL     1      -0.028  10.823  19.140  0.00  0.00    +0.000 C 
ATOM     21  O   UNL     1      -1.033  10.146  19.332  0.00  0.00    +0.000 OA
ATOM     22  N   UNL     1       1.275  10.360  19.040  0.00  0.00    +0.000 N 
ATOM     23  H   UNL     1       2.013  11.054  19.048  0.00  0.00    +0.000 HD
ENDBRANCH  13  22
ENDBRANCH  10  16
ENDBRANCH   1  10
BRANCH   5  24
ATOM     24  C   UNL     1       7.967   7.606  17.054  0.00  0.00    +0.000 C 
BRANCH  24  25
ATOM     25  C   UNL     1       7.497   8.663  18.068  0.00  0.00    +0.000 C 
BRANCH  25  26
ATOM     26  O   UNL     1       8.620   9.421  18.564  0.00  0.00    +0.000 OA
BRANCH  26  27
ATOM     27  C   UNL     1       8.717  10.687  18.083  0.00  0.00    +0.000 C 
ATOM     28  O   UNL     1       7.898  11.236  17.361  0.00  0.00    +0.000 OA
BRANCH  27  29
ATOM     29  C   UNL     1       9.954  11.352  18.563  0.00  0.00    +0.000 A 
ATOM     30  C   UNL     1      10.758  11.993  17.611  0.00  0.00    +0.000 A 
ATOM     31  C   UNL     1      11.945  12.619  17.995  0.00  0.00    +0.000 A 
ATOM     32  C   UNL     1      12.333  12.609  19.334  0.00  0.00    +0.000 A 
ATOM     33  C   UNL     1      11.535  11.981  20.290  0.00  0.00    +0.000 A 
ATOM     34  C   UNL     1      10.345  11.353  19.909  0.00  0.00    +0.000 A 
ENDBRANCH  27  29
ENDBRANCH  26  27
ENDBRANCH  25  26
ENDBRANCH  24  25
ENDBRANCH   5  24
TORSDOF 8
ENDMDL
MODEL 3
REMARK VINA RESULT:      -8.2      5.372      8.664
REMARK  Name = 
REMARK  9 active torsions:
REMARK  status: ('A' for Active; 'I' for Inactive)
REMARK    1  A    between atoms: C_1  and  C_2
REMARK    2  A    between atoms: N_4  and  C_5
REMARK    3  A    between atoms: C_8  and  S_9
REMARK    4  A    between atoms: S_9  and  N_12
REMARK    5  A    between atoms: N_16  and  C_17
REMARK    6  A    between atoms: C_17  and  C_18
REMARK    7  A    between atoms: C_18  and  O_19
REMARK    8  A    between atoms: O_19  and  C_20
REMARK    9  A    between atoms: C_20  and  C_22
REMARK                            x       y       z     vdW  Elec       q    Type
REMARK                         _______ _______ _______ _____ _____    ______ ____
ROOT
ATOM      1  N   UNL     1       1.138   9.264  19.800  0.00  0.00    +0.000 N 
ATOM      2  C   UNL     1       1.820   8.177  19.275  0.00  0.00    +0.000 C 
ATOM      3  N   UNL     1       2.027   7.194  20.060  0.00  0.00    +0.000 NA
ATOM      4  C   UNL     1       2.716   6.036  19.492  0.00  0.00    +0.000 C 
ATOM      5  N   UNL     1       3.481   6.171  18.259  0.00  0.00    +0.000 NA
ATOM      6  C   UNL     1       3.262   7.427  17.571  0.00  0.00    +0.000 C 
ATOM      7  N   UNL     1       2.188   8.261  17.992  0.00  0.00    +0.000 N 
ATOM      8  H   UNL     1       0.580   9.078  20.627  0.00  0.00    +0.000 HD
ATOM      9  H   UNL     1       2.085   9.155  17.517  0.00  0.00    +0.000 HD
ENDROOT
BRANCH   1  10
ATOM     10  S   UNL     1       1.174  10.855  19.335  0.00  0.00    +0.000 S 
ATOM     11  O   UNL     1       2.022  10.928  18.164  0.00  0.00    +0.000 OA
ATOM     12  O   UNL     1       1.406  11.685  20.500  0.00  0.00    +0.000 OA
BRANCH  10  16
ATOM     13  C   UNL     1      -3.175  11.562  18.036  0.00  0.00    +0.000 A 
ATOM     14  C   UNL     1      -2.455  10.459  17.570  0.00  0.00    +0.000 A 
ATOM     15  C   UNL     1      -1.127  10.250  17.955  0.00  0.00    +0.000 A 
ATOM     16  C   UNL     1      -0.500  11.158  18.809  0.00  0.00    +0.000 A 
ATOM     17  C   UNL     1      -1.201  12.274  19.276  0.00  0.00    +0.000 A 
ATOM     18  C   UNL     1      -2.534  12.477  18.883  0.00  0.00    +0.000 A 
BRANCH  13  22
ATOM     19  C   UNL     1      -6.924  11.999  17.843  0.00  0.00    +0.000 C 
ATOM     20  C   UNL     1      -5.602  11.829  18.546  0.00  0.00    +0.000 C 
ATOM     21  O   UNL     1      -5.564  11.712  19.768  0.00  0.00    +0.000 OA
ATOM     22  N   UNL     1      -4.521  11.806  17.678  0.00  0.00    +0.000 N 
ATOM     23  H   UNL     1      -4.694  12.081  16.719  0.00  0.00    +0.000 HD
ENDBRANCH  13  22
ENDBRANCH  10  16
ENDBRANCH   1  10
BRANCH   5  24
ATOM     24  C   UNL     1       4.908   5.859  18.373  0.00  0.00    +0.000 C 
BRANCH  24  25
ATOM     25  C   UNL     1       5.258   4.844  19.475  0.00  0.00    +0.000 C 
BRANCH  25  26
ATOM     26  O   UNL     1       5.175   3.498  18.964  0.00  0.00    +0.000 OA
BRANCH  26  27
ATOM     27  C   UNL     1       4.631   2.592  19.818  0.00  0.00    +0.000 C 
ATOM     28  O   UNL     1       5.258   1.810  20.516  0.00  0.00    +0.000 OA
BRANCH  27  29
ATOM     29  C   UNL     1       3.148   2.677  19.819  0.00  0.00    +0.000 A 
ATOM     30  C   UNL     1       2.513   2.920  21.044  0.00  0.00    +0.000 A 
ATOM     31  C   UNL     1       1.121   2.991  21.116  0.00  0.00    +0.000 A 
ATOM     32  C   UNL     1       0.357   2.821  19.963  0.00  0.00    +0.000 A 
ATOM     33  C   UNL     1       0.980   2.587  18.738  0.00  0.00    +0.000 A 
ATOM     34  C   UNL     1       2.375   2.516  18.661  0.00  0.00    +0.000 A 
ENDBRANCH  27  29
ENDBRANCH  26  27
ENDBRANCH  25  26
ENDBRANCH  24  25
ENDBRANCH   5  24
TORSDOF 8
ENDMDL
MODEL 4
REMARK VINA RESULT:      -8.1      4.490      6.904
REMARK  Name = 
REMARK  9 active torsions:
REMARK  status: ('A' for Active; 'I' for Inactive)
REMARK    1  A    between atoms: C_1  and  C_2
REMARK    2  A    between atoms: N_4  and  C_5
REMARK    3  A    between atoms: C_8  and  S_9
REMARK    4  A    between atoms: S_9  and  N_12
REMARK    5  A    between atoms: N_16  and  C_17
REMARK    6  A    between atoms: C_17  and  C_18
REMARK    7  A    between atoms: C_18  and  O_19
REMARK    8  A    between atoms: O_19  and  C_20
REMARK    9  A    between atoms: C_20  and  C_22
REMARK                            x       y       z     vdW  Elec       q    Type
REMARK                         _______ _______ _______ _____ _____    ______ ____
ROOT
ATOM      1  N   UNL     1       1.259   9.068  20.521  0.00  0.00    +0.000 N 
ATOM      2  C   UNL     1       1.822   7.920  19.982  0.00  0.00    +0.000 C 
ATOM      3  N   UNL     1       2.121   7.954  18.743  0.00  0.00    +0.000 NA
ATOM      4  C   UNL     1       2.746   6.754  18.188  0.00  0.00    +0.000 C 
ATOM      5  N   UNL     1       2.638   5.480  18.889  0.00  0.00    +0.000 NA
ATOM      6  C   UNL     1       2.115   5.597  20.235  0.00  0.00    +0.000 C 
ATOM      7  N   UNL     1       2.005   6.892  20.817  0.00  0.00    +0.000 N 
ATOM      8  H   UNL     1       1.427   9.925  20.006  0.00  0.00    +0.000 HD
ATOM      9  H   UNL     1       1.596   6.945  21.747  0.00  0.00    +0.000 HD
ENDROOT
BRANCH   1  10
ATOM     10  S   UNL     1       0.264   9.234  21.836  0.00  0.00    +0.000 S 
ATOM     11  O   UNL     1       1.119   9.475  22.979  0.00  0.00    +0.000 OA
ATOM     12  O   UNL     1      -0.718   8.168  21.826  0.00  0.00    +0.000 OA
BRANCH  10  16
ATOM     13  C   UNL     1      -1.919  13.185  20.979  0.00  0.00    +0.000 A 
ATOM     14  C   UNL     1      -1.847  12.668  22.276  0.00  0.00    +0.000 A 
ATOM     15  C   UNL     1      -1.193  11.460  22.536  0.00  0.00    +0.000 A 
ATOM     16  C   UNL     1      -0.611  10.747  21.488  0.00  0.00    +0.000 A 
ATOM     17  C   UNL     1      -0.683  11.242  20.182  0.00  0.00    +0.000 A 
ATOM     18  C   UNL     1      -1.343  12.455  19.931  0.00  0.00    +0.000 A 
BRANCH  13  22
ATOM     19  C   UNL     1      -2.936  16.776  20.390  0.00  0.00    +0.000 C 
ATOM     20  C   UNL     1      -1.959  15.654  20.627  0.00  0.00    +0.000 C 
ATOM     21  O   UNL     1      -0.764  15.896  20.771  0.00  0.00    +0.000 OA
ATOM     22  N   UNL     1      -2.563  14.407  20.675  0.00  0.00    +0.000 N 
ATOM     23  H   UNL     1      -3.528  14.349  20.374  0.00  0.00    +0.000 HD
ENDBRANCH  13  22
ENDBRANCH  10  16
ENDBRANCH   1  10
BRANCH   5  24
ATOM     24  C   UNL     1       1.970   4.412  18.141  0.00  0.00    +0.000 C 
BRANCH  24  25
ATOM     25  C   UNL     1       2.915   3.497  17.343  0.00  0.00    +0.000 C 
BRANCH  25  26
ATOM     26  O   UNL     1       4.282   3.702  17.755  0.00  0.00    +0.000 OA
BRANCH  26  27
ATOM     27  C   UNL     1       5.078   4.300  16.831  0.00  0.00    +0.000 C 
ATOM     28  O   UNL     1       4.990   4.157  15.621  0.00  0.00    +0.000 OA
BRANCH  27  29
ATOM     29  C   UNL     1       6.080   5.185  17.477  0.00  0.00    +0.000 A 
ATOM     30  C   UNL     1       6.456   6.348  16.791  0.00  0.00    +0.000 A 
ATOM     31  C   UNL     1       7.409   7.211  17.334  0.00  0.00    +0.000 A 
ATOM     32  C   UNL     1       7.989   6.917  18.567  0.00  0.00    +0.000 A 
ATOM     33  C   UNL     1       7.615   5.767  19.261  0.00  0.00    +0.000 A 
ATOM     34  C   UNL     1       6.660   4.899  18.720  0.00  0.00    +0.000 A 
ENDBRANCH  27  29
ENDBRANCH  26  27
ENDBRANCH  25  26
ENDBRANCH  24  25
ENDBRANCH   5  24
TORSDOF 8
ENDMDL
MODEL 5
REMARK VINA RESULT:      -8.1      1.988      2.349
REMARK  Name = 
REMARK  9 active torsions:
REMARK  status: ('A' for Active; 'I' for Inactive)
REMARK    1  A    between atoms: C_1  and  C_2
REMARK    2  A    between atoms: N_4  and  C_5
REMARK    3  A    between atoms: C_8  and  S_9
REMARK    4  A    between atoms: S_9  and  N_12
REMARK    5  A    between atoms: N_16  and  C_17
REMARK    6  A    between atoms: C_17  and  C_18
REMARK    7  A    between atoms: C_18  and  O_19
REMARK    8  A    between atoms: O_19  and  C_20
REMARK    9  A    between atoms: C_20  and  C_22
REMARK                            x       y       z     vdW  Elec       q    Type
REMARK                         _______ _______ _______ _____ _____    ______ ____
ROOT
ATOM      1  N   UNL     1       5.364   4.178  19.377  0.00  0.00    +0.000 N 
ATOM      2  C   UNL     1       6.240   5.096  18.819  0.00  0.00    +0.000 C 
ATOM      3  N   UNL     1       7.150   5.560  19.582  0.00  0.00    +0.000 NA
ATOM      4  C   UNL     1       8.093   6.502  18.979  0.00  0.00    +0.000 C 
ATOM      5  N   UNL     1       7.757   7.178  17.732  0.00  0.00    +0.000 NA
ATOM      6  C   UNL     1       6.586   6.636  17.072  0.00  0.00    +0.000 C 
ATOM      7  N   UNL     1       6.052   5.399  17.530  0.00  0.00    +0.000 N 
ATOM      8  H   UNL     1       5.693   3.705  20.212  0.00  0.00    +0.000 HD
ATOM      9  H   UNL     1       5.207   5.065  17.073  0.00  0.00    +0.000 HD
ENDROOT
BRANCH   1  10
ATOM     10  S   UNL     1       3.809   3.805  18.939  0.00  0.00    +0.000 S 
ATOM     11  O   UNL     1       3.374   2.735  19.811  0.00  0.00    +0.000 OA
ATOM     12  O   UNL     1       3.736   3.693  17.496  0.00  0.00    +0.000 OA
BRANCH  10  16
ATOM     13  C   UNL     1       1.536   7.602  20.176  0.00  0.00    +0.000 A 
ATOM     14  C   UNL     1       1.446   6.430  20.932  0.00  0.00    +0.000 A 
ATOM     15  C   UNL     1       2.128   5.270  20.550  0.00  0.00    +0.000 A 
ATOM     16  C   UNL     1       2.903   5.271  19.390  0.00  0.00    +0.000 A 
ATOM     17  C   UNL     1       2.996   6.431  18.615  0.00  0.00    +0.000 A 
ATOM     18  C   UNL     1       2.307   7.590  19.006  0.00  0.00    +0.000 A 
BRANCH  13  22
ATOM     19  C   UNL     1       0.119  10.684  21.840  0.00  0.00    +0.000 C 
ATOM     20  C   UNL     1       1.064   9.519  21.700  0.00  0.00    +0.000 C 
ATOM     21  O   UNL     1       1.887   9.282  22.580  0.00  0.00    +0.000 OA
ATOM     22  N   UNL     1       0.870   8.797  20.532  0.00  0.00    +0.000 N 
ATOM     23  H   UNL     1       0.270   9.210  19.828  0.00  0.00    +0.000 HD
ENDBRANCH  13  22
ENDBRANCH  10  16
ENDBRANCH   1  10
BRANCH   5  24
ATOM     24  C   UNL     1       7.704   8.640  17.811  0.00  0.00    +0.000 C 
BRANCH  24  25
ATOM     25  C   UNL     1       8.823   9.280  18.651  0.00  0.00    +0.000 C 
BRANCH  25  26
ATOM     26  O   UNL     1       9.300  10.486  18.022  0.00  0.00    +0.000 OA
BRANCH  26  27
ATOM     27  C   UNL     1       9.839  11.401  18.867  0.00  0.00    +0.000 C 
ATOM     28  O   UNL     1      10.865  11.251  19.514  0.00  0.00    +0.000 OA
BRANCH  27  29
ATOM     29  C   UNL     1       9.029  12.645  18.901  0.00  0.00    +0.000 A 
ATOM     30  C   UNL     1       8.904  13.305  20.132  0.00  0.00    +0.000 A 
ATOM     31  C   UNL     1       8.139  14.468  20.235  0.00  0.00    +0.000 A 
ATOM     32  C   UNL     1       7.497  14.978  19.108  0.00  0.00    +0.000 A 
ATOM     33  C   UNL     1       7.623  14.334  17.878  0.00  0.00    +0.000 A 
ATOM     34  C   UNL     1       8.388  13.169  17.770  0.00  0.00    +0.000 A 
ENDBRANCH  27  29
ENDBRANCH  26  27
ENDBRANCH  25  26
ENDBRANCH  24  25
ENDBRANCH   5  24
TORSDOF 8
ENDMDL
MODEL 6
REMARK VINA RESULT:      -8.1      1.087      1.519
REMARK  Name = 
REMARK  9 active torsions:
REMARK  status: ('A' for Active; 'I' for Inactive)
REMARK    1  A    between atoms: C_1  and  C_2
REMARK    2  A    between atoms: N_4  and  C_5
REMARK    3  A    between atoms: C_8  and  S_9
REMARK    4  A    between atoms: S_9  and  N_12
REMARK    5  A    between atoms: N_16  and  C_17
REMARK    6  A    between atoms: C_17  and  C_18
REMARK    7  A    between atoms: C_18  and  O_19
REMARK    8  A    between atoms: O_19  and  C_20
REMARK    9  A    between atoms: C_20  and  C_22
REMARK                            x       y       z     vdW  Elec       q    Type
REMARK                         _______ _______ _______ _____ _____    ______ ____
ROOT
ATOM      1  N   UNL     1       4.544   4.672  19.639  0.00  0.00    +0.000 N 
ATOM      2  C   UNL     1       5.615   5.199  18.932  0.00  0.00    +0.000 C 
ATOM      3  N   UNL     1       6.617   5.594  19.615  0.00  0.00    +0.000 NA
ATOM      4  C   UNL     1       7.757   6.117  18.863  0.00  0.00    +0.000 C 
ATOM      5  N   UNL     1       7.588   6.549  17.481  0.00  0.00    +0.000 NA
ATOM      6  C   UNL     1       6.315   6.168  16.903  0.00  0.00    +0.000 C 
ATOM      7  N   UNL     1       5.497   5.234  17.600  0.00  0.00    +0.000 N 
ATOM      8  H   UNL     1       4.754   4.339  20.574  0.00  0.00    +0.000 HD
ATOM      9  H   UNL     1       4.592   5.018  17.189  0.00  0.00    +0.000 HD
ENDROOT
BRANCH   1  10
ATOM     10  S   UNL     1       2.942   4.594  19.219  0.00  0.00    +0.000 S 
ATOM     11  O   UNL     1       2.263   3.903  20.294  0.00  0.00    +0.000 OA
ATOM     12  O   UNL     1       2.833   4.160  17.841  0.00  0.00    +0.000 OA
BRANCH  10  16
ATOM     13  C   UNL     1       1.544   8.970  19.290  0.00  0.00    +0.000 A 
ATOM     14  C   UNL     1       2.032   8.388  18.117  0.00  0.00    +0.000 A 
ATOM     15  C   UNL     1       2.469   7.060  18.097  0.00  0.00    +0.000 A 
ATOM     16  C   UNL     1       2.432   6.300  19.266  0.00  0.00    +0.000 A 
ATOM     17  C   UNL     1       1.958   6.868  20.453  0.00  0.00    +0.000 A 
ATOM     18  C   UNL     1       1.523   8.203  20.463  0.00  0.00    +0.000 A 
BRANCH  13  22
ATOM     19  C   UNL     1      -0.300  12.257  19.015  0.00  0.00    +0.000 C 
ATOM     20  C   UNL     1      -0.155  10.759  18.926  0.00  0.00    +0.000 C 
ATOM     21  O   UNL     1      -1.078  10.074  18.496  0.00  0.00    +0.000 OA
ATOM     22  N   UNL     1       1.085  10.306  19.351  0.00  0.00    +0.000 N 
ATOM     23  H   UNL     1       1.679  10.969  19.834  0.00  0.00    +0.000 HD
ENDBRANCH  13  22
ENDBRANCH  10  16
ENDBRANCH   1  10
BRANCH   5  24
ATOM     24  C   UNL     1       7.896   7.959  17.227  0.00  0.00    +0.000 C 
BRANCH  24  25
ATOM     25  C   UNL     1       7.908   8.850  18.481  0.00  0.00    +0.000 C 
BRANCH  25  26
ATOM     26  O   UNL     1       9.259   9.213  18.829  0.00  0.00    +0.000 OA
BRANCH  26  27
ATOM     27  C   UNL     1       9.380  10.358  19.549  0.00  0.00    +0.000 C 
ATOM     28  O   UNL     1       9.139  10.475  20.741  0.00  0.00    +0.000 OA
BRANCH  27  29
ATOM     29  C   UNL     1       9.872  11.475  18.704  0.00  0.00    +0.000 A 
ATOM     30  C   UNL     1      11.258  11.607  18.545  0.00  0.00    +0.000 A 
ATOM     31  C   UNL     1      11.785  12.648  17.779  0.00  0.00    +0.000 A 
ATOM     32  C   UNL     1      10.929  13.562  17.167  0.00  0.00    +0.000 A 
ATOM     33  C   UNL     1       9.548  13.433  17.312  0.00  0.00    +0.000 A 
ATOM     34  C   UNL     1       9.015  12.391  18.078  0.00  0.00    +0.000 A 
ENDBRANCH  27  29
ENDBRANCH  26  27
ENDBRANCH  25  26
ENDBRANCH  24  25
ENDBRANCH   5  24
TORSDOF 8
ENDMDL
MODEL 7
REMARK VINA RESULT:      -8.1      1.935      2.075
REMARK  Name = 
REMARK  9 active torsions:
REMARK  status: ('A' for Active; 'I' for Inactive)
REMARK    1  A    between atoms: C_1  and  C_2
REMARK    2  A    between atoms: N_4  and  C_5
REMARK    3  A    between atoms: C_8  and  S_9
REMARK    4  A    between atoms: S_9  and  N_12
REMARK    5  A    between atoms: N_16  and  C_17
REMARK    6  A    between atoms: C_17  and  C_18
REMARK    7  A    between atoms: C_18  and  O_19
REMARK    8  A    between atoms: O_19  and  C_20
REMARK    9  A    between atoms: C_20  and  C_22
REMARK                            x       y       z     vdW  Elec       q    Type
REMARK                         _______ _______ _______ _____ _____    ______ ____
ROOT
ATOM      1  N   UNL     1       4.563   3.217  18.071  0.00  0.00    +0.000 N 
ATOM      2  C   UNL     1       5.483   4.210  17.771  0.00  0.00    +0.000 C 
ATOM      3  N   UNL     1       6.600   4.162  18.383  0.00  0.00    +0.000 NA
ATOM      4  C   UNL     1       7.580   5.191  18.038  0.00  0.00    +0.000 C 
ATOM      5  N   UNL     1       7.154   6.416  17.373  0.00  0.00    +0.000 NA
ATOM      6  C   UNL     1       5.791   6.369  16.885  0.00  0.00    +0.000 C 
ATOM      7  N   UNL     1       5.113   5.118  16.862  0.00  0.00    +0.000 N 
ATOM      8  H   UNL     1       4.944   2.370  18.480  0.00  0.00    +0.000 HD
ATOM      9  H   UNL     1       4.144   5.125  16.552  0.00  0.00    +0.000 HD
ENDROOT
BRANCH   1  10
ATOM     10  S   UNL     1       2.909   3.243  17.952  0.00  0.00    +0.000 S 
ATOM     11  O   UNL     1       2.421   2.082  18.665  0.00  0.00    +0.000 OA
ATOM     12  O   UNL     1       2.536   3.508  16.577  0.00  0.00    +0.000 OA
BRANCH  10  16
ATOM     13  C   UNL     1       1.843   6.959  20.434  0.00  0.00    +0.000 A 
ATOM     14  C   UNL     1       1.861   5.687  21.013  0.00  0.00    +0.000 A 
ATOM     15  C   UNL     1       2.174   4.554  20.255  0.00  0.00    +0.000 A 
ATOM     16  C   UNL     1       2.462   4.685  18.897  0.00  0.00    +0.000 A 
ATOM     17  C   UNL     1       2.437   5.948  18.298  0.00  0.00    +0.000 A 
ATOM     18  C   UNL     1       2.121   7.080  19.066  0.00  0.00    +0.000 A 
BRANCH  13  22
ATOM     19  C   UNL     1       0.269   9.877  22.246  0.00  0.00    +0.000 C 
ATOM     20  C   UNL     1       0.280   8.520  21.591  0.00  0.00    +0.000 C 
ATOM     21  O   UNL     1      -0.764   7.887  21.467  0.00  0.00    +0.000 OA
ATOM     22  N   UNL     1       1.541   8.131  21.166  0.00  0.00    +0.000 N 
ATOM     23  H   UNL     1       2.327   8.682  21.487  0.00  0.00    +0.000 HD
ENDBRANCH  13  22
ENDBRANCH  10  16
ENDBRANCH   1  10
BRANCH   5  24
ATOM     24  C   UNL     1       7.421   7.652  18.113  0.00  0.00    +0.000 C 
BRANCH  24  25
ATOM     25  C   UNL     1       8.376   8.630  17.406  0.00  0.00    +0.000 C 
BRANCH  25  26
ATOM     26  O   UNL     1       8.134   9.981  17.851  0.00  0.00    +0.000 OA
BRANCH  26  27
ATOM     27  C   UNL     1       9.047  10.469  18.730  0.00  0.00    +0.000 C 
ATOM     28  O   UNL     1       9.370   9.940  19.783  0.00  0.00    +0.000 OA
BRANCH  27  29
ATOM     29  C   UNL     1       9.635  11.742  18.244  0.00  0.00    +0.000 A 
ATOM     30  C   UNL     1      10.910  11.689  17.665  0.00  0.00    +0.000 A 
ATOM     31  C   UNL     1      11.527  12.853  17.206  0.00  0.00    +0.000 A 
ATOM     32  C   UNL     1      10.872  14.078  17.322  0.00  0.00    +0.000 A 
ATOM     33  C   UNL     1       9.598  14.140  17.888  0.00  0.00    +0.000 A 
ATOM     34  C   UNL     1       8.976  12.975  18.349  0.00  0.00    +0.000 A 
ENDBRANCH  27  29
ENDBRANCH  26  27
ENDBRANCH  25  26
ENDBRANCH  24  25
ENDBRANCH   5  24
TORSDOF 8
ENDMDL
MODEL 8
REMARK VINA RESULT:      -8.0      1.838      1.981
REMARK  Name = 
REMARK  9 active torsions:
REMARK  status: ('A' for Active; 'I' for Inactive)
REMARK    1  A    between atoms: C_1  and  C_2
REMARK    2  A    between atoms: N_4  and  C_5
REMARK    3  A    between atoms: C_8  and  S_9
REMARK    4  A    between atoms: S_9  and  N_12
REMARK    5  A    between atoms: N_16  and  C_17
REMARK    6  A    between atoms: C_17  and  C_18
REMARK    7  A    between atoms: C_18  and  O_19
REMARK    8  A    between atoms: O_19  and  C_20
REMARK    9  A    between atoms: C_20  and  C_22
REMARK                            x       y       z     vdW  Elec       q    Type
REMARK                         _______ _______ _______ _____ _____    ______ ____
ROOT
ATOM      1  N   UNL     1       5.514   4.247  19.301  0.00  0.00    +0.000 N 
ATOM      2  C   UNL     1       6.344   5.203  18.734  0.00  0.00    +0.000 C 
ATOM      3  N   UNL     1       7.250   5.695  19.485  0.00  0.00    +0.000 NA
ATOM      4  C   UNL     1       8.145   6.676  18.872  0.00  0.00    +0.000 C 
ATOM      5  N   UNL     1       7.760   7.350  17.639  0.00  0.00    +0.000 NA
ATOM      6  C   UNL     1       6.598   6.770  16.996  0.00  0.00    +0.000 C 
ATOM      7  N   UNL     1       6.120   5.509  17.453  0.00  0.00    +0.000 N 
ATOM      8  H   UNL     1       5.876   3.780  20.125  0.00  0.00    +0.000 HD
ATOM      9  H   UNL     1       5.279   5.148  17.008  0.00  0.00    +0.000 HD
ENDROOT
BRANCH   1  10
ATOM     10  S   UNL     1       3.966   3.820  18.889  0.00  0.00    +0.000 S 
ATOM     11  O   UNL     1       3.589   2.728  19.760  0.00  0.00    +0.000 OA
ATOM     12  O   UNL     1       3.870   3.717  17.447  0.00  0.00    +0.000 OA
BRANCH  10  16
ATOM     13  C   UNL     1       1.576   7.518  20.202  0.00  0.00    +0.000 A 
ATOM     14  C   UNL     1       1.536   6.334  20.943  0.00  0.00    +0.000 A 
ATOM     15  C   UNL     1       2.254   5.204  20.538  0.00  0.00    +0.000 A 
ATOM     16  C   UNL     1       3.014   5.248  19.370  0.00  0.00    +0.000 A 
ATOM     17  C   UNL     1       3.057   6.420  18.608  0.00  0.00    +0.000 A 
ATOM     18  C   UNL     1       2.333   7.549  19.022  0.00  0.00    +0.000 A 
BRANCH  13  22
ATOM     19  C   UNL     1       0.110  10.556  21.904  0.00  0.00    +0.000 C 
ATOM     20  C   UNL     1       1.104   9.438  21.722  0.00  0.00    +0.000 C 
ATOM     21  O   UNL     1       1.993   9.262  22.549  0.00  0.00    +0.000 OA
ATOM     22  N   UNL     1       0.873   8.685  20.581  0.00  0.00    +0.000 N 
ATOM     23  H   UNL     1       0.207   9.052  19.912  0.00  0.00    +0.000 HD
ENDBRANCH  13  22
ENDBRANCH  10  16
ENDBRANCH   1  10
BRANCH   5  24
ATOM     24  C   UNL     1       7.654   8.808  17.732  0.00  0.00    +0.000 C 
BRANCH  24  25
ATOM     25  C   UNL     1       8.814   9.491  18.476  0.00  0.00    +0.000 C 
BRANCH  25  26
ATOM     26  O   UNL     1       8.778  10.918  18.266  0.00  0.00    +0.000 OA
BRANCH  26  27
ATOM     27  C   UNL     1       9.947  11.565  18.511  0.00  0.00    +0.000 C 
ATOM     28  O   UNL     1      10.970  11.045  18.931  0.00  0.00    +0.000 OA
BRANCH  27  29
ATOM     29  C   UNL     1       9.841  13.009  18.183  0.00  0.00    +0.000 A 
ATOM     30  C   UNL     1      10.957  13.626  17.600  0.00  0.00    +0.000 A 
ATOM     31  C   UNL     1      10.929  14.985  17.287  0.00  0.00    +0.000 A 
ATOM     32  C   UNL     1       9.785  15.735  17.552  0.00  0.00    +0.000 A 
ATOM     33  C   UNL     1       8.666  15.128  18.123  0.00  0.00    +0.000 A 
ATOM     34  C   UNL     1       8.690  13.766  18.439  0.00  0.00    +0.000 A 
ENDBRANCH  27  29
ENDBRANCH  26  27
ENDBRANCH  25  26
ENDBRANCH  24  25
ENDBRANCH   5  24
TORSDOF 8
ENDMDL
MODEL 9
REMARK VINA RESULT:      -8.0      1.233      1.649
REMARK  Name = 
REMARK  9 active torsions:
REMARK  status: ('A' for Active; 'I' for Inactive)
REMARK    1  A    between atoms: C_1  and  C_2
REMARK    2  A    between atoms: N_4  and  C_5
REMARK    3  A    between atoms: C_8  and  S_9
REMARK    4  A    between atoms: S_9  and  N_12
REMARK    5  A    between atoms: N_16  and  C_17
REMARK    6  A    between atoms: C_17  and  C_18
REMARK    7  A    between atoms: C_18  and  O_19
REMARK    8  A    between atoms: O_19  and  C_20
REMARK    9  A    between atoms: C_20  and  C_22
REMARK                            x       y       z     vdW  Elec       q    Type
REMARK                         _______ _______ _______ _____ _____    ______ ____
ROOT
ATOM      1  N   UNL     1       4.603   3.804  19.389  0.00  0.00    +0.000 N 
ATOM      2  C   UNL     1       5.592   4.370  18.598  0.00  0.00    +0.000 C 
ATOM      3  N   UNL     1       6.646   4.770  19.194  0.00  0.00    +0.000 NA
ATOM      4  C   UNL     1       7.699   5.335  18.352  0.00  0.00    +0.000 C 
ATOM      5  N   UNL     1       7.392   5.796  17.004  0.00  0.00    +0.000 NA
ATOM      6  C   UNL     1       6.078   5.401  16.538  0.00  0.00    +0.000 C 
ATOM      7  N   UNL     1       5.348   4.434  17.285  0.00  0.00    +0.000 N 
ATOM      8  H   UNL     1       4.906   3.453  20.291  0.00  0.00    +0.000 HD
ATOM      9  H   UNL     1       4.413   4.208  16.955  0.00  0.00    +0.000 HD
ENDROOT
BRANCH   1  10
ATOM     10  S   UNL     1       2.970   3.701  19.120  0.00  0.00    +0.000 S 
ATOM     11  O   UNL     1       2.427   2.862  20.167  0.00  0.00    +0.000 OA
ATOM     12  O   UNL     1       2.737   3.422  17.717  0.00  0.00    +0.000 OA
BRANCH  10  16
ATOM     13  C   UNL     1       1.598   8.007  19.948  0.00  0.00    +0.000 A 
ATOM     14  C   UNL     1       1.386   6.991  20.884  0.00  0.00    +0.000 A 
ATOM     15  C   UNL     1       1.792   5.677  20.628  0.00  0.00    +0.000 A 
ATOM     16  C   UNL     1       2.409   5.366  19.416  0.00  0.00    +0.000 A 
ATOM     17  C   UNL     1       2.620   6.367  18.463  0.00  0.00    +0.000 A 
ATOM     18  C   UNL     1       2.207   7.683  18.729  0.00  0.00    +0.000 A 
BRANCH  13  22
ATOM     19  C   UNL     1       0.617  11.650  19.742  0.00  0.00    +0.000 C 
ATOM     20  C   UNL     1       0.870  10.269  19.193  0.00  0.00    +0.000 C 
ATOM     21  O   UNL     1       0.782  10.059  17.987  0.00  0.00    +0.000 OA
ATOM     22  N   UNL     1       1.210   9.348  20.172  0.00  0.00    +0.000 N 
ATOM     23  H   UNL     1       1.079   9.629  21.136  0.00  0.00    +0.000 HD
ENDBRANCH  13  22
ENDBRANCH  10  16
ENDBRANCH   1  10
BRANCH   5  24
ATOM     24  C   UNL     1       7.648   7.217  16.757  0.00  0.00    +0.000 C 
BRANCH  24  25
ATOM     25  C   UNL     1       7.393   8.135  17.966  0.00  0.00    +0.000 C 
BRANCH  25  26
ATOM     26  O   UNL     1       8.598   8.840  18.326  0.00  0.00    +0.000 OA
BRANCH  26  27
ATOM     27  C   UNL     1       8.566  10.181  18.111  0.00  0.00    +0.000 C 
ATOM     28  O   UNL     1       7.702  10.778  17.488  0.00  0.00    +0.000 OA
BRANCH  27  29
ATOM     29  C   UNL     1       9.721  10.856  18.754  0.00  0.00    +0.000 A 
ATOM     30  C   UNL     1       9.595  11.216  20.103  0.00  0.00    +0.000 A 
ATOM     31  C   UNL     1      10.637  11.872  20.759  0.00  0.00    +0.000 A 
ATOM     32  C   UNL     1      11.812  12.170  20.072  0.00  0.00    +0.000 A 
ATOM     33  C   UNL     1      11.951  11.808  18.732  0.00  0.00    +0.000 A 
ATOM     34  C   UNL     1      10.909  11.150  18.070  0.00  0.00    +0.000 A 
ENDBRANCH  27  29
ENDBRANCH  26  27
ENDBRANCH  25  26
ENDBRANCH  24  25
ENDBRANCH   5  24
TORSDOF 8
ENDMDL
