MODEL 1
REMARK VINA RESULT:      -7.7      0.000      0.000
REMARK  Name = 
REMARK  6 active torsions:
REMARK  status: ('A' for Active; 'I' for Inactive)
REMARK    1  A    between atoms: C_1  and  C_2
REMARK    2  A    between atoms: C_6  and  C_8
REMARK    3  A    between atoms: C_8  and  C_9
REMARK    4  A    between atoms: C_9  and  N_10
REMARK    5  A    between atoms: N_13  and  S_14
REMARK    6  A    between atoms: S_14  and  C_17
REMARK                            x       y       z     vdW  Elec       q    Type
REMARK                         _______ _______ _______ _____ _____    ______ ____
ROOT
ATOM      1  N   UNL     1       5.074   4.761  17.998  0.00  0.00    +0.000 NA
ATOM      2  C   UNL     1       6.407   5.384  17.858  0.00  0.00    +0.000 C 
ATOM      3  C   UNL     1       7.472   4.563  17.105  0.00  0.00    +0.000 C 
ATOM      4  N   UNL     1       6.951   4.014  15.822  0.00  0.00    +0.000 NA
ATOM      5  C   UNL     1       5.734   3.195  16.102  0.00  0.00    +0.000 C 
ATOM      6  C   UNL     1       4.645   4.036  16.788  0.00  0.00    +0.000 C 
ENDROOT
BRANCH   4   7
ATOM      7  S   UNL     1       6.774   5.117  14.523  0.00  0.00    +0.000 S 
ATOM      8  O   UNL     1       5.680   6.002  14.846  0.00  0.00    +0.000 OA
ATOM      9  O   UNL     1       8.064   5.647  14.153  0.00  0.00    +0.000 OA
BRANCH   7  10
ATOM     10  C   UNL     1       6.215   4.078  13.202  0.00  0.00    +0.000 A 
ATOM     11  C   UNL     1       4.857   4.031  12.861  0.00  0.00    +0.000 A 
ATOM     12  C   UNL     1       4.436   3.173  11.841  0.00  0.00    +0.000 A 
ATOM     13  C   UNL     1       5.368   2.377  11.175  0.00  0.00    +0.000 A 
ATOM     14  C   UNL     1       6.714   2.443  11.528  0.00  0.00    +0.000 A 
ATOM     15  F   UNL     1       7.603   1.677  10.881  0.00  0.00    +0.000 F 
ATOM     16  C   UNL     1       7.150   3.284  12.540  0.00  0.00    +0.000 A 
ENDBRANCH   7  10
ENDBRANCH   4   7
BRANCH   1  17
ATOM     17  C   UNL     1       4.868   4.032  19.244  0.00  0.00    +0.000 C 
BRANCH  17  18
ATOM     18  C   UNL     1       3.385   3.834  19.584  0.00  0.00    +0.000 C 
BRANCH  18  24
ATOM     19  C   UNL     1       1.095  10.805  18.613  0.00  0.00    +0.000 C 
ATOM     20  C   UNL     1       1.478   9.442  19.017  0.00  0.00    +0.000 A 
ATOM     21  C   UNL     1       2.116   8.394  18.402  0.00  0.00    +0.000 A 
ATOM     22  C   UNL     1       2.137   7.364  19.378  0.00  0.00    +0.000 A 
ATOM     23  N   UNL     1       2.688   6.116  19.161  0.00  0.00    +0.000 N 
ATOM     24  C   UNL     1       2.707   5.098  20.093  0.00  0.00    +0.000 C 
ATOM     25  O   UNL     1       2.206   5.114  21.214  0.00  0.00    +0.000 OA
ATOM     26  N   UNL     1       1.550   7.779  20.503  0.00  0.00    +0.000 NA
ATOM     27  O   UNL     1       1.143   9.077  20.279  0.00  0.00    +0.000 OA
ATOM     28  H   UNL     1       3.115   5.969  18.261  0.00  0.00    +0.000 HD
ENDBRANCH  18  24
ENDBRANCH  17  18
ENDBRANCH   1  17
TORSDOF 5
ENDMDL
MODEL 2
REMARK VINA RESULT:      -7.7      4.883      7.198
REMARK  Name = 
REMARK  6 active torsions:
REMARK  status: ('A' for Active; 'I' for Inactive)
REMARK    1  A    between atoms: C_1  and  C_2
REMARK    2  A    between atoms: C_6  and  C_8
REMARK    3  A    between atoms: C_8  and  C_9
REMARK    4  A    between atoms: C_9  and  N_10
REMARK    5  A    between atoms: N_13  and  S_14
REMARK    6  A    between atoms: S_14  and  C_17
REMARK                            x       y       z     vdW  Elec       q    Type
REMARK                         _______ _______ _______ _____ _____    ______ ____
ROOT
ATOM      1  N   UNL     1       6.895   4.567  17.610  0.00  0.00    +0.000 NA
ATOM      2  C   UNL     1       5.955   4.723  18.740  0.00  0.00    +0.000 C 
ATOM      3  C   UNL     1       4.634   5.456  18.436  0.00  0.00    +0.000 C 
ATOM      4  N   UNL     1       3.978   4.938  17.203  0.00  0.00    +0.000 NA
ATOM      5  C   UNL     1       4.933   5.049  16.060  0.00  0.00    +0.000 C 
ATOM      6  C   UNL     1       6.221   4.255  16.336  0.00  0.00    +0.000 C 
ENDROOT
BRANCH   4   7
ATOM      7  S   UNL     1       3.195   3.420  17.323  0.00  0.00    +0.000 S 
ATOM      8  O   UNL     1       2.059   3.441  16.431  0.00  0.00    +0.000 OA
ATOM      9  O   UNL     1       4.169   2.359  17.246  0.00  0.00    +0.000 OA
BRANCH   7  10
ATOM     10  C   UNL     1       2.546   3.444  18.971  0.00  0.00    +0.000 A 
ATOM     11  C   UNL     1       1.473   4.281  19.301  0.00  0.00    +0.000 A 
ATOM     12  C   UNL     1       1.006   4.311  20.617  0.00  0.00    +0.000 A 
ATOM     13  C   UNL     1       1.610   3.508  21.586  0.00  0.00    +0.000 A 
ATOM     14  C   UNL     1       2.674   2.680  21.236  0.00  0.00    +0.000 A 
ATOM     15  F   UNL     1       3.247   1.911  22.171  0.00  0.00    +0.000 F 
ATOM     16  C   UNL     1       3.154   2.641  19.936  0.00  0.00    +0.000 A 
ENDBRANCH   7  10
ENDBRANCH   4   7
BRANCH   1  17
ATOM     17  C   UNL     1       7.916   5.603  17.515  0.00  0.00    +0.000 C 
BRANCH  17  18
ATOM     18  C   UNL     1       7.872   6.596  18.684  0.00  0.00    +0.000 C 
BRANCH  18  24
ATOM     19  C   UNL     1      10.700  13.348  19.778  0.00  0.00    +0.000 C 
ATOM     20  C   UNL     1      10.038  12.094  19.381  0.00  0.00    +0.000 A 
ATOM     21  C   UNL     1       9.959  10.831  19.912  0.00  0.00    +0.000 A 
ATOM     22  C   UNL     1       9.159  10.104  18.992  0.00  0.00    +0.000 A 
ATOM     23  N   UNL     1       8.838   8.770  19.147  0.00  0.00    +0.000 N 
ATOM     24  C   UNL     1       8.071   8.043  18.258  0.00  0.00    +0.000 C 
ATOM     25  O   UNL     1       7.608   8.435  17.190  0.00  0.00    +0.000 OA
ATOM     26  N   UNL     1       8.783  10.891  17.981  0.00  0.00    +0.000 NA
ATOM     27  O   UNL     1       9.328  12.133  18.226  0.00  0.00    +0.000 OA
ATOM     28  H   UNL     1       9.182   8.323  19.981  0.00  0.00    +0.000 HD
ENDBRANCH  18  24
ENDBRANCH  17  18
ENDBRANCH   1  17
TORSDOF 5
ENDMDL
MODEL 3
REMARK VINA RESULT:      -7.5      3.554      5.360
REMARK  Name = 
REMARK  6 active torsions:
REMARK  status: ('A' for Active; 'I' for Inactive)
REMARK    1  A    between atoms: C_1  and  C_2
REMARK    2  A    between atoms: C_6  and  C_8
REMARK    3  A    between atoms: C_8  and  C_9
REMARK    4  A    between atoms: C_9  and  N_10
REMARK    5  A    between atoms: N_13  and  S_14
REMARK    6  A    between atoms: S_14  and  C_17
REMARK                            x       y       z     vdW  Elec       q    Type
REMARK                         _______ _______ _______ _____ _____    ______ ____
ROOT
ATOM      1  N   UNL     1       2.106   5.809  20.563  0.00  0.00    +0.000 NA
ATOM      2  C   UNL     1       1.598   4.422  20.529  0.00  0.00    +0.000 C 
ATOM      3  C   UNL     1       1.299   3.837  19.135  0.00  0.00    +0.000 C 
ATOM      4  N   UNL     1       2.418   4.069  18.179  0.00  0.00    +0.000 NA
ATOM      5  C   UNL     1       2.696   5.534  18.102  0.00  0.00    +0.000 C 
ATOM      6  C   UNL     1       3.066   6.101  19.483  0.00  0.00    +0.000 C 
ENDROOT
BRANCH   4   7
ATOM      7  S   UNL     1       3.815   3.096  18.371  0.00  0.00    +0.000 S 
ATOM      8  O   UNL     1       4.245   3.214  19.744  0.00  0.00    +0.000 OA
ATOM      9  O   UNL     1       3.592   1.799  17.779  0.00  0.00    +0.000 OA
BRANCH   7  10
ATOM     10  C   UNL     1       5.019   3.942  17.386  0.00  0.00    +0.000 A 
ATOM     11  C   UNL     1       4.974   3.869  15.988  0.00  0.00    +0.000 A 
ATOM     12  C   UNL     1       5.959   4.513  15.235  0.00  0.00    +0.000 A 
ATOM     13  C   UNL     1       6.973   5.222  15.881  0.00  0.00    +0.000 A 
ATOM     14  C   UNL     1       6.997   5.285  17.272  0.00  0.00    +0.000 A 
ATOM     15  F   UNL     1       7.972   5.970  17.884  0.00  0.00    +0.000 F 
ATOM     16  C   UNL     1       6.031   4.649  18.036  0.00  0.00    +0.000 A 
ENDBRANCH   7  10
ENDBRANCH   4   7
BRANCH   1  17
ATOM     17  C   UNL     1       1.084   6.830  20.755  0.00  0.00    +0.000 C 
BRANCH  17  18
ATOM     18  C   UNL     1       1.611   8.255  20.539  0.00  0.00    +0.000 C 
BRANCH  18  24
ATOM     19  C   UNL     1      -3.004  13.732  22.407  0.00  0.00    +0.000 C 
ATOM     20  C   UNL     1      -1.998  12.670  22.240  0.00  0.00    +0.000 A 
ATOM     21  C   UNL     1      -1.634  11.835  21.213  0.00  0.00    +0.000 A 
ATOM     22  C   UNL     1      -0.588  11.040  21.750  0.00  0.00    +0.000 A 
ATOM     23  N   UNL     1       0.062  10.050  21.039  0.00  0.00    +0.000 N 
ATOM     24  C   UNL     1       1.073   9.259  21.548  0.00  0.00    +0.000 C 
ATOM     25  O   UNL     1       1.510   9.268  22.695  0.00  0.00    +0.000 OA
ATOM     26  N   UNL     1      -0.345  11.388  23.016  0.00  0.00    +0.000 NA
ATOM     27  O   UNL     1      -1.221  12.407  23.320  0.00  0.00    +0.000 OA
ATOM     28  H   UNL     1      -0.226   9.928  20.082  0.00  0.00    +0.000 HD
ENDBRANCH  18  24
ENDBRANCH  17  18
ENDBRANCH   1  17
TORSDOF 5
ENDMDL
MODEL 4
REMARK VINA RESULT:      -7.5      3.253      5.138
REMARK  Name = 
REMARK  6 active torsions:
REMARK  status: ('A' for Active; 'I' for Inactive)
REMARK    1  A    between atoms: C_1  and  C_2
REMARK    2  A    between atoms: C_6  and  C_8
REMARK    3  A    between atoms: C_8  and  C_9
REMARK    4  A    between atoms: C_9  and  N_10
REMARK    5  A    between atoms: N_13  and  S_14
REMARK    6  A    between atoms: S_14  and  C_17
REMARK                            x       y       z     vdW  Elec       q    Type
REMARK                         _______ _______ _______ _____ _____    ______ ____
ROOT
ATOM      1  N   UNL     1       2.084   5.717  20.647  0.00  0.00    +0.000 NA
ATOM      2  C   UNL     1       1.551   4.350  20.464  0.00  0.00    +0.000 C 
ATOM      3  C   UNL     1       1.340   3.887  19.009  0.00  0.00    +0.000 C 
ATOM      4  N   UNL     1       2.529   4.165  18.156  0.00  0.00    +0.000 NA
ATOM      5  C   UNL     1       2.842   5.624  18.219  0.00  0.00    +0.000 C 
ATOM      6  C   UNL     1       3.125   6.068  19.664  0.00  0.00    +0.000 C 
ENDROOT
BRANCH   4   7
ATOM      7  S   UNL     1       3.887   3.142  18.364  0.00  0.00    +0.000 S 
ATOM      8  O   UNL     1       4.368   3.323  19.714  0.00  0.00    +0.000 OA
ATOM      9  O   UNL     1       3.589   1.824  17.861  0.00  0.00    +0.000 OA
BRANCH   7  10
ATOM     10  C   UNL     1       5.094   3.873  17.293  0.00  0.00    +0.000 A 
ATOM     11  C   UNL     1       6.209   4.534  17.823  0.00  0.00    +0.000 A 
ATOM     12  C   UNL     1       7.125   5.136  16.957  0.00  0.00    +0.000 A 
ATOM     13  C   UNL     1       6.923   5.071  15.578  0.00  0.00    +0.000 A 
ATOM     14  C   UNL     1       5.809   4.404  15.072  0.00  0.00    +0.000 A 
ATOM     15  F   UNL     1       5.623   4.343  13.747  0.00  0.00    +0.000 F 
ATOM     16  C   UNL     1       4.887   3.805  15.915  0.00  0.00    +0.000 A 
ENDBRANCH   7  10
ENDBRANCH   4   7
BRANCH   1  17
ATOM     17  C   UNL     1       1.072   6.746  20.851  0.00  0.00    +0.000 C 
BRANCH  17  18
ATOM     18  C   UNL     1       1.594   8.163  20.577  0.00  0.00    +0.000 C 
BRANCH  18  24
ATOM     19  C   UNL     1      -2.929  13.753  22.329  0.00  0.00    +0.000 C 
ATOM     20  C   UNL     1      -1.940  12.673  22.183  0.00  0.00    +0.000 A 
ATOM     21  C   UNL     1      -1.594  11.806  21.176  0.00  0.00    +0.000 A 
ATOM     22  C   UNL     1      -0.557  11.010  21.728  0.00  0.00    +0.000 A 
ATOM     23  N   UNL     1       0.075   9.993  21.039  0.00  0.00    +0.000 N 
ATOM     24  C   UNL     1       1.077   9.199  21.563  0.00  0.00    +0.000 C 
ATOM     25  O   UNL     1       1.520   9.230  22.708  0.00  0.00    +0.000 OA
ATOM     26  N   UNL     1      -0.302  11.385  22.984  0.00  0.00    +0.000 NA
ATOM     27  O   UNL     1      -1.161  12.425  23.266  0.00  0.00    +0.000 OA
ATOM     28  H   UNL     1      -0.220   9.851  20.087  0.00  0.00    +0.000 HD
ENDBRANCH  18  24
ENDBRANCH  17  18
ENDBRANCH   1  17
TORSDOF 5
ENDMDL
MODEL 5
REMARK VINA RESULT:      -7.4      6.556     11.453
REMARK  Name = 
REMARK  6 active torsions:
REMARK  status: ('A' for Active; 'I' for Inactive)
REMARK    1  A    between atoms: C_1  and  C_2
REMARK    2  A    between atoms: C_6  and  C_8
REMARK    3  A    between atoms: C_8  and  C_9
REMARK    4  A    between atoms: C_9  and  N_10
REMARK    5  A    between atoms: N_13  and  S_14
REMARK    6  A    between atoms: S_14  and  C_17
REMARK                            x       y       z     vdW  Elec       q    Type
REMARK                         _______ _______ _______ _____ _____    ______ ____
ROOT
ATOM      1  N   UNL     1       1.363   9.922  19.303  0.00  0.00    +0.000 NA
ATOM      2  C   UNL     1       0.986  11.338  19.114  0.00  0.00    +0.000 C 
ATOM      3  C   UNL     1      -0.494  11.691  19.359  0.00  0.00    +0.000 C 
ATOM      4  N   UNL     1      -1.000  11.122  20.640  0.00  0.00    +0.000 NA
ATOM      5  C   UNL     1      -0.790   9.643  20.631  0.00  0.00    +0.000 C 
ATOM      6  C   UNL     1       0.698   9.295  20.459  0.00  0.00    +0.000 C 
ENDROOT
BRANCH   4   7
ATOM      7  S   UNL     1      -0.497  11.897  22.083  0.00  0.00    +0.000 S 
ATOM      8  O   UNL     1      -0.191  10.867  23.049  0.00  0.00    +0.000 OA
ATOM      9  O   UNL     1       0.466  12.926  21.776  0.00  0.00    +0.000 OA
BRANCH   7  10
ATOM     10  C   UNL     1      -1.981  12.689  22.638  0.00  0.00    +0.000 A 
ATOM     11  C   UNL     1      -2.325  13.963  22.169  0.00  0.00    +0.000 A 
ATOM     12  C   UNL     1      -3.480  14.583  22.652  0.00  0.00    +0.000 A 
ATOM     13  C   UNL     1      -4.278  13.928  23.592  0.00  0.00    +0.000 A 
ATOM     14  C   UNL     1      -3.919  12.660  24.041  0.00  0.00    +0.000 A 
ATOM     15  F   UNL     1      -4.691  12.037  24.941  0.00  0.00    +0.000 F 
ATOM     16  C   UNL     1      -2.775  12.031  23.577  0.00  0.00    +0.000 A 
ENDBRANCH   7  10
ENDBRANCH   4   7
BRANCH   1  17
ATOM     17  C   UNL     1       1.348   9.117  18.088  0.00  0.00    +0.000 C 
BRANCH  17  18
ATOM     18  C   UNL     1       2.751   8.708  17.621  0.00  0.00    +0.000 C 
BRANCH  18  24
ATOM     19  C   UNL     1       1.689   2.634  21.715  0.00  0.00    +0.000 C 
ATOM     20  C   UNL     1       2.083   3.738  20.825  0.00  0.00    +0.000 A 
ATOM     21  C   UNL     1       1.595   4.995  20.566  0.00  0.00    +0.000 A 
ATOM     22  C   UNL     1       2.462   5.520  19.573  0.00  0.00    +0.000 A 
ATOM     23  N   UNL     1       2.317   6.776  19.018  0.00  0.00    +0.000 N 
ATOM     24  C   UNL     1       3.143   7.299  18.042  0.00  0.00    +0.000 C 
ATOM     25  O   UNL     1       4.080   6.733  17.487  0.00  0.00    +0.000 OA
ATOM     26  N   UNL     1       3.409   4.629  19.266  0.00  0.00    +0.000 NA
ATOM     27  O   UNL     1       3.175   3.520  20.050  0.00  0.00    +0.000 OA
ATOM     28  H   UNL     1       1.561   7.337  19.377  0.00  0.00    +0.000 HD
ENDBRANCH  18  24
ENDBRANCH  17  18
ENDBRANCH   1  17
TORSDOF 5
ENDMDL
MODEL 6
REMARK VINA RESULT:      -7.4      2.480      3.165
REMARK  Name = 
REMARK  6 active torsions:
REMARK  status: ('A' for Active; 'I' for Inactive)
REMARK    1  A    between atoms: C_1  and  C_2
REMARK    2  A    between atoms: C_6  and  C_8
REMARK    3  A    between atoms: C_8  and  C_9
REMARK    4  A    between atoms: C_9  and  N_10
REMARK    5  A    between atoms: N_13  and  S_14
REMARK    6  A    between atoms: S_14  and  C_17
REMARK                            x       y       z     vdW  Elec       q    Type
REMARK                         _______ _______ _______ _____ _____    ______ ____
ROOT
ATOM      1  N   UNL     1       3.746   5.914  18.857  0.00  0.00    +0.000 NA
ATOM      2  C   UNL     1       4.868   5.125  19.408  0.00  0.00    +0.000 C 
ATOM      3  C   UNL     1       5.268   3.862  18.621  0.00  0.00    +0.000 C 
ATOM      4  N   UNL     1       5.409   4.132  17.163  0.00  0.00    +0.000 NA
ATOM      5  C   UNL     1       4.131   4.708  16.648  0.00  0.00    +0.000 C 
ATOM      6  C   UNL     1       3.773   6.009  17.386  0.00  0.00    +0.000 C 
ENDROOT
BRANCH   4   7
ATOM      7  S   UNL     1       6.814   4.977  16.666  0.00  0.00    +0.000 S 
ATOM      8  O   UNL     1       6.574   6.386  16.876  0.00  0.00    +0.000 OA
ATOM      9  O   UNL     1       7.987   4.342  17.214  0.00  0.00    +0.000 OA
BRANCH   7  10
ATOM     10  C   UNL     1       6.825   4.720  14.913  0.00  0.00    +0.000 A 
ATOM     11  C   UNL     1       6.091   3.671  14.344  0.00  0.00    +0.000 A 
ATOM     12  C   UNL     1       6.148   3.464  12.963  0.00  0.00    +0.000 A 
ATOM     13  C   UNL     1       6.931   4.303  12.168  0.00  0.00    +0.000 A 
ATOM     14  C   UNL     1       7.649   5.343  12.755  0.00  0.00    +0.000 A 
ATOM     15  F   UNL     1       8.395   6.145  11.984  0.00  0.00    +0.000 F 
ATOM     16  C   UNL     1       7.609   5.560  14.123  0.00  0.00    +0.000 A 
ENDBRANCH   7  10
ENDBRANCH   4   7
BRANCH   1  17
ATOM     17  C   UNL     1       2.439   5.594  19.418  0.00  0.00    +0.000 C 
BRANCH  17  18
ATOM     18  C   UNL     1       2.139   6.359  20.714  0.00  0.00    +0.000 C 
BRANCH  18  24
ATOM     19  C   UNL     1      -1.485  12.381  23.034  0.00  0.00    +0.000 C 
ATOM     20  C   UNL     1      -0.754  11.287  22.375  0.00  0.00    +0.000 A 
ATOM     21  C   UNL     1      -0.330  10.038  22.755  0.00  0.00    +0.000 A 
ATOM     22  C   UNL     1       0.336   9.521  21.614  0.00  0.00    +0.000 A 
ATOM     23  N   UNL     1       0.928   8.274  21.574  0.00  0.00    +0.000 N 
ATOM     24  C   UNL     1       1.591   7.759  20.477  0.00  0.00    +0.000 C 
ATOM     25  O   UNL     1       1.802   8.326  19.409  0.00  0.00    +0.000 OA
ATOM     26  N   UNL     1       0.304  10.409  20.616  0.00  0.00    +0.000 NA
ATOM     27  O   UNL     1      -0.379  11.508  21.090  0.00  0.00    +0.000 OA
ATOM     28  H   UNL     1       0.843   7.714  22.406  0.00  0.00    +0.000 HD
ENDBRANCH  18  24
ENDBRANCH  17  18
ENDBRANCH   1  17
TORSDOF 5
ENDMDL
MODEL 7
REMARK VINA RESULT:      -7.3      5.951      7.631
REMARK  Name = 
REMARK  6 active torsions:
REMARK  status: ('A' for Active; 'I' for Inactive)
REMARK    1  A    between atoms: C_1  and  C_2
REMARK    2  A    between atoms: C_6  and  C_8
REMARK    3  A    between atoms: C_8  and  C_9
REMARK    4  A    between atoms: C_9  and  N_10
REMARK    5  A    between atoms: N_13  and  S_14
REMARK    6  A    between atoms: S_14  and  C_17
REMARK                            x       y       z     vdW  Elec       q    Type
REMARK                         _______ _______ _______ _____ _____    ______ ____
ROOT
ATOM      1  N   UNL     1       7.274   7.164  17.255  0.00  0.00    +0.000 NA
ATOM      2  C   UNL     1       7.453   6.188  18.350  0.00  0.00    +0.000 C 
ATOM      3  C   UNL     1       6.243   5.969  19.279  0.00  0.00    +0.000 C 
ATOM      4  N   UNL     1       4.982   5.758  18.514  0.00  0.00    +0.000 NA
ATOM      5  C   UNL     1       4.763   6.922  17.605  0.00  0.00    +0.000 C 
ATOM      6  C   UNL     1       5.940   7.093  16.630  0.00  0.00    +0.000 C 
ENDROOT
BRANCH   4   7
ATOM      7  S   UNL     1       4.779   4.230  17.766  0.00  0.00    +0.000 S 
ATOM      8  O   UNL     1       4.552   4.460  16.358  0.00  0.00    +0.000 OA
ATOM      9  O   UNL     1       5.814   3.328  18.206  0.00  0.00    +0.000 OA
BRANCH   7  10
ATOM     10  C   UNL     1       3.242   3.666  18.442  0.00  0.00    +0.000 A 
ATOM     11  C   UNL     1       2.705   2.431  18.055  0.00  0.00    +0.000 A 
ATOM     12  C   UNL     1       1.472   2.027  18.573  0.00  0.00    +0.000 A 
ATOM     13  C   UNL     1       0.791   2.853  19.468  0.00  0.00    +0.000 A 
ATOM     14  C   UNL     1       1.345   4.075  19.843  0.00  0.00    +0.000 A 
ATOM     15  F   UNL     1       0.686   4.861  20.704  0.00  0.00    +0.000 F 
ATOM     16  C   UNL     1       2.565   4.495  19.336  0.00  0.00    +0.000 A 
ENDBRANCH   7  10
ENDBRANCH   4   7
BRANCH   1  17
ATOM     17  C   UNL     1       7.726   8.515  17.560  0.00  0.00    +0.000 C 
BRANCH  17  18
ATOM     18  C   UNL     1       8.753   8.561  18.700  0.00  0.00    +0.000 C 
BRANCH  18  24
ATOM     19  C   UNL     1      11.280  15.312  17.020  0.00  0.00    +0.000 C 
ATOM     20  C   UNL     1      10.779  14.040  17.566  0.00  0.00    +0.000 A 
ATOM     21  C   UNL     1      10.470  12.813  17.035  0.00  0.00    +0.000 A 
ATOM     22  C   UNL     1      10.022  12.045  18.141  0.00  0.00    +0.000 A 
ATOM     23  N   UNL     1       9.599  10.734  18.040  0.00  0.00    +0.000 N 
ATOM     24  C   UNL     1       9.148   9.975  19.102  0.00  0.00    +0.000 C 
ATOM     25  O   UNL     1       9.003  10.343  20.264  0.00  0.00    +0.000 OA
ATOM     26  N   UNL     1      10.068  12.772  19.260  0.00  0.00    +0.000 NA
ATOM     27  O   UNL     1      10.544  14.015  18.902  0.00  0.00    +0.000 OA
ATOM     28  H   UNL     1       9.648  10.320  17.123  0.00  0.00    +0.000 HD
ENDBRANCH  18  24
ENDBRANCH  17  18
ENDBRANCH   1  17
TORSDOF 5
ENDMDL
MODEL 8
REMARK VINA RESULT:      -7.3      5.805     11.069
REMARK  Name = 
REMARK  6 active torsions:
REMARK  status: ('A' for Active; 'I' for Inactive)
REMARK    1  A    between atoms: C_1  and  C_2
REMARK    2  A    between atoms: C_6  and  C_8
REMARK    3  A    between atoms: C_8  and  C_9
REMARK    4  A    between atoms: C_9  and  N_10
REMARK    5  A    between atoms: N_13  and  S_14
REMARK    6  A    between atoms: S_14  and  C_17
REMARK                            x       y       z     vdW  Elec       q    Type
REMARK                         _______ _______ _______ _____ _____    ______ ____
ROOT
ATOM      1  N   UNL     1       1.817   8.741  19.946  0.00  0.00    +0.000 NA
ATOM      2  C   UNL     1       1.183   9.944  19.366  0.00  0.00    +0.000 C 
ATOM      3  C   UNL     1      -0.337  10.085  19.576  0.00  0.00    +0.000 C 
ATOM      4  N   UNL     1      -0.731   9.847  20.993  0.00  0.00    +0.000 NA
ATOM      5  C   UNL     1      -0.251   8.497  21.411  0.00  0.00    +0.000 C 
ATOM      6  C   UNL     1       1.277   8.384  21.271  0.00  0.00    +0.000 C 
ENDROOT
BRANCH   4   7
ATOM      7  S   UNL     1      -0.385  11.097  22.111  0.00  0.00    +0.000 S 
ATOM      8  O   UNL     1      -0.153  10.482  23.397  0.00  0.00    +0.000 OA
ATOM      9  O   UNL     1       0.582  12.006  21.547  0.00  0.00    +0.000 OA
BRANCH   7  10
ATOM     10  C   UNL     1      -1.931  11.954  22.230  0.00  0.00    +0.000 A 
ATOM     11  C   UNL     1      -2.411  12.709  21.152  0.00  0.00    +0.000 A 
ATOM     12  C   UNL     1      -3.613  13.407  21.285  0.00  0.00    +0.000 A 
ATOM     13  C   UNL     1      -4.323  13.344  22.485  0.00  0.00    +0.000 A 
ATOM     14  C   UNL     1      -3.830  12.584  23.543  0.00  0.00    +0.000 A 
ATOM     15  F   UNL     1      -4.519  12.527  24.690  0.00  0.00    +0.000 F 
ATOM     16  C   UNL     1      -2.637  11.888  23.432  0.00  0.00    +0.000 A 
ENDBRANCH   7  10
ENDBRANCH   4   7
BRANCH   1  17
ATOM     17  C   UNL     1       1.955   7.618  19.027  0.00  0.00    +0.000 C 
BRANCH  17  18
ATOM     18  C   UNL     1       2.409   6.327  19.720  0.00  0.00    +0.000 C 
BRANCH  18  24
ATOM     19  C   UNL     1       6.932   4.801  14.064  0.00  0.00    +0.000 C 
ATOM     20  C   UNL     1       5.987   4.885  15.190  0.00  0.00    +0.000 A 
ATOM     21  C   UNL     1       5.473   5.908  15.948  0.00  0.00    +0.000 A 
ATOM     22  C   UNL     1       4.620   5.267  16.883  0.00  0.00    +0.000 A 
ATOM     23  N   UNL     1       3.903   5.943  17.852  0.00  0.00    +0.000 N 
ATOM     24  C   UNL     1       3.077   5.337  18.778  0.00  0.00    +0.000 C 
ATOM     25  O   UNL     1       2.892   4.132  18.925  0.00  0.00    +0.000 OA
ATOM     26  N   UNL     1       4.625   3.946  16.688  0.00  0.00    +0.000 NA
ATOM     27  O   UNL     1       5.475   3.708  15.629  0.00  0.00    +0.000 OA
ATOM     28  H   UNL     1       3.991   6.947  17.850  0.00  0.00    +0.000 HD
ENDBRANCH  18  24
ENDBRANCH  17  18
ENDBRANCH   1  17
TORSDOF 5
ENDMDL
MODEL 9
REMARK VINA RESULT:      -7.3      3.564      5.508
REMARK  Name = 
REMARK  6 active torsions:
REMARK  status: ('A' for Active; 'I' for Inactive)
REMARK    1  A    between atoms: C_1  and  C_2
REMARK    2  A    between atoms: C_6  and  C_8
REMARK    3  A    between atoms: C_8  and  C_9
REMARK    4  A    between atoms: C_9  and  N_10
REMARK    5  A    between atoms: N_13  and  S_14
REMARK    6  A    between atoms: S_14  and  C_17
REMARK                            x       y       z     vdW  Elec       q    Type
REMARK                         _______ _______ _______ _____ _____    ______ ____
ROOT
ATOM      1  N   UNL     1       2.013   5.749  20.664  0.00  0.00    +0.000 NA
ATOM      2  C   UNL     1       1.453   4.386  20.538  0.00  0.00    +0.000 C 
ATOM      3  C   UNL     1       1.195   3.881  19.105  0.00  0.00    +0.000 C 
ATOM      4  N   UNL     1       2.365   4.112  18.212  0.00  0.00    +0.000 NA
ATOM      5  C   UNL     1       2.704   5.567  18.220  0.00  0.00    +0.000 C 
ATOM      6  C   UNL     1       3.032   6.051  19.642  0.00  0.00    +0.000 C 
ENDROOT
BRANCH   4   7
ATOM      7  S   UNL     1       3.712   3.073  18.417  0.00  0.00    +0.000 S 
ATOM      8  O   UNL     1       4.116   3.148  19.802  0.00  0.00    +0.000 OA
ATOM      9  O   UNL     1       3.445   1.798  17.797  0.00  0.00    +0.000 OA
BRANCH   7  10
ATOM     10  C   UNL     1       4.975   3.882  17.475  0.00  0.00    +0.000 A 
ATOM     11  C   UNL     1       4.932   3.876  16.075  0.00  0.00    +0.000 A 
ATOM     12  C   UNL     1       5.962   4.486  15.354  0.00  0.00    +0.000 A 
ATOM     13  C   UNL     1       7.018   5.095  16.034  0.00  0.00    +0.000 A 
ATOM     14  C   UNL     1       7.039   5.093  17.427  0.00  0.00    +0.000 A 
ATOM     15  F   UNL     1       8.054   5.682  18.072  0.00  0.00    +0.000 F 
ATOM     16  C   UNL     1       6.028   4.488  18.158  0.00  0.00    +0.000 A 
ENDBRANCH   7  10
ENDBRANCH   4   7
BRANCH   1  17
ATOM     17  C   UNL     1       1.024   6.801  20.861  0.00  0.00    +0.000 C 
BRANCH  17  18
ATOM     18  C   UNL     1       1.645   8.202  20.938  0.00  0.00    +0.000 C 
BRANCH  18  24
ATOM     19  C   UNL     1      -3.153  13.248  23.445  0.00  0.00    +0.000 C 
ATOM     20  C   UNL     1      -2.263  12.310  22.742  0.00  0.00    +0.000 A 
ATOM     21  C   UNL     1      -1.395  11.321  23.134  0.00  0.00    +0.000 A 
ATOM     22  C   UNL     1      -0.847  10.824  21.923  0.00  0.00    +0.000 A 
ATOM     23  N   UNL     1       0.090   9.811  21.867  0.00  0.00    +0.000 N 
ATOM     24  C   UNL     1       0.644   9.322  20.700  0.00  0.00    +0.000 C 
ATOM     25  O   UNL     1       0.442   9.730  19.560  0.00  0.00    +0.000 OA
ATOM     26  N   UNL     1      -1.362  11.477  20.878  0.00  0.00    +0.000 NA
ATOM     27  O   UNL     1      -2.248  12.401  21.389  0.00  0.00    +0.000 OA
ATOM     28  H   UNL     1       0.359   9.405  22.749  0.00  0.00    +0.000 HD
ENDBRANCH  18  24
ENDBRANCH  17  18
ENDBRANCH   1  17
TORSDOF 5
ENDMDL
