MODEL 1
REMARK VINA RESULT:      -8.4      0.000      0.000
REMARK  Name = 
REMARK  15 active torsions:
REMARK  status: ('A' for Active; 'I' for Inactive)
REMARK    1  A    between atoms: C_1  and  O_2
REMARK    2  A    between atoms: O_2  and  C_3
REMARK    3  A    between atoms: C_4  and  C_5
REMARK    4  A    between atoms: C_5  and  C_6
REMARK    5  A    between atoms: C_7  and  C_8
REMARK    6  A    between atoms: C_7  and  C_9
REMARK    7  A    between atoms: C_11  and  C_12
REMARK    8  A    between atoms: C_17  and  O_18
REMARK    9  A    between atoms: C_20  and  O_21
REMARK   10  A    between atoms: C_25  and  C_26
REMARK   11  A    between atoms: C_26  and  C_27
REMARK   12  A    between atoms: C_28  and  C_29
REMARK   13  A    between atoms: C_28  and  C_30
REMARK   14  A    between atoms: C_31  and  O_32
REMARK   15  A    between atoms: O_32  and  C_33
REMARK                            x       y       z     vdW  Elec       q    Type
REMARK                         _______ _______ _______ _____ _____    ______ ____
ROOT
ATOM      1  C   UNL     1       4.784   4.623  16.796  0.00  0.00    +0.000 A 
ATOM      2  C   UNL     1       5.285   5.940  16.889  0.00  0.00    +0.000 A 
ATOM      3  C   UNL     1       4.492   6.949  17.496  0.00  0.00    +0.000 A 
ATOM      4  C   UNL     1       3.219   6.681  18.028  0.00  0.00    +0.000 A 
ATOM      5  C   UNL     1       2.742   5.329  17.901  0.00  0.00    +0.000 A 
ATOM      6  C   UNL     1       3.453   4.380  17.139  0.00  0.00    +0.000 A 
ENDROOT
BRANCH   4   7
ATOM      7  C   UNL     1       2.325   7.751  18.652  0.00  0.00    +0.000 C 
ATOM      8  C   UNL     1       2.584   9.190  18.217  0.00  0.00    +0.000 C 
ATOM      9  C   UNL     1       1.225   9.836  18.418  0.00  0.00    +0.000 C 
ATOM     10  O   UNL     1       0.751  10.650  17.637  0.00  0.00    +0.000 OA
ATOM     11  C   UNL     1       0.568   9.488  19.707  0.00  0.00    +0.000 A 
ATOM     12  C   UNL     1      -0.565  10.152  20.185  0.00  0.00    +0.000 A 
ATOM     13  C   UNL     1      -0.730  10.323  21.551  0.00  0.00    +0.000 A 
ATOM     14  C   UNL     1       0.179   9.715  22.411  0.00  0.00    +0.000 A 
ATOM     15  C   UNL     1       1.140   8.815  21.932  0.00  0.00    +0.000 A 
ATOM     16  C   UNL     1       1.322   8.672  20.564  0.00  0.00    +0.000 A 
ATOM     17  O   UNL     1       2.282   7.774  20.103  0.00  0.00    +0.000 OA
BRANCH  12  18
ATOM     18  O   UNL     1      -1.572  10.604  19.383  0.00  0.00    +0.000 OA
ATOM     19  H   UNL     1      -1.971   9.822  18.958  0.00  0.00    +0.000 HD
ENDBRANCH  12  18
BRANCH  14  20
ATOM     20  O   UNL     1       0.153   9.997  23.745  0.00  0.00    +0.000 OA
ATOM     21  H   UNL     1      -0.696  10.426  23.949  0.00  0.00    +0.000 HD
ENDBRANCH  14  20
ENDBRANCH   4   7
BRANCH   1  23
ATOM     22  C   UNL     1       5.822   3.626  14.913  0.00  0.00    +0.000 C 
ATOM     23  O   UNL     1       5.621   3.637  16.333  0.00  0.00    +0.000 OA
ENDBRANCH   1  23
BRANCH   6  24
ATOM     24  O   UNL     1       2.791   3.218  16.810  0.00  0.00    +0.000 OA
ATOM     25  C   UNL     1       3.261   2.055  17.501  0.00  0.00    +0.000 C 
ENDBRANCH   6  24
BRANCH   2  26
ATOM     26  C   UNL     1       6.655   6.290  16.303  0.00  0.00    +0.000 C 
BRANCH  26  27
ATOM     27  C   UNL     1       7.324   7.459  16.966  0.00  0.00    +0.000 C 
ATOM     28  C   UNL     1       7.960   7.516  18.157  0.00  0.00    +0.000 C 
ATOM     29  C   UNL     1       8.151   6.370  19.112  0.00  0.00    +0.000 C 
ATOM     30  C   UNL     1       8.549   8.817  18.645  0.00  0.00    +0.000 C 
ENDBRANCH  26  27
ENDBRANCH   2  26
BRANCH   5  31
ATOM     31  C   UNL     1       1.534   4.822  18.669  0.00  0.00    +0.000 C 
BRANCH  31  32
ATOM     32  C   UNL     1       1.809   4.354  20.066  0.00  0.00    +0.000 C 
ATOM     33  C   UNL     1       1.474   3.133  20.529  0.00  0.00    +0.000 C 
ATOM     34  C   UNL     1       0.698   2.118  19.734  0.00  0.00    +0.000 C 
ATOM     35  C   UNL     1       1.847   2.694  21.918  0.00  0.00    +0.000 C 
ENDBRANCH  31  32
ENDBRANCH   5  31
TORSDOF 9
ENDMDL
MODEL 2
REMARK VINA RESULT:      -7.7      2.066      7.370
REMARK  Name = 
REMARK  15 active torsions:
REMARK  status: ('A' for Active; 'I' for Inactive)
REMARK    1  A    between atoms: C_1  and  O_2
REMARK    2  A    between atoms: O_2  and  C_3
REMARK    3  A    between atoms: C_4  and  C_5
REMARK    4  A    between atoms: C_5  and  C_6
REMARK    5  A    between atoms: C_7  and  C_8
REMARK    6  A    between atoms: C_7  and  C_9
REMARK    7  A    between atoms: C_11  and  C_12
REMARK    8  A    between atoms: C_17  and  O_18
REMARK    9  A    between atoms: C_20  and  O_21
REMARK   10  A    between atoms: C_25  and  C_26
REMARK   11  A    between atoms: C_26  and  C_27
REMARK   12  A    between atoms: C_28  and  C_29
REMARK   13  A    between atoms: C_28  and  C_30
REMARK   14  A    between atoms: C_31  and  O_32
REMARK   15  A    between atoms: O_32  and  C_33
REMARK                            x       y       z     vdW  Elec       q    Type
REMARK                         _______ _______ _______ _____ _____    ______ ____
ROOT
ATOM      1  C   UNL     1       0.635   9.713  20.075  0.00  0.00    +0.000 A 
ATOM      2  C   UNL     1       1.254   9.961  18.830  0.00  0.00    +0.000 A 
ATOM      3  C   UNL     1       2.105   8.977  18.263  0.00  0.00    +0.000 A 
ATOM      4  C   UNL     1       2.348   7.745  18.893  0.00  0.00    +0.000 A 
ATOM      5  C   UNL     1       1.707   7.538  20.165  0.00  0.00    +0.000 A 
ATOM      6  C   UNL     1       1.014   8.585  20.805  0.00  0.00    +0.000 A 
ENDROOT
BRANCH   4   7
ATOM      7  C   UNL     1       3.288   6.680  18.329  0.00  0.00    +0.000 C 
ATOM      8  C   UNL     1       4.299   6.084  19.304  0.00  0.00    +0.000 C 
ATOM      9  C   UNL     1       4.548   4.710  18.708  0.00  0.00    +0.000 C 
ATOM     10  O   UNL     1       4.670   3.701  19.387  0.00  0.00    +0.000 OA
ATOM     11  C   UNL     1       4.751   4.712  17.234  0.00  0.00    +0.000 A 
ATOM     12  C   UNL     1       5.221   3.599  16.531  0.00  0.00    +0.000 A 
ATOM     13  C   UNL     1       6.021   3.785  15.414  0.00  0.00    +0.000 A 
ATOM     14  C   UNL     1       6.227   5.082  14.954  0.00  0.00    +0.000 A 
ATOM     15  C   UNL     1       5.518   6.164  15.492  0.00  0.00    +0.000 A 
ATOM     16  C   UNL     1       4.744   5.978  16.628  0.00  0.00    +0.000 A 
ATOM     17  O   UNL     1       4.046   7.063  17.152  0.00  0.00    +0.000 OA
BRANCH  12  18
ATOM     18  O   UNL     1       4.891   2.312  16.843  0.00  0.00    +0.000 OA
ATOM     19  H   UNL     1       5.529   2.009  17.514  0.00  0.00    +0.000 HD
ENDBRANCH  12  18
BRANCH  14  20
ATOM     20  O   UNL     1       7.140   5.321  13.968  0.00  0.00    +0.000 OA
ATOM     21  H   UNL     1       6.753   5.960  13.343  0.00  0.00    +0.000 HD
ENDBRANCH  14  20
ENDBRANCH   4   7
BRANCH   1  23
ATOM     22  C   UNL     1       0.253  11.732  21.256  0.00  0.00    +0.000 C 
ATOM     23  O   UNL     1      -0.290  10.616  20.536  0.00  0.00    +0.000 OA
ENDBRANCH   1  23
BRANCH   6  24
ATOM     24  O   UNL     1       0.701   8.409  22.134  0.00  0.00    +0.000 OA
ATOM     25  C   UNL     1       1.508   9.173  23.037  0.00  0.00    +0.000 C 
ENDBRANCH   6  24
BRANCH   2  26
ATOM     26  C   UNL     1       1.044  11.298  18.115  0.00  0.00    +0.000 C 
BRANCH  26  27
ATOM     27  C   UNL     1       2.248  12.195  18.126  0.00  0.00    +0.000 C 
ATOM     28  C   UNL     1       2.328  13.513  18.411  0.00  0.00    +0.000 C 
ATOM     29  C   UNL     1       1.181  14.403  18.804  0.00  0.00    +0.000 C 
ATOM     30  C   UNL     1       3.654  14.230  18.338  0.00  0.00    +0.000 C 
ENDBRANCH  26  27
ENDBRANCH   2  26
BRANCH   5  31
ATOM     31  C   UNL     1       1.635   6.171  20.822  0.00  0.00    +0.000 C 
BRANCH  31  32
ATOM     32  C   UNL     1       1.140   5.060  19.945  0.00  0.00    +0.000 C 
ATOM     33  C   UNL     1       1.227   3.754  20.267  0.00  0.00    +0.000 C 
ATOM     34  C   UNL     1       1.916   3.237  21.502  0.00  0.00    +0.000 C 
ATOM     35  C   UNL     1       0.641   2.690  19.380  0.00  0.00    +0.000 C 
ENDBRANCH  31  32
ENDBRANCH   5  31
TORSDOF 9
ENDMDL
MODEL 3
REMARK VINA RESULT:      -7.6      1.148      2.173
REMARK  Name = 
REMARK  15 active torsions:
REMARK  status: ('A' for Active; 'I' for Inactive)
REMARK    1  A    between atoms: C_1  and  O_2
REMARK    2  A    between atoms: O_2  and  C_3
REMARK    3  A    between atoms: C_4  and  C_5
REMARK    4  A    between atoms: C_5  and  C_6
REMARK    5  A    between atoms: C_7  and  C_8
REMARK    6  A    between atoms: C_7  and  C_9
REMARK    7  A    between atoms: C_11  and  C_12
REMARK    8  A    between atoms: C_17  and  O_18
REMARK    9  A    between atoms: C_20  and  O_21
REMARK   10  A    between atoms: C_25  and  C_26
REMARK   11  A    between atoms: C_26  and  C_27
REMARK   12  A    between atoms: C_28  and  C_29
REMARK   13  A    between atoms: C_28  and  C_30
REMARK   14  A    between atoms: C_31  and  O_32
REMARK   15  A    between atoms: O_32  and  C_33
REMARK                            x       y       z     vdW  Elec       q    Type
REMARK                         _______ _______ _______ _____ _____    ______ ____
ROOT
ATOM      1  C   UNL     1       4.707   4.902  17.019  0.00  0.00    +0.000 A 
ATOM      2  C   UNL     1       5.194   6.227  17.050  0.00  0.00    +0.000 A 
ATOM      3  C   UNL     1       4.408   7.247  17.648  0.00  0.00    +0.000 A 
ATOM      4  C   UNL     1       3.156   6.984  18.229  0.00  0.00    +0.000 A 
ATOM      5  C   UNL     1       2.692   5.623  18.165  0.00  0.00    +0.000 A 
ATOM      6  C   UNL     1       3.390   4.656  17.413  0.00  0.00    +0.000 A 
ENDROOT
BRANCH   4   7
ATOM      7  C   UNL     1       2.269   8.065  18.845  0.00  0.00    +0.000 C 
ATOM      8  C   UNL     1       1.561   7.699  20.147  0.00  0.00    +0.000 C 
ATOM      9  C   UNL     1       1.379   9.056  20.804  0.00  0.00    +0.000 C 
ATOM     10  O   UNL     1       1.528   9.240  22.004  0.00  0.00    +0.000 OA
ATOM     11  C   UNL     1       0.886  10.118  19.887  0.00  0.00    +0.000 A 
ATOM     12  C   UNL     1       0.434  11.361  20.338  0.00  0.00    +0.000 A 
ATOM     13  C   UNL     1      -0.591  12.002  19.659  0.00  0.00    +0.000 A 
ATOM     14  C   UNL     1      -1.053  11.442  18.472  0.00  0.00    +0.000 A 
ATOM     15  C   UNL     1      -0.398  10.355  17.880  0.00  0.00    +0.000 A 
ATOM     16  C   UNL     1       0.605   9.698  18.578  0.00  0.00    +0.000 A 
ATOM     17  O   UNL     1       1.247   8.618  17.976  0.00  0.00    +0.000 OA
BRANCH  12  18
ATOM     18  O   UNL     1       0.984  12.030  21.392  0.00  0.00    +0.000 OA
ATOM     19  H   UNL     1       0.381  11.916  22.149  0.00  0.00    +0.000 HD
ENDBRANCH  12  18
BRANCH  14  20
ATOM     20  O   UNL     1      -2.168  11.945  17.867  0.00  0.00    +0.000 OA
ATOM     21  H   UNL     1      -2.921  11.369  18.090  0.00  0.00    +0.000 HD
ENDBRANCH  14  20
ENDBRANCH   4   7
BRANCH   1  23
ATOM     22  C   UNL     1       5.634   3.801  15.136  0.00  0.00    +0.000 C 
ATOM     23  O   UNL     1       5.540   3.910  16.563  0.00  0.00    +0.000 OA
ENDBRANCH   1  23
BRANCH   6  24
ATOM     24  O   UNL     1       2.733   3.476  17.146  0.00  0.00    +0.000 OA
ATOM     25  C   UNL     1       3.365   2.312  17.690  0.00  0.00    +0.000 C 
ENDBRANCH   6  24
BRANCH   2  26
ATOM     26  C   UNL     1       6.539   6.572  16.408  0.00  0.00    +0.000 C 
BRANCH  26  27
ATOM     27  C   UNL     1       7.293   7.662  17.114  0.00  0.00    +0.000 C 
ATOM     28  C   UNL     1       8.000   7.605  18.264  0.00  0.00    +0.000 C 
ATOM     29  C   UNL     1       8.199   6.383  19.118  0.00  0.00    +0.000 C 
ATOM     30  C   UNL     1       8.668   8.843  18.810  0.00  0.00    +0.000 C 
ENDBRANCH  26  27
ENDBRANCH   2  26
BRANCH   5  31
ATOM     31  C   UNL     1       1.516   5.129  18.988  0.00  0.00    +0.000 C 
BRANCH  31  32
ATOM     32  C   UNL     1       1.872   4.442  20.272  0.00  0.00    +0.000 C 
ATOM     33  C   UNL     1       1.476   3.194  20.592  0.00  0.00    +0.000 C 
ATOM     34  C   UNL     1       0.548   2.365  19.744  0.00  0.00    +0.000 C 
ATOM     35  C   UNL     1       1.931   2.530  21.862  0.00  0.00    +0.000 C 
ENDBRANCH  31  32
ENDBRANCH   5  31
TORSDOF 9
ENDMDL
MODEL 4
REMARK VINA RESULT:      -7.6      2.163      4.252
REMARK  Name = 
REMARK  15 active torsions:
REMARK  status: ('A' for Active; 'I' for Inactive)
REMARK    1  A    between atoms: C_1  and  O_2
REMARK    2  A    between atoms: O_2  and  C_3
REMARK    3  A    between atoms: C_4  and  C_5
REMARK    4  A    between atoms: C_5  and  C_6
REMARK    5  A    between atoms: C_7  and  C_8
REMARK    6  A    between atoms: C_7  and  C_9
REMARK    7  A    between atoms: C_11  and  C_12
REMARK    8  A    between atoms: C_17  and  O_18
REMARK    9  A    between atoms: C_20  and  O_21
REMARK   10  A    between atoms: C_25  and  C_26
REMARK   11  A    between atoms: C_26  and  C_27
REMARK   12  A    between atoms: C_28  and  C_29
REMARK   13  A    between atoms: C_28  and  C_30
REMARK   14  A    between atoms: C_31  and  O_32
REMARK   15  A    between atoms: O_32  and  C_33
REMARK                            x       y       z     vdW  Elec       q    Type
REMARK                         _______ _______ _______ _____ _____    ______ ____
ROOT
ATOM      1  C   UNL     1       3.362   5.852  19.225  0.00  0.00    +0.000 A 
ATOM      2  C   UNL     1       3.616   6.689  18.116  0.00  0.00    +0.000 A 
ATOM      3  C   UNL     1       2.901   7.908  17.981  0.00  0.00    +0.000 A 
ATOM      4  C   UNL     1       1.950   8.326  18.927  0.00  0.00    +0.000 A 
ATOM      5  C   UNL     1       1.713   7.438  20.035  0.00  0.00    +0.000 A 
ATOM      6  C   UNL     1       2.289   6.152  20.067  0.00  0.00    +0.000 A 
ENDROOT
BRANCH   4   7
ATOM      7  C   UNL     1       1.136   9.612  18.792  0.00  0.00    +0.000 C 
ATOM      8  C   UNL     1       0.134   9.662  17.643  0.00  0.00    +0.000 C 
ATOM      9  C   UNL     1      -0.903  10.641  18.164  0.00  0.00    +0.000 C 
ATOM     10  O   UNL     1      -2.106  10.490  17.997  0.00  0.00    +0.000 OA
ATOM     11  C   UNL     1      -0.330  11.863  18.791  0.00  0.00    +0.000 A 
ATOM     12  C   UNL     1      -1.101  12.981  19.117  0.00  0.00    +0.000 A 
ATOM     13  C   UNL     1      -0.541  14.247  19.026  0.00  0.00    +0.000 A 
ATOM     14  C   UNL     1       0.814  14.353  18.731  0.00  0.00    +0.000 A 
ATOM     15  C   UNL     1       1.639  13.221  18.691  0.00  0.00    +0.000 A 
ATOM     16  C   UNL     1       1.069  11.957  18.751  0.00  0.00    +0.000 A 
ATOM     17  O   UNL     1       1.902  10.842  18.709  0.00  0.00    +0.000 OA
BRANCH  12  18
ATOM     18  O   UNL     1      -2.380  12.908  19.587  0.00  0.00    +0.000 OA
ATOM     19  H   UNL     1      -2.685  13.823  19.728  0.00  0.00    +0.000 HD
ENDBRANCH  12  18
BRANCH  14  20
ATOM     20  O   UNL     1       1.362  15.573  18.464  0.00  0.00    +0.000 OA
ATOM     21  H   UNL     1       0.695  16.255  18.658  0.00  0.00    +0.000 HD
ENDBRANCH  14  20
ENDBRANCH   4   7
BRANCH   1  23
ATOM     22  C   UNL     1       3.792   3.595  18.641  0.00  0.00    +0.000 C 
ATOM     23  O   UNL     1       4.161   4.750  19.408  0.00  0.00    +0.000 OA
ENDBRANCH   1  23
BRANCH   6  24
ATOM     24  O   UNL     1       1.779   5.259  20.983  0.00  0.00    +0.000 OA
ATOM     25  C   UNL     1       0.876   4.296  20.428  0.00  0.00    +0.000 C 
ENDBRANCH   6  24
BRANCH   2  26
ATOM     26  C   UNL     1       4.623   6.268  17.044  0.00  0.00    +0.000 C 
BRANCH  26  27
ATOM     27  C   UNL     1       5.861   7.116  16.999  0.00  0.00    +0.000 C 
ATOM     28  C   UNL     1       7.002   6.999  17.715  0.00  0.00    +0.000 C 
ATOM     29  C   UNL     1       7.292   5.946  18.748  0.00  0.00    +0.000 C 
ATOM     30  C   UNL     1       8.126   7.987  17.523  0.00  0.00    +0.000 C 
ENDBRANCH  26  27
ENDBRANCH   2  26
BRANCH   5  31
ATOM     31  C   UNL     1       0.945   7.872  21.270  0.00  0.00    +0.000 C 
BRANCH  31  32
ATOM     32  C   UNL     1       0.402   9.269  21.234  0.00  0.00    +0.000 C 
ATOM     33  C   UNL     1      -0.021   9.939  22.324  0.00  0.00    +0.000 C 
ATOM     34  C   UNL     1      -0.093   9.339  23.703  0.00  0.00    +0.000 C 
ATOM     35  C   UNL     1      -0.482  11.367  22.233  0.00  0.00    +0.000 C 
ENDBRANCH  31  32
ENDBRANCH   5  31
TORSDOF 9
ENDMDL
MODEL 5
REMARK VINA RESULT:      -7.4      2.105      4.037
REMARK  Name = 
REMARK  15 active torsions:
REMARK  status: ('A' for Active; 'I' for Inactive)
REMARK    1  A    between atoms: C_1  and  O_2
REMARK    2  A    between atoms: O_2  and  C_3
REMARK    3  A    between atoms: C_4  and  C_5
REMARK    4  A    between atoms: C_5  and  C_6
REMARK    5  A    between atoms: C_7  and  C_8
REMARK    6  A    between atoms: C_7  and  C_9
REMARK    7  A    between atoms: C_11  and  C_12
REMARK    8  A    between atoms: C_17  and  O_18
REMARK    9  A    between atoms: C_20  and  O_21
REMARK   10  A    between atoms: C_25  and  C_26
REMARK   11  A    between atoms: C_26  and  C_27
REMARK   12  A    between atoms: C_28  and  C_29
REMARK   13  A    between atoms: C_28  and  C_30
REMARK   14  A    between atoms: C_31  and  O_32
REMARK   15  A    between atoms: O_32  and  C_33
REMARK                            x       y       z     vdW  Elec       q    Type
REMARK                         _______ _______ _______ _____ _____    ______ ____
ROOT
ATOM      1  C   UNL     1       4.234   5.862  18.414  0.00  0.00    +0.000 A 
ATOM      2  C   UNL     1       4.393   6.916  17.488  0.00  0.00    +0.000 A 
ATOM      3  C   UNL     1       3.514   8.030  17.537  0.00  0.00    +0.000 A 
ATOM      4  C   UNL     1       2.489   8.132  18.493  0.00  0.00    +0.000 A 
ATOM      5  C   UNL     1       2.355   7.031  19.410  0.00  0.00    +0.000 A 
ATOM      6  C   UNL     1       3.108   5.852  19.240  0.00  0.00    +0.000 A 
ENDROOT
BRANCH   4   7
ATOM      7  C   UNL     1       1.502   9.298  18.549  0.00  0.00    +0.000 C 
ATOM      8  C   UNL     1       0.382   9.288  17.514  0.00  0.00    +0.000 C 
ATOM      9  C   UNL     1      -0.711  10.072  18.218  0.00  0.00    +0.000 C 
ATOM     10  O   UNL     1      -1.894   9.766  18.159  0.00  0.00    +0.000 OA
ATOM     11  C   UNL     1      -0.239  11.315  18.885  0.00  0.00    +0.000 A 
ATOM     12  C   UNL     1      -1.110  12.289  19.380  0.00  0.00    +0.000 A 
ATOM     13  C   UNL     1      -0.736  13.624  19.341  0.00  0.00    +0.000 A 
ATOM     14  C   UNL     1       0.553  13.939  18.922  0.00  0.00    +0.000 A 
ATOM     15  C   UNL     1       1.510  12.940  18.704  0.00  0.00    +0.000 A 
ATOM     16  C   UNL     1       1.123  11.608  18.714  0.00  0.00    +0.000 A 
ATOM     17  O   UNL     1       2.086  10.626  18.495  0.00  0.00    +0.000 OA
BRANCH  12  18
ATOM     18  O   UNL     1      -2.308  12.004  19.967  0.00  0.00    +0.000 OA
ATOM     19  H   UNL     1      -2.510  11.072  19.768  0.00  0.00    +0.000 HD
ENDBRANCH  12  18
BRANCH  14  20
ATOM     20  O   UNL     1       0.902  15.240  18.706  0.00  0.00    +0.000 OA
ATOM     21  H   UNL     1       1.566  15.492  19.372  0.00  0.00    +0.000 HD
ENDBRANCH  14  20
ENDBRANCH   4   7
BRANCH   1  23
ATOM     22  C   UNL     1       6.308   5.116  19.285  0.00  0.00    +0.000 C 
ATOM     23  O   UNL     1       5.178   4.865  18.437  0.00  0.00    +0.000 OA
ENDBRANCH   1  23
BRANCH   6  24
ATOM     24  O   UNL     1       2.709   4.744  19.954  0.00  0.00    +0.000 OA
ATOM     25  C   UNL     1       1.940   3.802  19.199  0.00  0.00    +0.000 C 
ENDBRANCH   6  24
BRANCH   2  26
ATOM     26  C   UNL     1       5.476   6.842  16.410  0.00  0.00    +0.000 C 
BRANCH  26  27
ATOM     27  C   UNL     1       5.184   5.858  15.313  0.00  0.00    +0.000 C 
ATOM     28  C   UNL     1       5.875   4.755  14.950  0.00  0.00    +0.000 C 
ATOM     29  C   UNL     1       7.134   4.247  15.598  0.00  0.00    +0.000 C 
ATOM     30  C   UNL     1       5.408   3.912  13.790  0.00  0.00    +0.000 C 
ENDBRANCH  26  27
ENDBRANCH   2  26
BRANCH   5  31
ATOM     31  C   UNL     1       1.501   7.120  20.662  0.00  0.00    +0.000 C 
BRANCH  31  32
ATOM     32  C   UNL     1       1.473   8.463  21.328  0.00  0.00    +0.000 C 
ATOM     33  C   UNL     1       0.348   9.056  21.778  0.00  0.00    +0.000 C 
ATOM     34  C   UNL     1      -1.033   8.490  21.584  0.00  0.00    +0.000 C 
ATOM     35  C   UNL     1       0.395  10.369  22.508  0.00  0.00    +0.000 C 
ENDBRANCH  31  32
ENDBRANCH   5  31
TORSDOF 9
ENDMDL
MODEL 6
REMARK VINA RESULT:      -7.3      3.476      8.177
REMARK  Name = 
REMARK  15 active torsions:
REMARK  status: ('A' for Active; 'I' for Inactive)
REMARK    1  A    between atoms: C_1  and  O_2
REMARK    2  A    between atoms: O_2  and  C_3
REMARK    3  A    between atoms: C_4  and  C_5
REMARK    4  A    between atoms: C_5  and  C_6
REMARK    5  A    between atoms: C_7  and  C_8
REMARK    6  A    between atoms: C_7  and  C_9
REMARK    7  A    between atoms: C_11  and  C_12
REMARK    8  A    between atoms: C_17  and  O_18
REMARK    9  A    between atoms: C_20  and  O_21
REMARK   10  A    between atoms: C_25  and  C_26
REMARK   11  A    between atoms: C_26  and  C_27
REMARK   12  A    between atoms: C_28  and  C_29
REMARK   13  A    between atoms: C_28  and  C_30
REMARK   14  A    between atoms: C_31  and  O_32
REMARK   15  A    between atoms: O_32  and  C_33
REMARK                            x       y       z     vdW  Elec       q    Type
REMARK                         _______ _______ _______ _____ _____    ______ ____
ROOT
ATOM      1  C   UNL     1      -0.104  13.447  18.889  0.00  0.00    +0.000 A 
ATOM      2  C   UNL     1       1.291  13.244  18.960  0.00  0.00    +0.000 A 
ATOM      3  C   UNL     1       1.808  11.921  18.947  0.00  0.00    +0.000 A 
ATOM      4  C   UNL     1       0.975  10.794  18.851  0.00  0.00    +0.000 A 
ATOM      5  C   UNL     1      -0.442  11.046  18.793  0.00  0.00    +0.000 A 
ATOM      6  C   UNL     1      -0.954  12.344  18.989  0.00  0.00    +0.000 A 
ENDROOT
BRANCH   4   7
ATOM      7  C   UNL     1       1.494   9.357  18.874  0.00  0.00    +0.000 C 
ATOM      8  C   UNL     1       1.890   8.801  20.239  0.00  0.00    +0.000 C 
ATOM      9  C   UNL     1       1.684   7.309  20.050  0.00  0.00    +0.000 C 
ATOM     10  O   UNL     1       1.203   6.588  20.913  0.00  0.00    +0.000 OA
ATOM     11  C   UNL     1       2.226   6.775  18.772  0.00  0.00    +0.000 A 
ATOM     12  C   UNL     1       2.349   5.408  18.512  0.00  0.00    +0.000 A 
ATOM     13  C   UNL     1       3.402   4.952  17.733  0.00  0.00    +0.000 A 
ATOM     14  C   UNL     1       4.236   5.889  17.130  0.00  0.00    +0.000 A 
ATOM     15  C   UNL     1       3.932   7.256  17.162  0.00  0.00    +0.000 A 
ATOM     16  C   UNL     1       2.897   7.709  17.967  0.00  0.00    +0.000 A 
ATOM     17  O   UNL     1       2.608   9.071  17.988  0.00  0.00    +0.000 OA
BRANCH  12  18
ATOM     18  O   UNL     1       1.448   4.473  18.933  0.00  0.00    +0.000 OA
ATOM     19  H   UNL     1       0.763   4.945  19.442  0.00  0.00    +0.000 HD
ENDBRANCH  12  18
BRANCH  14  20
ATOM     20  O   UNL     1       5.377   5.485  16.502  0.00  0.00    +0.000 OA
ATOM     21  H   UNL     1       5.679   6.208  15.924  0.00  0.00    +0.000 HD
ENDBRANCH  14  20
ENDBRANCH   4   7
BRANCH   1  23
ATOM     22  C   UNL     1      -0.772  15.433  19.997  0.00  0.00    +0.000 C 
ATOM     23  O   UNL     1      -0.571  14.732  18.762  0.00  0.00    +0.000 OA
ENDBRANCH   1  23
BRANCH   6  24
ATOM     24  O   UNL     1      -2.306  12.455  19.227  0.00  0.00    +0.000 OA
ATOM     25  C   UNL     1      -2.655  12.556  20.612  0.00  0.00    +0.000 C 
ENDBRANCH   6  24
BRANCH   2  26
ATOM     26  C   UNL     1       2.241  14.436  19.092  0.00  0.00    +0.000 C 
BRANCH  26  27
ATOM     27  C   UNL     1       3.631  14.172  18.587  0.00  0.00    +0.000 C 
ATOM     28  C   UNL     1       4.621  15.051  18.315  0.00  0.00    +0.000 C 
ATOM     29  C   UNL     1       4.546  16.544  18.475  0.00  0.00    +0.000 C 
ATOM     30  C   UNL     1       5.948  14.563  17.788  0.00  0.00    +0.000 C 
ENDBRANCH  26  27
ENDBRANCH   2  26
BRANCH   5  31
ATOM     31  C   UNL     1      -1.439   9.970  18.401  0.00  0.00    +0.000 C 
BRANCH  31  32
ATOM     32  C   UNL     1      -1.722   9.858  16.933  0.00  0.00    +0.000 C 
ATOM     33  C   UNL     1      -2.895  10.201  16.365  0.00  0.00    +0.000 C 
ATOM     34  C   UNL     1      -4.104  10.649  17.142  0.00  0.00    +0.000 C 
ATOM     35  C   UNL     1      -3.091  10.139  14.876  0.00  0.00    +0.000 C 
ENDBRANCH  31  32
ENDBRANCH   5  31
TORSDOF 9
ENDMDL
MODEL 7
REMARK VINA RESULT:      -7.1      1.936      3.522
REMARK  Name = 
REMARK  15 active torsions:
REMARK  status: ('A' for Active; 'I' for Inactive)
REMARK    1  A    between atoms: C_1  and  O_2
REMARK    2  A    between atoms: O_2  and  C_3
REMARK    3  A    between atoms: C_4  and  C_5
REMARK    4  A    between atoms: C_5  and  C_6
REMARK    5  A    between atoms: C_7  and  C_8
REMARK    6  A    between atoms: C_7  and  C_9
REMARK    7  A    between atoms: C_11  and  C_12
REMARK    8  A    between atoms: C_17  and  O_18
REMARK    9  A    between atoms: C_20  and  O_21
REMARK   10  A    between atoms: C_25  and  C_26
REMARK   11  A    between atoms: C_26  and  C_27
REMARK   12  A    between atoms: C_28  and  C_29
REMARK   13  A    between atoms: C_28  and  C_30
REMARK   14  A    between atoms: C_31  and  O_32
REMARK   15  A    between atoms: O_32  and  C_33
REMARK                            x       y       z     vdW  Elec       q    Type
REMARK                         _______ _______ _______ _____ _____    ______ ____
ROOT
ATOM      1  C   UNL     1       3.806   5.348  18.405  0.00  0.00    +0.000 A 
ATOM      2  C   UNL     1       4.234   6.436  17.613  0.00  0.00    +0.000 A 
ATOM      3  C   UNL     1       3.517   7.660  17.661  0.00  0.00    +0.000 A 
ATOM      4  C   UNL     1       2.394   7.839  18.487  0.00  0.00    +0.000 A 
ATOM      5  C   UNL     1       1.986   6.701  19.268  0.00  0.00    +0.000 A 
ATOM      6  C   UNL     1       2.587   5.440  19.079  0.00  0.00    +0.000 A 
ENDROOT
BRANCH   4   7
ATOM      7  C   UNL     1       1.579   9.130  18.533  0.00  0.00    +0.000 C 
ATOM      8  C   UNL     1       0.420   9.235  17.546  0.00  0.00    +0.000 C 
ATOM      9  C   UNL     1      -0.523  10.187  18.259  0.00  0.00    +0.000 C 
ATOM     10  O   UNL     1      -1.738  10.044  18.263  0.00  0.00    +0.000 OA
ATOM     11  C   UNL     1       0.144  11.378  18.852  0.00  0.00    +0.000 A 
ATOM     12  C   UNL     1      -0.563  12.480  19.340  0.00  0.00    +0.000 A 
ATOM     13  C   UNL     1      -0.014  13.748  19.227  0.00  0.00    +0.000 A 
ATOM     14  C   UNL     1       1.285  13.868  18.742  0.00  0.00    +0.000 A 
ATOM     15  C   UNL     1       2.087  12.739  18.529  0.00  0.00    +0.000 A 
ATOM     16  C   UNL     1       1.523  11.474  18.612  0.00  0.00    +0.000 A 
ATOM     17  O   UNL     1       2.333  10.362  18.397  0.00  0.00    +0.000 OA
BRANCH  12  18
ATOM     18  O   UNL     1      -1.760  12.385  19.987  0.00  0.00    +0.000 OA
ATOM     19  H   UNL     1      -2.458  12.450  19.309  0.00  0.00    +0.000 HD
ENDBRANCH  12  18
BRANCH  14  20
ATOM     20  O   UNL     1       1.797  15.100  18.456  0.00  0.00    +0.000 OA
ATOM     21  H   UNL     1       2.333  15.390  19.215  0.00  0.00    +0.000 HD
ENDBRANCH  14  20
ENDBRANCH   4   7
BRANCH   1  23
ATOM     22  C   UNL     1       4.166   3.148  17.599  0.00  0.00    +0.000 C 
ATOM     23  O   UNL     1       4.592   4.223  18.449  0.00  0.00    +0.000 OA
ENDBRANCH   1  23
BRANCH   6  24
ATOM     24  O   UNL     1       1.945   4.351  19.626  0.00  0.00    +0.000 OA
ATOM     25  C   UNL     1       2.454   3.947  20.902  0.00  0.00    +0.000 C 
ENDBRANCH   6  24
BRANCH   2  26
ATOM     26  C   UNL     1       5.435   6.286  16.677  0.00  0.00    +0.000 C 
BRANCH  26  27
ATOM     27  C   UNL     1       6.507   7.317  16.886  0.00  0.00    +0.000 C 
ATOM     28  C   UNL     1       7.510   7.334  17.791  0.00  0.00    +0.000 C 
ATOM     29  C   UNL     1       7.787   6.276  18.823  0.00  0.00    +0.000 C 
ATOM     30  C   UNL     1       8.473   8.495  17.838  0.00  0.00    +0.000 C 
ENDBRANCH  26  27
ENDBRANCH   2  26
BRANCH   5  31
ATOM     31  C   UNL     1       0.988   6.817  20.406  0.00  0.00    +0.000 C 
BRANCH  31  32
ATOM     32  C   UNL     1       1.360   7.781  21.493  0.00  0.00    +0.000 C 
ATOM     33  C   UNL     1       0.509   8.685  22.019  0.00  0.00    +0.000 C 
ATOM     34  C   UNL     1      -0.893   8.908  21.519  0.00  0.00    +0.000 C 
ATOM     35  C   UNL     1       0.919   9.572  23.161  0.00  0.00    +0.000 C 
ENDBRANCH  31  32
ENDBRANCH   5  31
TORSDOF 9
ENDMDL
MODEL 8
REMARK VINA RESULT:      -7.0      1.961      7.717
REMARK  Name = 
REMARK  15 active torsions:
REMARK  status: ('A' for Active; 'I' for Inactive)
REMARK    1  A    between atoms: C_1  and  O_2
REMARK    2  A    between atoms: O_2  and  C_3
REMARK    3  A    between atoms: C_4  and  C_5
REMARK    4  A    between atoms: C_5  and  C_6
REMARK    5  A    between atoms: C_7  and  C_8
REMARK    6  A    between atoms: C_7  and  C_9
REMARK    7  A    between atoms: C_11  and  C_12
REMARK    8  A    between atoms: C_17  and  O_18
REMARK    9  A    between atoms: C_20  and  O_21
REMARK   10  A    between atoms: C_25  and  C_26
REMARK   11  A    between atoms: C_26  and  C_27
REMARK   12  A    between atoms: C_28  and  C_29
REMARK   13  A    between atoms: C_28  and  C_30
REMARK   14  A    between atoms: C_31  and  O_32
REMARK   15  A    between atoms: O_32  and  C_33
REMARK                            x       y       z     vdW  Elec       q    Type
REMARK                         _______ _______ _______ _____ _____    ______ ____
ROOT
ATOM      1  C   UNL     1       0.431   9.624  20.185  0.00  0.00    +0.000 A 
ATOM      2  C   UNL     1       0.956   9.866  18.898  0.00  0.00    +0.000 A 
ATOM      3  C   UNL     1       1.832   8.916  18.309  0.00  0.00    +0.000 A 
ATOM      4  C   UNL     1       2.189   7.723  18.961  0.00  0.00    +0.000 A 
ATOM      5  C   UNL     1       1.640   7.522  20.276  0.00  0.00    +0.000 A 
ATOM      6  C   UNL     1       0.922   8.546  20.925  0.00  0.00    +0.000 A 
ENDROOT
BRANCH   4   7
ATOM      7  C   UNL     1       3.158   6.698  18.373  0.00  0.00    +0.000 C 
ATOM      8  C   UNL     1       4.187   6.110  19.333  0.00  0.00    +0.000 C 
ATOM      9  C   UNL     1       4.473   4.757  18.706  0.00  0.00    +0.000 C 
ATOM     10  O   UNL     1       4.626   3.736  19.363  0.00  0.00    +0.000 OA
ATOM     11  C   UNL     1       4.674   4.797  17.233  0.00  0.00    +0.000 A 
ATOM     12  C   UNL     1       5.175   3.714  16.505  0.00  0.00    +0.000 A 
ATOM     13  C   UNL     1       5.968   3.948  15.392  0.00  0.00    +0.000 A 
ATOM     14  C   UNL     1       6.136   5.260  14.960  0.00  0.00    +0.000 A 
ATOM     15  C   UNL     1       5.397   6.309  15.523  0.00  0.00    +0.000 A 
ATOM     16  C   UNL     1       4.631   6.075  16.656  0.00  0.00    +0.000 A 
ATOM     17  O   UNL     1       3.903   7.129  17.203  0.00  0.00    +0.000 OA
BRANCH  12  18
ATOM     18  O   UNL     1       4.882   2.412  16.788  0.00  0.00    +0.000 OA
ATOM     19  H   UNL     1       5.558   1.865  16.347  0.00  0.00    +0.000 HD
ENDBRANCH  12  18
BRANCH  14  20
ATOM     20  O   UNL     1       7.040   5.546  13.980  0.00  0.00    +0.000 OA
ATOM     21  H   UNL     1       7.635   6.243  14.308  0.00  0.00    +0.000 HD
ENDBRANCH  14  20
ENDBRANCH   4   7
BRANCH   1  23
ATOM     22  C   UNL     1      -0.015  11.551  21.491  0.00  0.00    +0.000 C 
ATOM     23  O   UNL     1      -0.520  10.485  20.675  0.00  0.00    +0.000 OA
ENDBRANCH   1  23
BRANCH   6  24
ATOM     24  O   UNL     1       0.701   8.398  22.276  0.00  0.00    +0.000 OA
ATOM     25  C   UNL     1       1.538   9.214  23.104  0.00  0.00    +0.000 C 
ENDBRANCH   6  24
BRANCH   2  26
ATOM     26  C   UNL     1       0.621  11.161  18.156  0.00  0.00    +0.000 C 
BRANCH  26  27
ATOM     27  C   UNL     1      -0.830  11.544  18.215  0.00  0.00    +0.000 C 
ATOM     28  C   UNL     1      -1.892  10.961  17.616  0.00  0.00    +0.000 C 
ATOM     29  C   UNL     1      -1.849   9.747  16.729  0.00  0.00    +0.000 C 
ATOM     30  C   UNL     1      -3.277  11.532  17.797  0.00  0.00    +0.000 C 
ENDBRANCH  26  27
ENDBRANCH   2  26
BRANCH   5  31
ATOM     31  C   UNL     1       1.693   6.176  20.978  0.00  0.00    +0.000 C 
BRANCH  31  32
ATOM     32  C   UNL     1       1.119   5.025  20.209  0.00  0.00    +0.000 C 
ATOM     33  C   UNL     1       1.280   3.733  20.558  0.00  0.00    +0.000 C 
ATOM     34  C   UNL     1       2.135   3.275  21.710  0.00  0.00    +0.000 C 
ATOM     35  C   UNL     1       0.614   2.626  19.789  0.00  0.00    +0.000 C 
ENDBRANCH  31  32
ENDBRANCH   5  31
TORSDOF 9
ENDMDL
MODEL 9
REMARK VINA RESULT:      -7.0      3.541      8.035
REMARK  Name = 
REMARK  15 active torsions:
REMARK  status: ('A' for Active; 'I' for Inactive)
REMARK    1  A    between atoms: C_1  and  O_2
REMARK    2  A    between atoms: O_2  and  C_3
REMARK    3  A    between atoms: C_4  and  C_5
REMARK    4  A    between atoms: C_5  and  C_6
REMARK    5  A    between atoms: C_7  and  C_8
REMARK    6  A    between atoms: C_7  and  C_9
REMARK    7  A    between atoms: C_11  and  C_12
REMARK    8  A    between atoms: C_17  and  O_18
REMARK    9  A    between atoms: C_20  and  O_21
REMARK   10  A    between atoms: C_25  and  C_26
REMARK   11  A    between atoms: C_26  and  C_27
REMARK   12  A    between atoms: C_28  and  C_29
REMARK   13  A    between atoms: C_28  and  C_30
REMARK   14  A    between atoms: C_31  and  O_32
REMARK   15  A    between atoms: O_32  and  C_33
REMARK                            x       y       z     vdW  Elec       q    Type
REMARK                         _______ _______ _______ _____ _____    ______ ____
ROOT
ATOM      1  C   UNL     1      -0.043  13.615  19.778  0.00  0.00    +0.000 A 
ATOM      2  C   UNL     1       1.357  13.436  19.795  0.00  0.00    +0.000 A 
ATOM      3  C   UNL     1       1.899  12.139  19.596  0.00  0.00    +0.000 A 
ATOM      4  C   UNL     1       1.087  11.016  19.365  0.00  0.00    +0.000 A 
ATOM      5  C   UNL     1      -0.335  11.241  19.367  0.00  0.00    +0.000 A 
ATOM      6  C   UNL     1      -0.869  12.489  19.745  0.00  0.00    +0.000 A 
ENDROOT
BRANCH   4   7
ATOM      7  C   UNL     1       1.636   9.601  19.185  0.00  0.00    +0.000 C 
ATOM      8  C   UNL     1       1.526   9.004  17.786  0.00  0.00    +0.000 C 
ATOM      9  C   UNL     1       2.680   8.018  17.766  0.00  0.00    +0.000 C 
ATOM     10  O   UNL     1       3.397   7.849  16.790  0.00  0.00    +0.000 OA
ATOM     11  C   UNL     1       2.791   7.183  18.994  0.00  0.00    +0.000 A 
ATOM     12  C   UNL     1       3.627   6.068  19.080  0.00  0.00    +0.000 A 
ATOM     13  C   UNL     1       3.241   4.983  19.853  0.00  0.00    +0.000 A 
ATOM     14  C   UNL     1       2.086   5.093  20.620  0.00  0.00    +0.000 A 
ATOM     15  C   UNL     1       1.415   6.316  20.750  0.00  0.00    +0.000 A 
ATOM     16  C   UNL     1       1.786   7.388  19.951  0.00  0.00    +0.000 A 
ATOM     17  O   UNL     1       1.108   8.596  20.091  0.00  0.00    +0.000 OA
BRANCH  12  18
ATOM     18  O   UNL     1       4.855   5.994  18.488  0.00  0.00    +0.000 OA
ATOM     19  H   UNL     1       5.477   6.483  19.059  0.00  0.00    +0.000 HD
ENDBRANCH  12  18
BRANCH  14  20
ATOM     20  O   UNL     1       1.581   3.997  21.257  0.00  0.00    +0.000 OA
ATOM     21  H   UNL     1       0.735   3.764  20.836  0.00  0.00    +0.000 HD
ENDBRANCH  14  20
ENDBRANCH   4   7
BRANCH   1  23
ATOM     22  C   UNL     1      -0.400  15.654  18.624  0.00  0.00    +0.000 C 
ATOM     23  O   UNL     1      -0.539  14.894  19.833  0.00  0.00    +0.000 OA
ENDBRANCH   1  23
BRANCH   6  24
ATOM     24  O   UNL     1      -2.217  12.537  20.021  0.00  0.00    +0.000 OA
ATOM     25  C   UNL     1      -2.532  12.612  21.416  0.00  0.00    +0.000 C 
ENDBRANCH   6  24
BRANCH   2  26
ATOM     26  C   UNL     1       2.286  14.621  20.068  0.00  0.00    +0.000 C 
BRANCH  26  27
ATOM     27  C   UNL     1       3.645  14.491  19.443  0.00  0.00    +0.000 C 
ATOM     28  C   UNL     1       4.114  15.038  18.300  0.00  0.00    +0.000 C 
ATOM     29  C   UNL     1       3.347  15.940  17.372  0.00  0.00    +0.000 C 
ATOM     30  C   UNL     1       5.524  14.754  17.842  0.00  0.00    +0.000 C 
ENDBRANCH  26  27
ENDBRANCH   2  26
BRANCH   5  31
ATOM     31  C   UNL     1      -1.319  10.206  18.853  0.00  0.00    +0.000 C 
BRANCH  31  32
ATOM     32  C   UNL     1      -1.595  10.255  17.381  0.00  0.00    +0.000 C 
ATOM     33  C   UNL     1      -2.812  10.493  16.852  0.00  0.00    +0.000 C 
ATOM     34  C   UNL     1      -4.067  10.646  17.669  0.00  0.00    +0.000 C 
ATOM     35  C   UNL     1      -3.010  10.608  15.366  0.00  0.00    +0.000 C 
ENDBRANCH  31  32
ENDBRANCH   5  31
TORSDOF 9
ENDMDL
