MODEL 1
REMARK VINA RESULT:      -7.4      0.000      0.000
REMARK  Name = 
REMARK  5 active torsions:
REMARK  status: ('A' for Active; 'I' for Inactive)
REMARK    1  A    between atoms: C_1  and  C_2
REMARK    2  A    between atoms: C_6  and  C_7
REMARK    3  A    between atoms: C_7  and  N_8
REMARK    4  A    between atoms: C_15  and  C_16
REMARK    5  A    between atoms: C_16  and  N_17
REMARK                            x       y       z     vdW  Elec       q    Type
REMARK                         _______ _______ _______ _____ _____    ______ ____
ROOT
ATOM      1  N   UNL     1       1.703   8.291  18.733  0.00  0.00    +0.000 NA
ATOM      2  C   UNL     1       1.648   7.942  20.152  0.00  0.00    +0.000 C 
ATOM      3  C   UNL     1       1.995   6.509  20.531  0.00  0.00    +0.000 C 
ATOM      4  C   UNL     1       3.146   5.891  19.728  0.00  0.00    +0.000 C 
ATOM      5  C   UNL     1       2.991   6.166  18.248  0.00  0.00    +0.000 C 
ATOM      6  C   UNL     1       1.918   5.163  17.865  0.00  0.00    +0.000 C 
ATOM      7  O   UNL     1       2.222   3.982  18.629  0.00  0.00    +0.000 OA
ATOM      8  C   UNL     1       3.027   4.365  19.776  0.00  0.00    +0.000 C 
ATOM      9  C   UNL     1       2.707   7.622  17.912  0.00  0.00    +0.000 C 
ENDROOT
BRANCH   1  10
ATOM     10  C   UNL     1       1.750   9.770  18.538  0.00  0.00    +0.000 C 
BRANCH  10  16
ATOM     11  C   UNL     1      -2.889   9.886  16.951  0.00  0.00    +0.000 C 
ATOM     12  C   UNL     1      -1.796  10.573  17.710  0.00  0.00    +0.000 A 
ATOM     13  C   UNL     1      -2.006  11.824  18.286  0.00  0.00    +0.000 A 
ATOM     14  C   UNL     1      -0.961  12.425  18.969  0.00  0.00    +0.000 A 
ATOM     15  C   UNL     1       0.259  11.762  19.070  0.00  0.00    +0.000 A 
ATOM     16  C   UNL     1       0.409  10.512  18.467  0.00  0.00    +0.000 A 
ATOM     17  N   UNL     1      -0.610   9.918  17.792  0.00  0.00    +0.000 NA
ENDBRANCH  10  16
ENDBRANCH   1  10
BRANCH   8  18
ATOM     18  C   UNL     1       4.376   3.644  19.713  0.00  0.00    +0.000 C 
BRANCH  18  19
ATOM     19  N   UNL     1       4.545   3.083  18.381  0.00  0.00    +0.000 N 
ATOM     20  C   UNL     1       5.431   3.772  17.579  0.00  0.00    +0.000 A 
ATOM     21  N   UNL     1       6.500   4.372  18.139  0.00  0.00    +0.000 NA
ATOM     22  C   UNL     1       7.322   5.036  17.317  0.00  0.00    +0.000 A 
ATOM     23  C   UNL     1       7.124   5.132  15.963  0.00  0.00    +0.000 A 
ATOM     24  C   UNL     1       6.012   4.483  15.487  0.00  0.00    +0.000 A 
ATOM     25  N   UNL     1       5.155   3.804  16.270  0.00  0.00    +0.000 NA
ATOM     26  H   UNL     1       3.670   2.991  17.867  0.00  0.00    +0.000 HD
ENDBRANCH  18  19
ENDBRANCH   8  18
TORSDOF 4
ENDMDL
MODEL 2
REMARK VINA RESULT:      -7.3      0.913      1.045
REMARK  Name = 
REMARK  5 active torsions:
REMARK  status: ('A' for Active; 'I' for Inactive)
REMARK    1  A    between atoms: C_1  and  C_2
REMARK    2  A    between atoms: C_6  and  C_7
REMARK    3  A    between atoms: C_7  and  N_8
REMARK    4  A    between atoms: C_15  and  C_16
REMARK    5  A    between atoms: C_16  and  N_17
REMARK                            x       y       z     vdW  Elec       q    Type
REMARK                         _______ _______ _______ _____ _____    ______ ____
ROOT
ATOM      1  N   UNL     1       1.698   7.990  18.887  0.00  0.00    +0.000 NA
ATOM      2  C   UNL     1       1.567   7.516  20.263  0.00  0.00    +0.000 C 
ATOM      3  C   UNL     1       1.963   6.073  20.545  0.00  0.00    +0.000 C 
ATOM      4  C   UNL     1       3.198   5.584  19.777  0.00  0.00    +0.000 C 
ATOM      5  C   UNL     1       3.128   5.979  18.319  0.00  0.00    +0.000 C 
ATOM      6  C   UNL     1       2.139   4.963  17.776  0.00  0.00    +0.000 C 
ATOM      7  O   UNL     1       2.453   3.736  18.459  0.00  0.00    +0.000 OA
ATOM      8  C   UNL     1       3.157   4.056  19.689  0.00  0.00    +0.000 C 
ATOM      9  C   UNL     1       2.790   7.443  18.086  0.00  0.00    +0.000 C 
ENDROOT
BRANCH   1  10
ATOM     10  C   UNL     1       1.679   9.481  18.820  0.00  0.00    +0.000 C 
BRANCH  10  16
ATOM     11  C   UNL     1      -2.593  10.082  16.486  0.00  0.00    +0.000 C 
ATOM     12  C   UNL     1      -1.724  10.455  17.648  0.00  0.00    +0.000 A 
ATOM     13  C   UNL     1      -2.154  11.390  18.587  0.00  0.00    +0.000 A 
ATOM     14  C   UNL     1      -1.310  11.713  19.638  0.00  0.00    +0.000 A 
ATOM     15  C   UNL     1      -0.069  11.089  19.732  0.00  0.00    +0.000 A 
ATOM     16  C   UNL     1       0.307  10.163  18.758  0.00  0.00    +0.000 A 
ATOM     17  N   UNL     1      -0.513   9.845  17.722  0.00  0.00    +0.000 NA
ENDBRANCH  10  16
ENDBRANCH   1  10
BRANCH   8  18
ATOM     18  C   UNL     1       4.544   3.408  19.663  0.00  0.00    +0.000 C 
BRANCH  18  19
ATOM     19  N   UNL     1       5.103   3.554  18.327  0.00  0.00    +0.000 N 
ATOM     20  C   UNL     1       6.011   4.583  18.197  0.00  0.00    +0.000 A 
ATOM     21  N   UNL     1       6.805   4.900  19.239  0.00  0.00    +0.000 NA
ATOM     22  C   UNL     1       7.660   5.915  19.062  0.00  0.00    +0.000 A 
ATOM     23  C   UNL     1       7.757   6.630  17.896  0.00  0.00    +0.000 A 
ATOM     24  C   UNL     1       6.912   6.228  16.891  0.00  0.00    +0.000 A 
ATOM     25  N   UNL     1       6.034   5.217  17.018  0.00  0.00    +0.000 NA
ATOM     26  H   UNL     1       4.396   3.671  17.603  0.00  0.00    +0.000 HD
ENDBRANCH  18  19
ENDBRANCH   8  18
TORSDOF 4
ENDMDL
MODEL 3
REMARK VINA RESULT:      -7.3      4.345      7.151
REMARK  Name = 
REMARK  5 active torsions:
REMARK  status: ('A' for Active; 'I' for Inactive)
REMARK    1  A    between atoms: C_1  and  C_2
REMARK    2  A    between atoms: C_6  and  C_7
REMARK    3  A    between atoms: C_7  and  N_8
REMARK    4  A    between atoms: C_15  and  C_16
REMARK    5  A    between atoms: C_16  and  N_17
REMARK                            x       y       z     vdW  Elec       q    Type
REMARK                         _______ _______ _______ _____ _____    ______ ____
ROOT
ATOM      1  N   UNL     1       4.848   4.025  17.397  0.00  0.00    +0.000 NA
ATOM      2  C   UNL     1       5.587   4.162  18.651  0.00  0.00    +0.000 C 
ATOM      3  C   UNL     1       6.684   5.217  18.704  0.00  0.00    +0.000 C 
ATOM      4  C   UNL     1       6.357   6.521  17.967  0.00  0.00    +0.000 C 
ATOM      5  C   UNL     1       5.768   6.247  16.601  0.00  0.00    +0.000 C 
ATOM      6  C   UNL     1       7.005   5.871  15.806  0.00  0.00    +0.000 C 
ATOM      7  O   UNL     1       8.036   6.755  16.283  0.00  0.00    +0.000 OA
ATOM      8  C   UNL     1       7.665   7.230  17.605  0.00  0.00    +0.000 C 
ATOM      9  C   UNL     1       4.633   5.233  16.606  0.00  0.00    +0.000 C 
ENDROOT
BRANCH   1  10
ATOM     10  C   UNL     1       3.571   3.280  17.595  0.00  0.00    +0.000 C 
BRANCH  10  16
ATOM     11  C   UNL     1       1.413   6.273  20.827  0.00  0.00    +0.000 C 
ATOM     12  C   UNL     1       1.834   4.877  20.482  0.00  0.00    +0.000 A 
ATOM     13  C   UNL     1       1.600   3.825  21.365  0.00  0.00    +0.000 A 
ATOM     14  C   UNL     1       2.019   2.552  21.008  0.00  0.00    +0.000 A 
ATOM     15  C   UNL     1       2.646   2.361  19.780  0.00  0.00    +0.000 A 
ATOM     16  C   UNL     1       2.857   3.456  18.941  0.00  0.00    +0.000 A 
ATOM     17  N   UNL     1       2.453   4.707  19.286  0.00  0.00    +0.000 NA
ENDBRANCH  10  16
ENDBRANCH   1  10
BRANCH   8  18
ATOM     18  C   UNL     1       7.546   8.757  17.580  0.00  0.00    +0.000 C 
BRANCH  18  19
ATOM     19  N   UNL     1       8.538   9.318  18.485  0.00  0.00    +0.000 N 
ATOM     20  C   UNL     1       8.905  10.615  18.196  0.00  0.00    +0.000 A 
ATOM     21  N   UNL     1       7.994  11.460  17.675  0.00  0.00    +0.000 NA
ATOM     22  C   UNL     1       8.406  12.705  17.404  0.00  0.00    +0.000 A 
ATOM     23  C   UNL     1       9.687  13.143  17.625  0.00  0.00    +0.000 A 
ATOM     24  C   UNL     1      10.540  12.213  18.163  0.00  0.00    +0.000 A 
ATOM     25  N   UNL     1      10.176  10.950  18.453  0.00  0.00    +0.000 NA
ATOM     26  H   UNL     1       9.389   8.762  18.548  0.00  0.00    +0.000 HD
ENDBRANCH  18  19
ENDBRANCH   8  18
TORSDOF 4
ENDMDL
MODEL 4
REMARK VINA RESULT:      -7.2      0.729      1.393
REMARK  Name = 
REMARK  5 active torsions:
REMARK  status: ('A' for Active; 'I' for Inactive)
REMARK    1  A    between atoms: C_1  and  C_2
REMARK    2  A    between atoms: C_6  and  C_7
REMARK    3  A    between atoms: C_7  and  N_8
REMARK    4  A    between atoms: C_15  and  C_16
REMARK    5  A    between atoms: C_16  and  N_17
REMARK                            x       y       z     vdW  Elec       q    Type
REMARK                         _______ _______ _______ _____ _____    ______ ____
ROOT
ATOM      1  N   UNL     1       1.543   8.044  19.120  0.00  0.00    +0.000 NA
ATOM      2  C   UNL     1       1.498   7.530  20.487  0.00  0.00    +0.000 C 
ATOM      3  C   UNL     1       1.890   6.074  20.699  0.00  0.00    +0.000 C 
ATOM      4  C   UNL     1       3.061   5.592  19.835  0.00  0.00    +0.000 C 
ATOM      5  C   UNL     1       2.899   6.031  18.397  0.00  0.00    +0.000 C 
ATOM      6  C   UNL     1       1.859   5.047  17.893  0.00  0.00    +0.000 C 
ATOM      7  O   UNL     1       2.199   3.795  18.517  0.00  0.00    +0.000 OA
ATOM      8  C   UNL     1       2.990   4.067  19.704  0.00  0.00    +0.000 C 
ATOM      9  C   UNL     1       2.569   7.507  18.231  0.00  0.00    +0.000 C 
ENDROOT
BRANCH   1  10
ATOM     10  C   UNL     1       1.543   9.537  19.098  0.00  0.00    +0.000 C 
BRANCH  10  16
ATOM     11  C   UNL     1      -1.670  13.040  20.305  0.00  0.00    +0.000 C 
ATOM     12  C   UNL     1      -1.328  11.897  19.400  0.00  0.00    +0.000 A 
ATOM     13  C   UNL     1      -2.205  11.497  18.394  0.00  0.00    +0.000 A 
ATOM     14  C   UNL     1      -1.850  10.426  17.589  0.00  0.00    +0.000 A 
ATOM     15  C   UNL     1      -0.630   9.791  17.799  0.00  0.00    +0.000 A 
ATOM     16  C   UNL     1       0.205  10.235  18.826  0.00  0.00    +0.000 A 
ATOM     17  N   UNL     1      -0.138  11.282  19.622  0.00  0.00    +0.000 NA
ENDBRANCH  10  16
ENDBRANCH   1  10
BRANCH   8  18
ATOM     18  C   UNL     1       4.362   3.401  19.565  0.00  0.00    +0.000 C 
BRANCH  18  19
ATOM     19  N   UNL     1       4.563   3.033  18.171  0.00  0.00    +0.000 N 
ATOM     20  C   UNL     1       5.431   3.854  17.483  0.00  0.00    +0.000 A 
ATOM     21  N   UNL     1       6.472   4.409  18.133  0.00  0.00    +0.000 NA
ATOM     22  C   UNL     1       7.277   5.206  17.420  0.00  0.00    +0.000 A 
ATOM     23  C   UNL     1       7.088   5.478  16.090  0.00  0.00    +0.000 A 
ATOM     24  C   UNL     1       6.005   4.862  15.514  0.00  0.00    +0.000 A 
ATOM     25  N   UNL     1       5.165   4.054  16.186  0.00  0.00    +0.000 NA
ATOM     26  H   UNL     1       3.697   2.981  17.637  0.00  0.00    +0.000 HD
ENDBRANCH  18  19
ENDBRANCH   8  18
TORSDOF 4
ENDMDL
MODEL 5
REMARK VINA RESULT:      -7.2      1.457      1.961
REMARK  Name = 
REMARK  5 active torsions:
REMARK  status: ('A' for Active; 'I' for Inactive)
REMARK    1  A    between atoms: C_1  and  C_2
REMARK    2  A    between atoms: C_6  and  C_7
REMARK    3  A    between atoms: C_7  and  N_8
REMARK    4  A    between atoms: C_15  and  C_16
REMARK    5  A    between atoms: C_16  and  N_17
REMARK                            x       y       z     vdW  Elec       q    Type
REMARK                         _______ _______ _______ _____ _____    ______ ____
ROOT
ATOM      1  N   UNL     1       1.441   7.651  20.042  0.00  0.00    +0.000 NA
ATOM      2  C   UNL     1       1.154   6.646  21.065  0.00  0.00    +0.000 C 
ATOM      3  C   UNL     1       1.640   5.227  20.804  0.00  0.00    +0.000 C 
ATOM      4  C   UNL     1       3.014   5.131  20.129  0.00  0.00    +0.000 C 
ATOM      5  C   UNL     1       3.122   6.092  18.966  0.00  0.00    +0.000 C 
ATOM      6  C   UNL     1       2.323   5.368  17.898  0.00  0.00    +0.000 C 
ATOM      7  O   UNL     1       2.648   3.976  18.070  0.00  0.00    +0.000 OA
ATOM      8  C   UNL     1       3.131   3.776  19.425  0.00  0.00    +0.000 C 
ATOM      9  C   UNL     1       2.684   7.513  19.290  0.00  0.00    +0.000 C 
ENDROOT
BRANCH   1  10
ATOM     10  C   UNL     1       1.291   9.035  20.581  0.00  0.00    +0.000 C 
BRANCH  10  16
ATOM     11  C   UNL     1      -2.061  12.576  21.111  0.00  0.00    +0.000 C 
ATOM     12  C   UNL     1      -1.384  11.603  20.194  0.00  0.00    +0.000 A 
ATOM     13  C   UNL     1      -1.752  11.515  18.854  0.00  0.00    +0.000 A 
ATOM     14  C   UNL     1      -1.106  10.591  18.047  0.00  0.00    +0.000 A 
ATOM     15  C   UNL     1      -0.106   9.790  18.593  0.00  0.00    +0.000 A 
ATOM     16  C   UNL     1       0.214   9.922  19.945  0.00  0.00    +0.000 A 
ATOM     17  N   UNL     1      -0.418  10.823  20.743  0.00  0.00    +0.000 NA
ENDBRANCH  10  16
ENDBRANCH   1  10
BRANCH   8  18
ATOM     18  C   UNL     1       4.563   3.233  19.379  0.00  0.00    +0.000 C 
BRANCH  18  19
ATOM     19  N   UNL     1       5.144   3.557  18.084  0.00  0.00    +0.000 N 
ATOM     20  C   UNL     1       6.041   4.603  18.107  0.00  0.00    +0.000 A 
ATOM     21  N   UNL     1       6.812   4.790  19.196  0.00  0.00    +0.000 NA
ATOM     22  C   UNL     1       7.658   5.827  19.170  0.00  0.00    +0.000 A 
ATOM     23  C   UNL     1       7.767   6.688  18.108  0.00  0.00    +0.000 A 
ATOM     24  C   UNL     1       6.946   6.413  17.044  0.00  0.00    +0.000 A 
ATOM     25  N   UNL     1       6.078   5.385  17.021  0.00  0.00    +0.000 NA
ATOM     26  H   UNL     1       4.449   3.760  17.368  0.00  0.00    +0.000 HD
ENDBRANCH  18  19
ENDBRANCH   8  18
TORSDOF 4
ENDMDL
MODEL 6
REMARK VINA RESULT:      -7.2      0.578      1.064
REMARK  Name = 
REMARK  5 active torsions:
REMARK  status: ('A' for Active; 'I' for Inactive)
REMARK    1  A    between atoms: C_1  and  C_2
REMARK    2  A    between atoms: C_6  and  C_7
REMARK    3  A    between atoms: C_7  and  N_8
REMARK    4  A    between atoms: C_15  and  C_16
REMARK    5  A    between atoms: C_16  and  N_17
REMARK                            x       y       z     vdW  Elec       q    Type
REMARK                         _______ _______ _______ _____ _____    ______ ____
ROOT
ATOM      1  N   UNL     1       1.621   8.258  18.945  0.00  0.00    +0.000 NA
ATOM      2  C   UNL     1       1.632   7.845  20.347  0.00  0.00    +0.000 C 
ATOM      3  C   UNL     1       1.896   6.374  20.639  0.00  0.00    +0.000 C 
ATOM      4  C   UNL     1       2.944   5.717  19.733  0.00  0.00    +0.000 C 
ATOM      5  C   UNL     1       2.714   6.073  18.281  0.00  0.00    +0.000 C 
ATOM      6  C   UNL     1       1.547   5.168  17.928  0.00  0.00    +0.000 C 
ATOM      7  O   UNL     1       1.812   3.933  18.617  0.00  0.00    +0.000 OA
ATOM      8  C   UNL     1       2.715   4.203  19.722  0.00  0.00    +0.000 C 
ATOM      9  C   UNL     1       2.517   7.560  18.028  0.00  0.00    +0.000 C 
ENDROOT
BRANCH   1  10
ATOM     10  C   UNL     1       1.764   9.738  18.811  0.00  0.00    +0.000 C 
BRANCH  10  16
ATOM     11  C   UNL     1      -2.858   9.832  17.173  0.00  0.00    +0.000 C 
ATOM     12  C   UNL     1      -1.708  10.595  17.756  0.00  0.00    +0.000 A 
ATOM     13  C   UNL     1      -1.812  11.962  18.002  0.00  0.00    +0.000 A 
ATOM     14  C   UNL     1      -0.717  12.627  18.532  0.00  0.00    +0.000 A 
ATOM     15  C   UNL     1       0.444  11.913  18.812  0.00  0.00    +0.000 A 
ATOM     16  C   UNL     1       0.488  10.545  18.539  0.00  0.00    +0.000 A 
ATOM     17  N   UNL     1      -0.579   9.887  18.016  0.00  0.00    +0.000 NA
ENDBRANCH  10  16
ENDBRANCH   1  10
BRANCH   8  18
ATOM     18  C   UNL     1       4.001   3.392  19.537  0.00  0.00    +0.000 C 
BRANCH  18  19
ATOM     19  N   UNL     1       5.126   4.311  19.461  0.00  0.00    +0.000 N 
ATOM     20  C   UNL     1       5.767   4.331  18.240  0.00  0.00    +0.000 A 
ATOM     21  N   UNL     1       5.052   4.132  17.115  0.00  0.00    +0.000 NA
ATOM     22  C   UNL     1       5.725   4.150  15.958  0.00  0.00    +0.000 A 
ATOM     23  C   UNL     1       7.078   4.352  15.872  0.00  0.00    +0.000 A 
ATOM     24  C   UNL     1       7.718   4.551  17.070  0.00  0.00    +0.000 A 
ATOM     25  N   UNL     1       7.088   4.542  18.259  0.00  0.00    +0.000 NA
ATOM     26  H   UNL     1       5.831   4.148  20.178  0.00  0.00    +0.000 HD
ENDBRANCH  18  19
ENDBRANCH   8  18
TORSDOF 4
ENDMDL
MODEL 7
REMARK VINA RESULT:      -7.1      3.448      8.433
REMARK  Name = 
REMARK  5 active torsions:
REMARK  status: ('A' for Active; 'I' for Inactive)
REMARK    1  A    between atoms: C_1  and  C_2
REMARK    2  A    between atoms: C_6  and  C_7
REMARK    3  A    between atoms: C_7  and  N_8
REMARK    4  A    between atoms: C_15  and  C_16
REMARK    5  A    between atoms: C_16  and  N_17
REMARK                            x       y       z     vdW  Elec       q    Type
REMARK                         _______ _______ _______ _____ _____    ______ ____
ROOT
ATOM      1  N   UNL     1       1.880   7.634  19.319  0.00  0.00    +0.000 NA
ATOM      2  C   UNL     1       2.177   8.307  18.056  0.00  0.00    +0.000 C 
ATOM      3  C   UNL     1       1.522   9.661  17.815  0.00  0.00    +0.000 C 
ATOM      4  C   UNL     1       1.430  10.560  19.054  0.00  0.00    +0.000 C 
ATOM      5  C   UNL     1       0.932   9.788  20.256  0.00  0.00    +0.000 C 
ATOM      6  C   UNL     1      -0.555   9.696  19.963  0.00  0.00    +0.000 C 
ATOM      7  O   UNL     1      -0.900  10.969  19.388  0.00  0.00    +0.000 OA
ATOM      8  C   UNL     1       0.304  11.577  18.849  0.00  0.00    +0.000 C 
ATOM      9  C   UNL     1       1.657   8.472  20.494  0.00  0.00    +0.000 C 
ENDROOT
BRANCH   1  10
ATOM     10  C   UNL     1       2.870   6.557  19.609  0.00  0.00    +0.000 C 
BRANCH  10  16
ATOM     11  C   UNL     1       2.990   2.024  17.739  0.00  0.00    +0.000 C 
ATOM     12  C   UNL     1       2.401   2.959  18.751  0.00  0.00    +0.000 A 
ATOM     13  C   UNL     1       1.419   2.521  19.637  0.00  0.00    +0.000 A 
ATOM     14  C   UNL     1       0.895   3.426  20.547  0.00  0.00    +0.000 A 
ATOM     15  C   UNL     1       1.368   4.735  20.557  0.00  0.00    +0.000 A 
ATOM     16  C   UNL     1       2.350   5.114  19.640  0.00  0.00    +0.000 A 
ATOM     17  N   UNL     1       2.866   4.234  18.742  0.00  0.00    +0.000 NA
ENDBRANCH  10  16
ENDBRANCH   1  10
BRANCH   8  18
ATOM     18  C   UNL     1       0.554  12.916  19.550  0.00  0.00    +0.000 C 
BRANCH  18  19
ATOM     19  N   UNL     1       1.983  13.192  19.533  0.00  0.00    +0.000 N 
ATOM     20  C   UNL     1       2.331  14.359  18.886  0.00  0.00    +0.000 A 
ATOM     21  N   UNL     1       1.496  15.415  18.933  0.00  0.00    +0.000 NA
ATOM     22  C   UNL     1       1.878  16.519  18.278  0.00  0.00    +0.000 A 
ATOM     23  C   UNL     1       3.052  16.615  17.577  0.00  0.00    +0.000 A 
ATOM     24  C   UNL     1       3.838  15.490  17.593  0.00  0.00    +0.000 A 
ATOM     25  N   UNL     1       3.500  14.356  18.233  0.00  0.00    +0.000 NA
ATOM     26  H   UNL     1       2.537  12.437  19.131  0.00  0.00    +0.000 HD
ENDBRANCH  18  19
ENDBRANCH   8  18
TORSDOF 4
ENDMDL
MODEL 8
REMARK VINA RESULT:      -7.1      2.106      8.053
REMARK  Name = 
REMARK  5 active torsions:
REMARK  status: ('A' for Active; 'I' for Inactive)
REMARK    1  A    between atoms: C_1  and  C_2
REMARK    2  A    between atoms: C_6  and  C_7
REMARK    3  A    between atoms: C_7  and  N_8
REMARK    4  A    between atoms: C_15  and  C_16
REMARK    5  A    between atoms: C_16  and  N_17
REMARK                            x       y       z     vdW  Elec       q    Type
REMARK                         _______ _______ _______ _____ _____    ______ ____
ROOT
ATOM      1  N   UNL     1       5.876   4.426  17.214  0.00  0.00    +0.000 NA
ATOM      2  C   UNL     1       4.644   4.670  16.466  0.00  0.00    +0.000 C 
ATOM      3  C   UNL     1       3.344   4.714  17.258  0.00  0.00    +0.000 C 
ATOM      4  C   UNL     1       3.449   5.395  18.628  0.00  0.00    +0.000 C 
ATOM      5  C   UNL     1       4.670   4.920  19.385  0.00  0.00    +0.000 C 
ATOM      6  C   UNL     1       4.214   3.557  19.872  0.00  0.00    +0.000 C 
ATOM      7  O   UNL     1       2.831   3.733  20.229  0.00  0.00    +0.000 OA
ATOM      8  C   UNL     1       2.313   4.892  19.524  0.00  0.00    +0.000 C 
ATOM      9  C   UNL     1       5.956   4.952  18.573  0.00  0.00    +0.000 C 
ENDROOT
BRANCH   1  10
ATOM     10  C   UNL     1       7.080   4.809  16.419  0.00  0.00    +0.000 C 
BRANCH  10  16
ATOM     11  C   UNL     1       8.511   6.267  11.960  0.00  0.00    +0.000 C 
ATOM     12  C   UNL     1       7.677   5.327  12.775  0.00  0.00    +0.000 A 
ATOM     13  C   UNL     1       6.868   4.376  12.158  0.00  0.00    +0.000 A 
ATOM     14  C   UNL     1       6.105   3.535  12.954  0.00  0.00    +0.000 A 
ATOM     15  C   UNL     1       6.176   3.657  14.338  0.00  0.00    +0.000 A 
ATOM     16  C   UNL     1       7.003   4.633  14.898  0.00  0.00    +0.000 A 
ATOM     17  N   UNL     1       7.750   5.463  14.124  0.00  0.00    +0.000 NA
ENDBRANCH  10  16
ENDBRANCH   1  10
BRANCH   8  18
ATOM     18  C   UNL     1       1.830   5.932  20.540  0.00  0.00    +0.000 C 
BRANCH  18  19
ATOM     19  N   UNL     1       2.312   7.243  20.131  0.00  0.00    +0.000 N 
ATOM     20  C   UNL     1       1.427   8.274  20.364  0.00  0.00    +0.000 A 
ATOM     21  N   UNL     1       0.614   8.219  21.437  0.00  0.00    +0.000 NA
ATOM     22  C   UNL     1      -0.234   9.241  21.609  0.00  0.00    +0.000 A 
ATOM     23  C   UNL     1      -0.310  10.313  20.757  0.00  0.00    +0.000 A 
ATOM     24  C   UNL     1       0.561  10.282  19.697  0.00  0.00    +0.000 A 
ATOM     25  N   UNL     1       1.431   9.278  19.478  0.00  0.00    +0.000 NA
ATOM     26  H   UNL     1       2.588   7.286  19.152  0.00  0.00    +0.000 HD
ENDBRANCH  18  19
ENDBRANCH   8  18
TORSDOF 4
ENDMDL
MODEL 9
REMARK VINA RESULT:      -7.1      1.486      2.112
REMARK  Name = 
REMARK  5 active torsions:
REMARK  status: ('A' for Active; 'I' for Inactive)
REMARK    1  A    between atoms: C_1  and  C_2
REMARK    2  A    between atoms: C_6  and  C_7
REMARK    3  A    between atoms: C_7  and  N_8
REMARK    4  A    between atoms: C_15  and  C_16
REMARK    5  A    between atoms: C_16  and  N_17
REMARK                            x       y       z     vdW  Elec       q    Type
REMARK                         _______ _______ _______ _____ _____    ______ ____
ROOT
ATOM      1  N   UNL     1       1.427   7.593  20.154  0.00  0.00    +0.000 NA
ATOM      2  C   UNL     1       1.136   6.511  21.094  0.00  0.00    +0.000 C 
ATOM      3  C   UNL     1       1.639   5.120  20.734  0.00  0.00    +0.000 C 
ATOM      4  C   UNL     1       3.023   5.088  20.073  0.00  0.00    +0.000 C 
ATOM      5  C   UNL     1       3.137   6.135  18.988  0.00  0.00    +0.000 C 
ATOM      6  C   UNL     1       2.360   5.486  17.857  0.00  0.00    +0.000 C 
ATOM      7  O   UNL     1       2.697   4.089  17.928  0.00  0.00    +0.000 OA
ATOM      8  C   UNL     1       3.163   3.791  19.271  0.00  0.00    +0.000 C 
ATOM      9  C   UNL     1       2.682   7.523  19.412  0.00  0.00    +0.000 C 
ENDROOT
BRANCH   1  10
ATOM     10  C   UNL     1       1.256   8.931  20.793  0.00  0.00    +0.000 C 
BRANCH  10  16
ATOM     11  C   UNL     1       1.615  13.184  18.377  0.00  0.00    +0.000 C 
ATOM     12  C   UNL     1       0.740  12.049  18.816  0.00  0.00    +0.000 A 
ATOM     13  C   UNL     1      -0.615  12.029  18.493  0.00  0.00    +0.000 A 
ATOM     14  C   UNL     1      -1.386  10.964  18.932  0.00  0.00    +0.000 A 
ATOM     15  C   UNL     1      -0.788   9.945  19.666  0.00  0.00    +0.000 A 
ATOM     16  C   UNL     1       0.574  10.024  19.962  0.00  0.00    +0.000 A 
ATOM     17  N   UNL     1       1.336  11.068  19.539  0.00  0.00    +0.000 NA
ENDBRANCH  10  16
ENDBRANCH   1  10
BRANCH   8  18
ATOM     18  C   UNL     1       4.600   3.266  19.205  0.00  0.00    +0.000 C 
BRANCH  18  19
ATOM     19  N   UNL     1       5.190   3.677  17.939  0.00  0.00    +0.000 N 
ATOM     20  C   UNL     1       6.098   4.711  18.042  0.00  0.00    +0.000 A 
ATOM     21  N   UNL     1       6.865   4.810  19.145  0.00  0.00    +0.000 NA
ATOM     22  C   UNL     1       7.721   5.838  19.198  0.00  0.00    +0.000 A 
ATOM     23  C   UNL     1       7.843   6.773  18.203  0.00  0.00    +0.000 A 
ATOM     24  C   UNL     1       7.024   6.584  17.118  0.00  0.00    +0.000 A 
ATOM     25  N   UNL     1       6.147   5.569  17.016  0.00  0.00    +0.000 NA
ATOM     26  H   UNL     1       4.501   3.939  17.237  0.00  0.00    +0.000 HD
ENDBRANCH  18  19
ENDBRANCH   8  18
TORSDOF 4
ENDMDL
