MODEL 1
REMARK VINA RESULT:      -6.9      0.000      0.000
REMARK  Name = 
REMARK  5 active torsions:
REMARK  status: ('A' for Active; 'I' for Inactive)
REMARK    1  A    between atoms: C_2  and  C_3
REMARK    2  A    between atoms: C_6  and  N_7
REMARK    3  A    between atoms: C_14  and  O_15
REMARK    4  A    between atoms: O_15  and  C_16
REMARK    5  A    between atoms: C_16  and  C_17
REMARK                            x       y       z     vdW  Elec       q    Type
REMARK                         _______ _______ _______ _____ _____    ______ ____
ROOT
ATOM      1  C   UNL     1       3.965   6.089  18.390  0.00  0.00    +0.000 A 
ATOM      2  C   UNL     1       3.963   6.990  17.320  0.00  0.00    +0.000 A 
ATOM      3  C   UNL     1       4.919   6.886  16.309  0.00  0.00    +0.000 A 
ATOM      4  C   UNL     1       5.881   5.871  16.318  0.00  0.00    +0.000 A 
ATOM      5  C   UNL     1       5.874   4.977  17.398  0.00  0.00    +0.000 A 
ATOM      6  C   UNL     1       4.954   5.098  18.453  0.00  0.00    +0.000 A 
ENDROOT
BRANCH   4   7
ATOM      7  N   UNL     1       6.791   5.657  15.271  0.00  0.00    +0.000 N 
ATOM      8  C   UNL     1       6.585   4.888  14.177  0.00  0.00    +0.000 A 
ATOM      9  N   UNL     1       5.523   4.149  13.938  0.00  0.00    +0.000 NA
ATOM     10  C   UNL     1       5.664   3.462  12.757  0.00  0.00    +0.000 A 
ATOM     11  C   UNL     1       6.837   3.683  12.080  0.00  0.00    +0.000 A 
ATOM     12  S   UNL     1       7.811   4.781  12.963  0.00  0.00    +0.000 S 
ATOM     13  H   UNL     1       7.723   6.020  15.414  0.00  0.00    +0.000 HD
ENDBRANCH   4   7
BRANCH   1  15
ATOM     14  N   UNL     1       2.162   6.286  20.245  0.00  0.00    +0.000 NA
ATOM     15  C   UNL     1       2.947   6.215  19.392  0.00  0.00    +0.000 C 
ENDBRANCH   1  15
BRANCH   6  16
ATOM     16  O   UNL     1       4.969   4.275  19.557  0.00  0.00    +0.000 OA
BRANCH  16  17
ATOM     17  C   UNL     1       4.471   2.954  19.321  0.00  0.00    +0.000 C 
BRANCH  17  18
ATOM     18  C   UNL     1       3.096   2.813  19.871  0.00  0.00    +0.000 C 
ATOM     19  C   UNL     1       2.751   2.823  21.163  0.00  0.00    +0.000 C 
ATOM     20  C   UNL     1       1.279   2.708  21.351  0.00  0.00    +0.000 C 
ATOM     21  C   UNL     1       0.729   2.884  19.935  0.00  0.00    +0.000 C 
ATOM     22  C   UNL     1       1.906   2.696  18.976  0.00  0.00    +0.000 C 
ENDBRANCH  17  18
ENDBRANCH  16  17
ENDBRANCH   6  16
TORSDOF 5
ENDMDL
MODEL 2
REMARK VINA RESULT:      -6.8      3.789      6.648
REMARK  Name = 
REMARK  5 active torsions:
REMARK  status: ('A' for Active; 'I' for Inactive)
REMARK    1  A    between atoms: C_2  and  C_3
REMARK    2  A    between atoms: C_6  and  N_7
REMARK    3  A    between atoms: C_14  and  O_15
REMARK    4  A    between atoms: O_15  and  C_16
REMARK    5  A    between atoms: C_16  and  C_17
REMARK                            x       y       z     vdW  Elec       q    Type
REMARK                         _______ _______ _______ _____ _____    ______ ____
ROOT
ATOM      1  C   UNL     1       3.073   3.268  19.367  0.00  0.00    +0.000 A 
ATOM      2  C   UNL     1       1.749   3.474  19.767  0.00  0.00    +0.000 A 
ATOM      3  C   UNL     1       1.335   4.727  20.221  0.00  0.00    +0.000 A 
ATOM      4  C   UNL     1       2.215   5.813  20.261  0.00  0.00    +0.000 A 
ATOM      5  C   UNL     1       3.540   5.592  19.862  0.00  0.00    +0.000 A 
ATOM      6  C   UNL     1       3.990   4.324  19.454  0.00  0.00    +0.000 A 
ENDROOT
BRANCH   4   7
ATOM      7  N   UNL     1       1.822   7.116  20.603  0.00  0.00    +0.000 N 
ATOM      8  C   UNL     1       1.660   8.153  19.748  0.00  0.00    +0.000 A 
ATOM      9  N   UNL     1       1.913   8.138  18.457  0.00  0.00    +0.000 NA
ATOM     10  C   UNL     1       1.681   9.373  17.902  0.00  0.00    +0.000 A 
ATOM     11  C   UNL     1       1.238  10.339  18.771  0.00  0.00    +0.000 A 
ATOM     12  S   UNL     1       1.122   9.682  20.349  0.00  0.00    +0.000 S 
ATOM     13  H   UNL     1       1.771   7.318  21.591  0.00  0.00    +0.000 HD
ENDBRANCH   4   7
BRANCH   1  15
ATOM     14  N   UNL     1       3.798   0.921  18.534  0.00  0.00    +0.000 NA
ATOM     15  C   UNL     1       3.447   1.971  18.882  0.00  0.00    +0.000 C 
ENDBRANCH   1  15
BRANCH   6  16
ATOM     16  O   UNL     1       5.300   4.066  19.121  0.00  0.00    +0.000 OA
BRANCH  16  17
ATOM     17  C   UNL     1       5.670   4.472  17.800  0.00  0.00    +0.000 C 
BRANCH  17  18
ATOM     18  C   UNL     1       6.592   5.638  17.855  0.00  0.00    +0.000 C 
ATOM     19  C   UNL     1       6.486   6.771  17.154  0.00  0.00    +0.000 C 
ATOM     20  C   UNL     1       7.558   7.746  17.496  0.00  0.00    +0.000 C 
ATOM     21  C   UNL     1       8.213   7.127  18.731  0.00  0.00    +0.000 C 
ATOM     22  C   UNL     1       7.755   5.669  18.793  0.00  0.00    +0.000 C 
ENDBRANCH  17  18
ENDBRANCH  16  17
ENDBRANCH   6  16
TORSDOF 5
ENDMDL
MODEL 3
REMARK VINA RESULT:      -6.8      3.405      6.537
REMARK  Name = 
REMARK  5 active torsions:
REMARK  status: ('A' for Active; 'I' for Inactive)
REMARK    1  A    between atoms: C_2  and  C_3
REMARK    2  A    between atoms: C_6  and  N_7
REMARK    3  A    between atoms: C_14  and  O_15
REMARK    4  A    between atoms: O_15  and  C_16
REMARK    5  A    between atoms: C_16  and  C_17
REMARK                            x       y       z     vdW  Elec       q    Type
REMARK                         _______ _______ _______ _____ _____    ______ ____
ROOT
ATOM      1  C   UNL     1       3.090   3.300  19.381  0.00  0.00    +0.000 A 
ATOM      2  C   UNL     1       1.758   3.478  19.771  0.00  0.00    +0.000 A 
ATOM      3  C   UNL     1       1.318   4.718  20.237  0.00  0.00    +0.000 A 
ATOM      4  C   UNL     1       2.179   5.817  20.301  0.00  0.00    +0.000 A 
ATOM      5  C   UNL     1       3.512   5.625  19.911  0.00  0.00    +0.000 A 
ATOM      6  C   UNL     1       3.987   4.371  19.490  0.00  0.00    +0.000 A 
ENDROOT
BRANCH   4   7
ATOM      7  N   UNL     1       1.760   7.109  20.656  0.00  0.00    +0.000 N 
ATOM      8  C   UNL     1       1.609   8.160  19.817  0.00  0.00    +0.000 A 
ATOM      9  N   UNL     1       1.897   8.174  18.533  0.00  0.00    +0.000 NA
ATOM     10  C   UNL     1       1.665   9.416  17.996  0.00  0.00    +0.000 A 
ATOM     11  C   UNL     1       1.186  10.360  18.870  0.00  0.00    +0.000 A 
ATOM     12  S   UNL     1       1.035   9.671  20.431  0.00  0.00    +0.000 S 
ATOM     13  H   UNL     1       1.679   7.292  21.646  0.00  0.00    +0.000 HD
ENDBRANCH   4   7
BRANCH   1  15
ATOM     14  N   UNL     1       3.845   0.967  18.536  0.00  0.00    +0.000 NA
ATOM     15  C   UNL     1       3.490   2.017  18.882  0.00  0.00    +0.000 C 
ENDBRANCH   1  15
BRANCH   6  16
ATOM     16  O   UNL     1       5.305   4.140  19.167  0.00  0.00    +0.000 OA
BRANCH  16  17
ATOM     17  C   UNL     1       6.013   5.292  18.699  0.00  0.00    +0.000 C 
BRANCH  17  18
ATOM     18  C   UNL     1       6.195   5.224  17.224  0.00  0.00    +0.000 C 
ATOM     19  C   UNL     1       7.150   4.554  16.570  0.00  0.00    +0.000 C 
ATOM     20  C   UNL     1       7.001   4.664  15.093  0.00  0.00    +0.000 C 
ATOM     21  C   UNL     1       5.626   5.311  14.926  0.00  0.00    +0.000 C 
ATOM     22  C   UNL     1       5.240   5.891  16.288  0.00  0.00    +0.000 C 
ENDBRANCH  17  18
ENDBRANCH  16  17
ENDBRANCH   6  16
TORSDOF 5
ENDMDL
MODEL 4
REMARK VINA RESULT:      -6.5      3.760      7.255
REMARK  Name = 
REMARK  5 active torsions:
REMARK  status: ('A' for Active; 'I' for Inactive)
REMARK    1  A    between atoms: C_2  and  C_3
REMARK    2  A    between atoms: C_6  and  N_7
REMARK    3  A    between atoms: C_14  and  O_15
REMARK    4  A    between atoms: O_15  and  C_16
REMARK    5  A    between atoms: C_16  and  C_17
REMARK                            x       y       z     vdW  Elec       q    Type
REMARK                         _______ _______ _______ _____ _____    ______ ____
ROOT
ATOM      1  C   UNL     1       6.042   5.252  15.793  0.00  0.00    +0.000 A 
ATOM      2  C   UNL     1       5.218   4.122  15.786  0.00  0.00    +0.000 A 
ATOM      3  C   UNL     1       4.170   4.007  16.701  0.00  0.00    +0.000 A 
ATOM      4  C   UNL     1       3.896   5.021  17.624  0.00  0.00    +0.000 A 
ATOM      5  C   UNL     1       4.731   6.146  17.623  0.00  0.00    +0.000 A 
ATOM      6  C   UNL     1       5.824   6.256  16.746  0.00  0.00    +0.000 A 
ENDROOT
BRANCH   4   7
ATOM      7  N   UNL     1       2.790   5.003  18.488  0.00  0.00    +0.000 N 
ATOM      8  C   UNL     1       2.635   4.205  19.571  0.00  0.00    +0.000 A 
ATOM      9  N   UNL     1       3.461   3.259  19.962  0.00  0.00    +0.000 NA
ATOM     10  C   UNL     1       2.973   2.616  21.073  0.00  0.00    +0.000 A 
ATOM     11  C   UNL     1       1.770   3.078  21.545  0.00  0.00    +0.000 A 
ATOM     12  S   UNL     1       1.217   4.358  20.549  0.00  0.00    +0.000 S 
ATOM     13  H   UNL     1       1.994   5.553  18.200  0.00  0.00    +0.000 HD
ENDBRANCH   4   7
BRANCH   1  15
ATOM     14  N   UNL     1       7.915   5.474  14.013  0.00  0.00    +0.000 NA
ATOM     15  C   UNL     1       7.088   5.341  14.816  0.00  0.00    +0.000 C 
ENDBRANCH   1  15
BRANCH   6  16
ATOM     16  O   UNL     1       6.699   7.319  16.770  0.00  0.00    +0.000 OA
BRANCH  16  17
ATOM     17  C   UNL     1       7.716   7.230  17.773  0.00  0.00    +0.000 C 
BRANCH  17  18
ATOM     18  C   UNL     1       8.180   8.588  18.162  0.00  0.00    +0.000 C 
ATOM     19  C   UNL     1       8.995   8.891  19.178  0.00  0.00    +0.000 C 
ATOM     20  C   UNL     1       9.290  10.348  19.246  0.00  0.00    +0.000 C 
ATOM     21  C   UNL     1       8.721  10.883  17.932  0.00  0.00    +0.000 C 
ATOM     22  C   UNL     1       7.797   9.799  17.374  0.00  0.00    +0.000 C 
ENDBRANCH  17  18
ENDBRANCH  16  17
ENDBRANCH   6  16
TORSDOF 5
ENDMDL
MODEL 5
REMARK VINA RESULT:      -6.5      2.422      4.525
REMARK  Name = 
REMARK  5 active torsions:
REMARK  status: ('A' for Active; 'I' for Inactive)
REMARK    1  A    between atoms: C_2  and  C_3
REMARK    2  A    between atoms: C_6  and  N_7
REMARK    3  A    between atoms: C_14  and  O_15
REMARK    4  A    between atoms: O_15  and  C_16
REMARK    5  A    between atoms: C_16  and  C_17
REMARK                            x       y       z     vdW  Elec       q    Type
REMARK                         _______ _______ _______ _____ _____    ______ ____
ROOT
ATOM      1  C   UNL     1       2.091   3.084  19.944  0.00  0.00    +0.000 A 
ATOM      2  C   UNL     1       2.519   1.991  19.183  0.00  0.00    +0.000 A 
ATOM      3  C   UNL     1       3.064   2.186  17.913  0.00  0.00    +0.000 A 
ATOM      4  C   UNL     1       3.225   3.469  17.380  0.00  0.00    +0.000 A 
ATOM      5  C   UNL     1       2.789   4.554  18.151  0.00  0.00    +0.000 A 
ATOM      6  C   UNL     1       2.188   4.375  19.409  0.00  0.00    +0.000 A 
ENDROOT
BRANCH   4   7
ATOM      7  N   UNL     1       3.867   3.724  16.158  0.00  0.00    +0.000 N 
ATOM      8  C   UNL     1       5.155   4.109  15.996  0.00  0.00    +0.000 A 
ATOM      9  N   UNL     1       6.009   4.378  16.960  0.00  0.00    +0.000 NA
ATOM     10  C   UNL     1       7.215   4.782  16.441  0.00  0.00    +0.000 A 
ATOM     11  C   UNL     1       7.291   4.812  15.071  0.00  0.00    +0.000 A 
ATOM     12  S   UNL     1       5.788   4.333  14.403  0.00  0.00    +0.000 S 
ATOM     13  H   UNL     1       3.275   3.734  15.340  0.00  0.00    +0.000 HD
ENDBRANCH   4   7
BRANCH   1  15
ATOM     14  N   UNL     1       1.187   2.599  22.327  0.00  0.00    +0.000 NA
ATOM     15  C   UNL     1       1.564   2.838  21.255  0.00  0.00    +0.000 C 
ENDBRANCH   1  15
BRANCH   6  16
ATOM     16  O   UNL     1       1.690   5.418  20.156  0.00  0.00    +0.000 OA
BRANCH  16  17
ATOM     17  C   UNL     1       2.568   6.543  20.267  0.00  0.00    +0.000 C 
BRANCH  17  18
ATOM     18  C   UNL     1       1.955   7.743  19.638  0.00  0.00    +0.000 C 
ATOM     19  C   UNL     1       1.199   8.663  20.247  0.00  0.00    +0.000 C 
ATOM     20  C   UNL     1       0.794   9.758  19.324  0.00  0.00    +0.000 C 
ATOM     21  C   UNL     1       1.646   9.501  18.081  0.00  0.00    +0.000 C 
ATOM     22  C   UNL     1       2.188   8.076  18.200  0.00  0.00    +0.000 C 
ENDBRANCH  17  18
ENDBRANCH  16  17
ENDBRANCH   6  16
TORSDOF 5
ENDMDL
MODEL 6
REMARK VINA RESULT:      -6.5      3.348      5.642
REMARK  Name = 
REMARK  5 active torsions:
REMARK  status: ('A' for Active; 'I' for Inactive)
REMARK    1  A    between atoms: C_2  and  C_3
REMARK    2  A    between atoms: C_6  and  N_7
REMARK    3  A    between atoms: C_14  and  O_15
REMARK    4  A    between atoms: O_15  and  C_16
REMARK    5  A    between atoms: C_16  and  C_17
REMARK                            x       y       z     vdW  Elec       q    Type
REMARK                         _______ _______ _______ _____ _____    ______ ____
ROOT
ATOM      1  C   UNL     1       4.457   5.161  16.694  0.00  0.00    +0.000 A 
ATOM      2  C   UNL     1       4.827   6.497  16.877  0.00  0.00    +0.000 A 
ATOM      3  C   UNL     1       4.102   7.319  17.741  0.00  0.00    +0.000 A 
ATOM      4  C   UNL     1       3.011   6.829  18.466  0.00  0.00    +0.000 A 
ATOM      5  C   UNL     1       2.648   5.489  18.271  0.00  0.00    +0.000 A 
ATOM      6  C   UNL     1       3.333   4.661  17.364  0.00  0.00    +0.000 A 
ENDROOT
BRANCH   4   7
ATOM      7  N   UNL     1       2.320   7.581  19.427  0.00  0.00    +0.000 N 
ATOM      8  C   UNL     1       1.487   8.620  19.183  0.00  0.00    +0.000 A 
ATOM      9  N   UNL     1       1.236   9.151  18.005  0.00  0.00    +0.000 NA
ATOM     10  C   UNL     1       0.380  10.218  18.126  0.00  0.00    +0.000 A 
ATOM     11  C   UNL     1      -0.037  10.503  19.402  0.00  0.00    +0.000 A 
ATOM     12  S   UNL     1       0.683   9.402  20.499  0.00  0.00    +0.000 S 
ATOM     13  H   UNL     1       2.563   7.400  20.391  0.00  0.00    +0.000 HD
ENDBRANCH   4   7
BRANCH   1  15
ATOM     14  N   UNL     1       5.863   3.634  15.138  0.00  0.00    +0.000 NA
ATOM     15  C   UNL     1       5.248   4.346  15.818  0.00  0.00    +0.000 C 
ENDBRANCH   1  15
BRANCH   6  16
ATOM     16  O   UNL     1       2.955   3.363  17.104  0.00  0.00    +0.000 OA
BRANCH  16  17
ATOM     17  C   UNL     1       3.497   2.394  18.007  0.00  0.00    +0.000 C 
BRANCH  17  18
ATOM     18  C   UNL     1       2.812   2.473  19.325  0.00  0.00    +0.000 C 
ATOM     19  C   UNL     1       3.393   2.660  20.515  0.00  0.00    +0.000 C 
ATOM     20  C   UNL     1       2.398   2.738  21.619  0.00  0.00    +0.000 C 
ATOM     21  C   UNL     1       1.062   2.826  20.882  0.00  0.00    +0.000 C 
ATOM     22  C   UNL     1       1.324   2.401  19.436  0.00  0.00    +0.000 C 
ENDBRANCH  17  18
ENDBRANCH  16  17
ENDBRANCH   6  16
TORSDOF 5
ENDMDL
MODEL 7
REMARK VINA RESULT:      -6.4      4.509      6.755
REMARK  Name = 
REMARK  5 active torsions:
REMARK  status: ('A' for Active; 'I' for Inactive)
REMARK    1  A    between atoms: C_2  and  C_3
REMARK    2  A    between atoms: C_6  and  N_7
REMARK    3  A    between atoms: C_14  and  O_15
REMARK    4  A    between atoms: O_15  and  C_16
REMARK    5  A    between atoms: C_16  and  C_17
REMARK                            x       y       z     vdW  Elec       q    Type
REMARK                         _______ _______ _______ _____ _____    ______ ____
ROOT
ATOM      1  C   UNL     1       3.206   6.941  18.460  0.00  0.00    +0.000 A 
ATOM      2  C   UNL     1       3.027   8.017  17.584  0.00  0.00    +0.000 A 
ATOM      3  C   UNL     1       2.127   9.038  17.896  0.00  0.00    +0.000 A 
ATOM      4  C   UNL     1       1.405   9.031  19.093  0.00  0.00    +0.000 A 
ATOM      5  C   UNL     1       1.592   7.945  19.960  0.00  0.00    +0.000 A 
ATOM      6  C   UNL     1       2.452   6.881  19.639  0.00  0.00    +0.000 A 
ENDROOT
BRANCH   4   7
ATOM      7  N   UNL     1       0.574  10.085  19.502  0.00  0.00    +0.000 N 
ATOM      8  C   UNL     1      -0.580  10.470  18.908  0.00  0.00    +0.000 A 
ATOM      9  N   UNL     1      -1.086   9.970  17.802  0.00  0.00    +0.000 NA
ATOM     10  C   UNL     1      -2.243  10.624  17.457  0.00  0.00    +0.000 A 
ATOM     11  C   UNL     1      -2.633  11.627  18.309  0.00  0.00    +0.000 A 
ATOM     12  S   UNL     1      -1.499  11.769  19.585  0.00  0.00    +0.000 S 
ATOM     13  H   UNL     1       0.937  10.677  20.236  0.00  0.00    +0.000 HD
ENDBRANCH   4   7
BRANCH   1  15
ATOM     14  N   UNL     1       4.890   5.084  17.793  0.00  0.00    +0.000 NA
ATOM     15  C   UNL     1       4.162   5.930  18.113  0.00  0.00    +0.000 C 
ENDBRANCH   1  15
BRANCH   6  16
ATOM     16  O   UNL     1       2.602   5.772  20.441  0.00  0.00    +0.000 OA
BRANCH  16  17
ATOM     17  C   UNL     1       1.537   4.820  20.343  0.00  0.00    +0.000 C 
BRANCH  17  18
ATOM     18  C   UNL     1       1.960   3.652  19.526  0.00  0.00    +0.000 C 
ATOM     19  C   UNL     1       1.572   3.371  18.277  0.00  0.00    +0.000 C 
ATOM     20  C   UNL     1       2.232   2.148  17.746  0.00  0.00    +0.000 C 
ATOM     21  C   UNL     1       3.307   1.848  18.790  0.00  0.00    +0.000 C 
ATOM     22  C   UNL     1       2.955   2.661  20.037  0.00  0.00    +0.000 C 
ENDBRANCH  17  18
ENDBRANCH  16  17
ENDBRANCH   6  16
TORSDOF 5
ENDMDL
MODEL 8
REMARK VINA RESULT:      -6.3      4.105      5.461
REMARK  Name = 
REMARK  5 active torsions:
REMARK  status: ('A' for Active; 'I' for Inactive)
REMARK    1  A    between atoms: C_2  and  C_3
REMARK    2  A    between atoms: C_6  and  N_7
REMARK    3  A    between atoms: C_14  and  O_15
REMARK    4  A    between atoms: O_15  and  C_16
REMARK    5  A    between atoms: C_16  and  C_17
REMARK                            x       y       z     vdW  Elec       q    Type
REMARK                         _______ _______ _______ _____ _____    ______ ____
ROOT
ATOM      1  C   UNL     1       6.330   5.517  18.550  0.00  0.00    +0.000 A 
ATOM      2  C   UNL     1       7.608   5.793  19.046  0.00  0.00    +0.000 A 
ATOM      3  C   UNL     1       8.266   6.970  18.686  0.00  0.00    +0.000 A 
ATOM      4  C   UNL     1       7.661   7.914  17.850  0.00  0.00    +0.000 A 
ATOM      5  C   UNL     1       6.382   7.623  17.357  0.00  0.00    +0.000 A 
ATOM      6  C   UNL     1       5.726   6.419  17.665  0.00  0.00    +0.000 A 
ENDROOT
BRANCH   4   7
ATOM      7  N   UNL     1       8.234   9.159  17.549  0.00  0.00    +0.000 N 
ATOM      8  C   UNL     1       8.836   9.996  18.426  0.00  0.00    +0.000 A 
ATOM      9  N   UNL     1       8.926   9.821  19.726  0.00  0.00    +0.000 NA
ATOM     10  C   UNL     1       9.561  10.886  20.318  0.00  0.00    +0.000 A 
ATOM     11  C   UNL     1       9.970  11.880  19.465  0.00  0.00    +0.000 A 
ATOM     12  S   UNL     1       9.528  11.476  17.860  0.00  0.00    +0.000 S 
ATOM     13  H   UNL     1       8.073   9.506  16.614  0.00  0.00    +0.000 HD
ENDBRANCH   4   7
BRANCH   1  15
ATOM     14  N   UNL     1       5.205   3.319  19.349  0.00  0.00    +0.000 NA
ATOM     15  C   UNL     1       5.680   4.309  18.969  0.00  0.00    +0.000 C 
ENDBRANCH   1  15
BRANCH   6  16
ATOM     16  O   UNL     1       4.499   6.080  17.140  0.00  0.00    +0.000 OA
BRANCH  16  17
ATOM     17  C   UNL     1       3.384   6.706  17.782  0.00  0.00    +0.000 C 
BRANCH  17  18
ATOM     18  C   UNL     1       2.639   5.717  18.606  0.00  0.00    +0.000 C 
ATOM     19  C   UNL     1       2.334   5.830  19.903  0.00  0.00    +0.000 C 
ATOM     20  C   UNL     1       1.536   4.674  20.395  0.00  0.00    +0.000 C 
ATOM     21  C   UNL     1       1.168   3.930  19.112  0.00  0.00    +0.000 C 
ATOM     22  C   UNL     1       2.088   4.462  18.011  0.00  0.00    +0.000 C 
ENDBRANCH  17  18
ENDBRANCH  16  17
ENDBRANCH   6  16
TORSDOF 5
ENDMDL
MODEL 9
REMARK VINA RESULT:      -6.2      4.808      7.444
REMARK  Name = 
REMARK  5 active torsions:
REMARK  status: ('A' for Active; 'I' for Inactive)
REMARK    1  A    between atoms: C_2  and  C_3
REMARK    2  A    between atoms: C_6  and  N_7
REMARK    3  A    between atoms: C_14  and  O_15
REMARK    4  A    between atoms: O_15  and  C_16
REMARK    5  A    between atoms: C_16  and  C_17
REMARK                            x       y       z     vdW  Elec       q    Type
REMARK                         _______ _______ _______ _____ _____    ______ ____
ROOT
ATOM      1  C   UNL     1       2.773   7.630  18.242  0.00  0.00    +0.000 A 
ATOM      2  C   UNL     1       2.124   8.732  17.676  0.00  0.00    +0.000 A 
ATOM      3  C   UNL     1       1.208   9.472  18.424  0.00  0.00    +0.000 A 
ATOM      4  C   UNL     1       0.935   9.156  19.758  0.00  0.00    +0.000 A 
ATOM      5  C   UNL     1       1.588   8.047  20.312  0.00  0.00    +0.000 A 
ATOM      6  C   UNL     1       2.474   7.256  19.559  0.00  0.00    +0.000 A 
ENDROOT
BRANCH   4   7
ATOM      7  N   UNL     1       0.108   9.933  20.584  0.00  0.00    +0.000 N 
ATOM      8  C   UNL     1       0.283  11.240  20.889  0.00  0.00    +0.000 A 
ATOM      9  N   UNL     1       1.298  11.992  20.521  0.00  0.00    +0.000 NA
ATOM     10  C   UNL     1       1.181  13.257  21.042  0.00  0.00    +0.000 A 
ATOM     11  C   UNL     1       0.063  13.482  21.806  0.00  0.00    +0.000 A 
ATOM     12  S   UNL     1      -0.871  12.048  21.891  0.00  0.00    +0.000 S 
ATOM     13  H   UNL     1      -0.613   9.434  21.085  0.00  0.00    +0.000 HD
ENDBRANCH   4   7
BRANCH   1  15
ATOM     14  N   UNL     1       4.537   6.328  16.854  0.00  0.00    +0.000 NA
ATOM     15  C   UNL     1       3.728   6.915  17.445  0.00  0.00    +0.000 C 
ENDBRANCH   1  15
BRANCH   6  16
ATOM     16  O   UNL     1       3.076   6.124  20.058  0.00  0.00    +0.000 OA
BRANCH  16  17
ATOM     17  C   UNL     1       2.186   5.218  20.717  0.00  0.00    +0.000 C 
BRANCH  17  18
ATOM     18  C   UNL     1       1.906   4.043  19.849  0.00  0.00    +0.000 C 
ATOM     19  C   UNL     1       0.773   3.333  19.811  0.00  0.00    +0.000 C 
ATOM     20  C   UNL     1       0.821   2.254  18.787  0.00  0.00    +0.000 C 
ATOM     21  C   UNL     1       2.093   2.573  18.001  0.00  0.00    +0.000 C 
ATOM     22  C   UNL     1       2.902   3.559  18.846  0.00  0.00    +0.000 C 
ENDBRANCH  17  18
ENDBRANCH  16  17
ENDBRANCH   6  16
TORSDOF 5
ENDMDL
