MODEL 1
REMARK VINA RESULT:      -7.0      0.000      0.000
REMARK  Name = 
REMARK  4 active torsions:
REMARK  status: ('A' for Active; 'I' for Inactive)
REMARK    1  A    between atoms: C_1  and  O_2
REMARK    2  A    between atoms: O_2  and  C_3
REMARK    3  A    between atoms: C_7  and  C_8
REMARK    4  A    between atoms: C_8  and  C_9
REMARK                            x       y       z     vdW  Elec       q    Type
REMARK                         _______ _______ _______ _____ _____    ______ ____
ROOT
ATOM      1  C   UNL     1       2.885   5.761  17.756  0.00  0.00    +0.000 C 
ENDROOT
BRANCH   1   2
ATOM      2  C   UNL     1       1.875   4.643  17.996  0.00  0.00    +0.000 C 
ATOM      3  O   UNL     1       1.279   4.080  17.079  0.00  0.00    +0.000 OA
ATOM      4  N   UNL     1       1.720   4.240  19.319  0.00  0.00    +0.000 N 
ATOM      5  C   UNL     1       0.921   3.051  19.615  0.00  0.00    +0.000 C 
ATOM      6  C   UNL     1       1.588   2.221  20.728  0.00  0.00    +0.000 C 
ATOM      7  N   UNL     1       1.839   3.005  21.952  0.00  0.00    +0.000 NA
ATOM      8  C   UNL     1       2.613   4.219  21.640  0.00  0.00    +0.000 C 
ATOM      9  C   UNL     1       2.006   5.060  20.501  0.00  0.00    +0.000 C 
ATOM     10  H   UNL     1       2.369   2.431  22.609  0.00  0.00    +0.000 HD
ENDBRANCH   1   2
BRANCH   1  15
ATOM     11  C   UNL     1       6.554   5.909  16.696  0.00  0.00    +0.000 A 
ATOM     12  C   UNL     1       6.716   4.657  16.089  0.00  0.00    +0.000 A 
ATOM     13  C   UNL     1       5.651   3.760  16.035  0.00  0.00    +0.000 A 
ATOM     14  C   UNL     1       4.412   4.101  16.586  0.00  0.00    +0.000 A 
ATOM     15  C   UNL     1       4.231   5.342  17.206  0.00  0.00    +0.000 A 
ATOM     16  C   UNL     1       5.314   6.236  17.250  0.00  0.00    +0.000 A 
BRANCH  11  18
ATOM     17  C   UNL     1       7.639   7.812  17.599  0.00  0.00    +0.000 C 
ATOM     18  O   UNL     1       7.653   6.726  16.678  0.00  0.00    +0.000 OA
ENDBRANCH  11  18
ENDBRANCH   1  15
TORSDOF 3
ENDMDL
MODEL 2
REMARK VINA RESULT:      -6.7      1.237      1.831
REMARK  Name = 
REMARK  4 active torsions:
REMARK  status: ('A' for Active; 'I' for Inactive)
REMARK    1  A    between atoms: C_1  and  O_2
REMARK    2  A    between atoms: O_2  and  C_3
REMARK    3  A    between atoms: C_7  and  C_8
REMARK    4  A    between atoms: C_8  and  C_9
REMARK                            x       y       z     vdW  Elec       q    Type
REMARK                         _______ _______ _______ _____ _____    ______ ____
ROOT
ATOM      1  C   UNL     1       2.892   5.791  17.798  0.00  0.00    +0.000 C 
ENDROOT
BRANCH   1   2
ATOM      2  C   UNL     1       1.929   4.622  17.976  0.00  0.00    +0.000 C 
ATOM      3  O   UNL     1       1.420   4.031  17.025  0.00  0.00    +0.000 OA
ATOM      4  N   UNL     1       1.714   4.208  19.287  0.00  0.00    +0.000 N 
ATOM      5  C   UNL     1       0.962   2.978  19.534  0.00  0.00    +0.000 C 
ATOM      6  C   UNL     1       1.601   2.181  20.686  0.00  0.00    +0.000 C 
ATOM      7  N   UNL     1       1.736   2.973  21.924  0.00  0.00    +0.000 NA
ATOM      8  C   UNL     1       2.464   4.226  21.658  0.00  0.00    +0.000 C 
ATOM      9  C   UNL     1       1.884   5.038  20.484  0.00  0.00    +0.000 C 
ATOM     10  H   UNL     1       2.254   2.426  22.612  0.00  0.00    +0.000 HD
ENDBRANCH   1   2
BRANCH   1  15
ATOM     11  C   UNL     1       6.247   4.522  16.478  0.00  0.00    +0.000 A 
ATOM     12  C   UNL     1       7.062   4.672  17.607  0.00  0.00    +0.000 A 
ATOM     13  C   UNL     1       6.537   5.196  18.787  0.00  0.00    +0.000 A 
ATOM     14  C   UNL     1       5.193   5.576  18.854  0.00  0.00    +0.000 A 
ATOM     15  C   UNL     1       4.364   5.445  17.734  0.00  0.00    +0.000 A 
ATOM     16  C   UNL     1       4.908   4.913  16.553  0.00  0.00    +0.000 A 
BRANCH  11  18
ATOM     17  C   UNL     1       6.831   4.774  14.196  0.00  0.00    +0.000 C 
ATOM     18  O   UNL     1       6.851   3.978  15.376  0.00  0.00    +0.000 OA
ENDBRANCH  11  18
ENDBRANCH   1  15
TORSDOF 3
ENDMDL
MODEL 3
REMARK VINA RESULT:      -6.7      1.589      2.062
REMARK  Name = 
REMARK  4 active torsions:
REMARK  status: ('A' for Active; 'I' for Inactive)
REMARK    1  A    between atoms: C_1  and  O_2
REMARK    2  A    between atoms: O_2  and  C_3
REMARK    3  A    between atoms: C_7  and  C_8
REMARK    4  A    between atoms: C_8  and  C_9
REMARK                            x       y       z     vdW  Elec       q    Type
REMARK                         _______ _______ _______ _____ _____    ______ ____
ROOT
ATOM      1  C   UNL     1       3.835   5.582  17.483  0.00  0.00    +0.000 C 
ENDROOT
BRANCH   1   2
ATOM      2  C   UNL     1       3.428   4.113  17.550  0.00  0.00    +0.000 C 
ATOM      3  O   UNL     1       3.962   3.244  16.862  0.00  0.00    +0.000 OA
ATOM      4  N   UNL     1       2.461   3.796  18.499  0.00  0.00    +0.000 N 
ATOM      5  C   UNL     1       2.154   2.390  18.764  0.00  0.00    +0.000 C 
ATOM      6  C   UNL     1       1.948   2.162  20.272  0.00  0.00    +0.000 C 
ATOM      7  N   UNL     1       0.915   3.043  20.848  0.00  0.00    +0.000 NA
ATOM      8  C   UNL     1       1.213   4.454  20.547  0.00  0.00    +0.000 C 
ATOM      9  C   UNL     1       1.469   4.724  19.051  0.00  0.00    +0.000 C 
ATOM     10  H   UNL     1       0.897   2.915  21.861  0.00  0.00    +0.000 HD
ENDBRANCH   1   2
BRANCH   1  15
ATOM     11  C   UNL     1       7.270   7.243  17.705  0.00  0.00    +0.000 A 
ATOM     12  C   UNL     1       7.878   6.484  18.713  0.00  0.00    +0.000 A 
ATOM     13  C   UNL     1       7.180   5.449  19.331  0.00  0.00    +0.000 A 
ATOM     14  C   UNL     1       5.866   5.159  18.952  0.00  0.00    +0.000 A 
ATOM     15  C   UNL     1       5.234   5.913  17.955  0.00  0.00    +0.000 A 
ATOM     16  C   UNL     1       5.954   6.951  17.340  0.00  0.00    +0.000 A 
BRANCH  11  18
ATOM     17  C   UNL     1       8.325   9.348  17.973  0.00  0.00    +0.000 C 
ATOM     18  O   UNL     1       8.047   8.222  17.146  0.00  0.00    +0.000 OA
ENDBRANCH  11  18
ENDBRANCH   1  15
TORSDOF 3
ENDMDL
MODEL 4
REMARK VINA RESULT:      -6.7      1.286      2.083
REMARK  Name = 
REMARK  4 active torsions:
REMARK  status: ('A' for Active; 'I' for Inactive)
REMARK    1  A    between atoms: C_1  and  O_2
REMARK    2  A    between atoms: O_2  and  C_3
REMARK    3  A    between atoms: C_7  and  C_8
REMARK    4  A    between atoms: C_8  and  C_9
REMARK                            x       y       z     vdW  Elec       q    Type
REMARK                         _______ _______ _______ _____ _____    ______ ____
ROOT
ATOM      1  C   UNL     1       3.294   3.535  16.994  0.00  0.00    +0.000 C 
ENDROOT
BRANCH   1   2
ATOM      2  C   UNL     1       2.115   3.900  17.890  0.00  0.00    +0.000 C 
ATOM      3  O   UNL     1       1.045   4.311  17.444  0.00  0.00    +0.000 OA
ATOM      4  N   UNL     1       2.292   3.667  19.251  0.00  0.00    +0.000 N 
ATOM      5  C   UNL     1       1.150   3.805  20.155  0.00  0.00    +0.000 C 
ATOM      6  C   UNL     1       1.166   2.687  21.213  0.00  0.00    +0.000 C 
ATOM      7  N   UNL     1       2.432   2.634  21.969  0.00  0.00    +0.000 NA
ATOM      8  C   UNL     1       3.579   2.530  21.050  0.00  0.00    +0.000 C 
ATOM      9  C   UNL     1       3.582   3.605  19.946  0.00  0.00    +0.000 C 
ATOM     10  H   UNL     1       2.418   1.816  22.579  0.00  0.00    +0.000 HD
ENDBRANCH   1   2
BRANCH   1  15
ATOM     11  C   UNL     1       6.437   5.326  15.762  0.00  0.00    +0.000 A 
ATOM     12  C   UNL     1       6.284   6.588  16.352  0.00  0.00    +0.000 A 
ATOM     13  C   UNL     1       5.164   6.867  17.132  0.00  0.00    +0.000 A 
ATOM     14  C   UNL     1       4.183   5.892  17.333  0.00  0.00    +0.000 A 
ATOM     15  C   UNL     1       4.310   4.628  16.744  0.00  0.00    +0.000 A 
ATOM     16  C   UNL     1       5.447   4.362  15.962  0.00  0.00    +0.000 A 
BRANCH  11  18
ATOM     17  C   UNL     1       7.405   4.892  13.643  0.00  0.00    +0.000 C 
ATOM     18  O   UNL     1       7.582   5.144  15.033  0.00  0.00    +0.000 OA
ENDBRANCH  11  18
ENDBRANCH   1  15
TORSDOF 3
ENDMDL
MODEL 5
REMARK VINA RESULT:      -6.7      2.266      3.070
REMARK  Name = 
REMARK  4 active torsions:
REMARK  status: ('A' for Active; 'I' for Inactive)
REMARK    1  A    between atoms: C_1  and  O_2
REMARK    2  A    between atoms: O_2  and  C_3
REMARK    3  A    between atoms: C_7  and  C_8
REMARK    4  A    between atoms: C_8  and  C_9
REMARK                            x       y       z     vdW  Elec       q    Type
REMARK                         _______ _______ _______ _____ _____    ______ ____
ROOT
ATOM      1  C   UNL     1       4.338   5.148  18.039  0.00  0.00    +0.000 C 
ENDROOT
BRANCH   1   2
ATOM      2  C   UNL     1       4.462   4.007  19.044  0.00  0.00    +0.000 C 
ATOM      3  O   UNL     1       5.549   3.573  19.425  0.00  0.00    +0.000 OA
ATOM      4  N   UNL     1       3.265   3.530  19.570  0.00  0.00    +0.000 N 
ATOM      5  C   UNL     1       3.302   2.575  20.678  0.00  0.00    +0.000 C 
ATOM      6  C   UNL     1       2.199   2.900  21.702  0.00  0.00    +0.000 C 
ATOM      7  N   UNL     1       0.854   2.953  21.097  0.00  0.00    +0.000 NA
ATOM      8  C   UNL     1       0.836   3.890  19.960  0.00  0.00    +0.000 C 
ATOM      9  C   UNL     1       1.951   3.629  18.928  0.00  0.00    +0.000 C 
ATOM     10  H   UNL     1       0.187   3.269  21.801  0.00  0.00    +0.000 HD
ENDBRANCH   1   2
BRANCH   1  15
ATOM     11  C   UNL     1       5.729   4.288  14.585  0.00  0.00    +0.000 A 
ATOM     12  C   UNL     1       7.004   4.864  14.650  0.00  0.00    +0.000 A 
ATOM     13  C   UNL     1       7.411   5.542  15.797  0.00  0.00    +0.000 A 
ATOM     14  C   UNL     1       6.550   5.653  16.893  0.00  0.00    +0.000 A 
ATOM     15  C   UNL     1       5.267   5.095  16.846  0.00  0.00    +0.000 A 
ATOM     16  C   UNL     1       4.874   4.412  15.682  0.00  0.00    +0.000 A 
BRANCH  11  18
ATOM     17  C   UNL     1       6.447   3.637  12.423  0.00  0.00    +0.000 C 
ATOM     18  O   UNL     1       5.434   3.626  13.423  0.00  0.00    +0.000 OA
ENDBRANCH  11  18
ENDBRANCH   1  15
TORSDOF 3
ENDMDL
MODEL 6
REMARK VINA RESULT:      -6.6      2.739      6.134
REMARK  Name = 
REMARK  4 active torsions:
REMARK  status: ('A' for Active; 'I' for Inactive)
REMARK    1  A    between atoms: C_1  and  O_2
REMARK    2  A    between atoms: O_2  and  C_3
REMARK    3  A    between atoms: C_7  and  C_8
REMARK    4  A    between atoms: C_8  and  C_9
REMARK                            x       y       z     vdW  Elec       q    Type
REMARK                         _______ _______ _______ _____ _____    ______ ____
ROOT
ATOM      1  C   UNL     1       4.342   6.003  19.321  0.00  0.00    +0.000 C 
ENDROOT
BRANCH   1   2
ATOM      2  C   UNL     1       5.724   5.466  18.967  0.00  0.00    +0.000 C 
ATOM      3  O   UNL     1       6.442   4.891  19.784  0.00  0.00    +0.000 OA
ATOM      4  N   UNL     1       6.102   5.595  17.634  0.00  0.00    +0.000 N 
ATOM      5  C   UNL     1       7.324   4.937  17.170  0.00  0.00    +0.000 C 
ATOM      6  C   UNL     1       7.106   4.330  15.771  0.00  0.00    +0.000 C 
ATOM      7  N   UNL     1       6.635   5.320  14.785  0.00  0.00    +0.000 NA
ATOM      8  C   UNL     1       5.426   6.004  15.276  0.00  0.00    +0.000 C 
ATOM      9  C   UNL     1       5.582   6.592  16.691  0.00  0.00    +0.000 C 
ATOM     10  H   UNL     1       6.415   4.839  13.912  0.00  0.00    +0.000 HD
ENDBRANCH   1   2
BRANCH   1  15
ATOM     11  C   UNL     1       1.792   3.192  19.770  0.00  0.00    +0.000 A 
ATOM     12  C   UNL     1       1.092   3.259  18.559  0.00  0.00    +0.000 A 
ATOM     13  C   UNL     1       1.429   4.217  17.605  0.00  0.00    +0.000 A 
ATOM     14  C   UNL     1       2.468   5.120  17.848  0.00  0.00    +0.000 A 
ATOM     15  C   UNL     1       3.174   5.078  19.057  0.00  0.00    +0.000 A 
ATOM     16  C   UNL     1       2.823   4.104  20.006  0.00  0.00    +0.000 A 
BRANCH  11  18
ATOM     17  C   UNL     1       1.577   2.472  22.017  0.00  0.00    +0.000 C 
ATOM     18  O   UNL     1       1.399   2.202  20.631  0.00  0.00    +0.000 OA
ENDBRANCH  11  18
ENDBRANCH   1  15
TORSDOF 3
ENDMDL
MODEL 7
REMARK VINA RESULT:      -6.6      2.777      6.015
REMARK  Name = 
REMARK  4 active torsions:
REMARK  status: ('A' for Active; 'I' for Inactive)
REMARK    1  A    between atoms: C_1  and  O_2
REMARK    2  A    between atoms: O_2  and  C_3
REMARK    3  A    between atoms: C_7  and  C_8
REMARK    4  A    between atoms: C_8  and  C_9
REMARK                            x       y       z     vdW  Elec       q    Type
REMARK                         _______ _______ _______ _____ _____    ______ ____
ROOT
ATOM      1  C   UNL     1       5.012   3.965  16.543  0.00  0.00    +0.000 C 
ENDROOT
BRANCH   1   2
ATOM      2  C   UNL     1       5.778   5.194  16.067  0.00  0.00    +0.000 C 
ATOM      3  O   UNL     1       5.502   5.784  15.023  0.00  0.00    +0.000 OA
ATOM      4  N   UNL     1       6.769   5.662  16.925  0.00  0.00    +0.000 N 
ATOM      5  C   UNL     1       7.416   6.943  16.638  0.00  0.00    +0.000 C 
ATOM      6  C   UNL     1       7.633   7.736  17.940  0.00  0.00    +0.000 C 
ATOM      7  N   UNL     1       8.392   6.977  18.953  0.00  0.00    +0.000 NA
ATOM      8  C   UNL     1       7.752   5.675  19.209  0.00  0.00    +0.000 C 
ATOM      9  C   UNL     1       7.477   4.862  17.929  0.00  0.00    +0.000 C 
ATOM     10  H   UNL     1       8.414   7.514  19.820  0.00  0.00    +0.000 HD
ENDBRANCH   1   2
BRANCH   1  15
ATOM     11  C   UNL     1       2.349   3.318  19.206  0.00  0.00    +0.000 A 
ATOM     12  C   UNL     1       1.778   4.590  19.340  0.00  0.00    +0.000 A 
ATOM     13  C   UNL     1       2.259   5.658  18.586  0.00  0.00    +0.000 A 
ATOM     14  C   UNL     1       3.316   5.470  17.690  0.00  0.00    +0.000 A 
ATOM     15  C   UNL     1       3.909   4.209  17.549  0.00  0.00    +0.000 A 
ATOM     16  C   UNL     1       3.409   3.143  18.315  0.00  0.00    +0.000 A 
BRANCH  11  18
ATOM     17  C   UNL     1       1.672   2.614  21.365  0.00  0.00    +0.000 C 
ATOM     18  O   UNL     1       1.790   2.331  19.975  0.00  0.00    +0.000 OA
ENDBRANCH  11  18
ENDBRANCH   1  15
TORSDOF 3
ENDMDL
MODEL 8
REMARK VINA RESULT:      -6.6      1.716      1.886
REMARK  Name = 
REMARK  4 active torsions:
REMARK  status: ('A' for Active; 'I' for Inactive)
REMARK    1  A    between atoms: C_1  and  O_2
REMARK    2  A    between atoms: O_2  and  C_3
REMARK    3  A    between atoms: C_7  and  C_8
REMARK    4  A    between atoms: C_8  and  C_9
REMARK                            x       y       z     vdW  Elec       q    Type
REMARK                         _______ _______ _______ _____ _____    ______ ____
ROOT
ATOM      1  C   UNL     1       3.361   3.949  16.854  0.00  0.00    +0.000 C 
ENDROOT
BRANCH   1   2
ATOM      2  C   UNL     1       3.035   2.803  17.806  0.00  0.00    +0.000 C 
ATOM      3  O   UNL     1       3.297   1.630  17.547  0.00  0.00    +0.000 OA
ATOM      4  N   UNL     1       2.487   3.171  19.031  0.00  0.00    +0.000 N 
ATOM      5  C   UNL     1       2.324   2.158  20.074  0.00  0.00    +0.000 C 
ATOM      6  C   UNL     1       2.687   2.744  21.451  0.00  0.00    +0.000 C 
ATOM      7  N   UNL     1       1.919   3.961  21.775  0.00  0.00    +0.000 NA
ATOM      8  C   UNL     1       2.059   4.962  20.703  0.00  0.00    +0.000 C 
ATOM      9  C   UNL     1       1.747   4.408  19.299  0.00  0.00    +0.000 C 
ATOM     10  H   UNL     1       2.274   4.354  22.647  0.00  0.00    +0.000 HD
ENDBRANCH   1   2
BRANCH   1  15
ATOM     11  C   UNL     1       7.088   4.565  17.434  0.00  0.00    +0.000 A 
ATOM     12  C   UNL     1       7.540   4.772  16.124  0.00  0.00    +0.000 A 
ATOM     13  C   UNL     1       6.651   4.699  15.054  0.00  0.00    +0.000 A 
ATOM     14  C   UNL     1       5.300   4.417  15.278  0.00  0.00    +0.000 A 
ATOM     15  C   UNL     1       4.828   4.195  16.578  0.00  0.00    +0.000 A 
ATOM     16  C   UNL     1       5.739   4.276  17.645  0.00  0.00    +0.000 A 
BRANCH  11  18
ATOM     17  C   UNL     1       7.855   5.752  19.336  0.00  0.00    +0.000 C 
ATOM     18  O   UNL     1       8.036   4.681  18.416  0.00  0.00    +0.000 OA
ENDBRANCH  11  18
ENDBRANCH   1  15
TORSDOF 3
ENDMDL
MODEL 9
REMARK VINA RESULT:      -6.6      1.887      2.628
REMARK  Name = 
REMARK  4 active torsions:
REMARK  status: ('A' for Active; 'I' for Inactive)
REMARK    1  A    between atoms: C_1  and  O_2
REMARK    2  A    between atoms: O_2  and  C_3
REMARK    3  A    between atoms: C_7  and  C_8
REMARK    4  A    between atoms: C_8  and  C_9
REMARK                            x       y       z     vdW  Elec       q    Type
REMARK                         _______ _______ _______ _____ _____    ______ ____
ROOT
ATOM      1  C   UNL     1       3.356   6.327  17.961  0.00  0.00    +0.000 C 
ENDROOT
BRANCH   1   2
ATOM      2  C   UNL     1       2.615   5.713  19.144  0.00  0.00    +0.000 C 
ATOM      3  O   UNL     1       2.166   6.389  20.069  0.00  0.00    +0.000 OA
ATOM      4  N   UNL     1       2.405   4.339  19.082  0.00  0.00    +0.000 N 
ATOM      5  C   UNL     1       1.539   3.702  20.074  0.00  0.00    +0.000 C 
ATOM      6  C   UNL     1       0.661   2.627  19.408  0.00  0.00    +0.000 C 
ATOM      7  N   UNL     1       1.450   1.619  18.673  0.00  0.00    +0.000 NA
ATOM      8  C   UNL     1       2.345   2.271  17.701  0.00  0.00    +0.000 C 
ATOM      9  C   UNL     1       3.214   3.385  18.316  0.00  0.00    +0.000 C 
ATOM     10  H   UNL     1       0.811   0.998  18.175  0.00  0.00    +0.000 HD
ENDBRANCH   1   2
BRANCH   1  15
ATOM     11  C   UNL     1       6.841   5.674  16.534  0.00  0.00    +0.000 A 
ATOM     12  C   UNL     1       7.580   5.452  17.703  0.00  0.00    +0.000 A 
ATOM     13  C   UNL     1       6.962   5.527  18.950  0.00  0.00    +0.000 A 
ATOM     14  C   UNL     1       5.599   5.825  19.045  0.00  0.00    +0.000 A 
ATOM     15  C   UNL     1       4.844   6.062  17.890  0.00  0.00    +0.000 A 
ATOM     16  C   UNL     1       5.482   5.980  16.641  0.00  0.00    +0.000 A 
BRANCH  11  18
ATOM     17  C   UNL     1       6.910   4.784  14.340  0.00  0.00    +0.000 C 
ATOM     18  O   UNL     1       7.535   5.555  15.360  0.00  0.00    +0.000 OA
ENDBRANCH  11  18
ENDBRANCH   1  15
TORSDOF 3
ENDMDL
