MODEL 1
REMARK VINA RESULT:      -8.4      0.000      0.000
REMARK  Name = 
REMARK  4 active torsions:
REMARK  status: ('A' for Active; 'I' for Inactive)
REMARK    1  A    between atoms: C_8  and  C_9
REMARK    2  A    between atoms: C_9  and  S_10
REMARK    3  A    between atoms: S_10  and  C_11
REMARK    4  A    between atoms: C_14  and  C_15
REMARK                            x       y       z     vdW  Elec       q    Type
REMARK                         _______ _______ _______ _____ _____    ______ ____
ROOT
ATOM      1  C   UNL     1       4.495   5.896  17.809  0.00  0.00    +0.000 A 
ATOM      2  N   UNL     1       4.557   6.593  16.696  0.00  0.00    +0.000 NA
ATOM      3  N   UNL     1       3.650   7.640  16.829  0.00  0.00    +0.000 NA
ATOM      4  C   UNL     1       3.109   7.517  18.025  0.00  0.00    +0.000 A 
ATOM      5  O   UNL     1       3.600   6.430  18.702  0.00  0.00    +0.000 OA
ENDROOT
BRANCH   4   6
ATOM      6  C   UNL     1       2.104   8.325  18.719  0.00  0.00    +0.000 A 
ATOM      7  C   UNL     1       1.366   9.302  18.030  0.00  0.00    +0.000 A 
ATOM      8  C   UNL     1       0.416  10.092  18.697  0.00  0.00    +0.000 A 
ATOM      9  C   UNL     1       0.203   9.924  20.064  0.00  0.00    +0.000 A 
ATOM     10  C   UNL     1       0.907   8.938  20.756  0.00  0.00    +0.000 A 
ATOM     11  C   UNL     1       1.852   8.152  20.092  0.00  0.00    +0.000 A 
ATOM     12  O   UNL     1       0.739   8.693  22.096  0.00  0.00    +0.000 OA
ATOM     13  C   UNL     1      -0.437   9.329  22.611  0.00  0.00    +0.000 C 
ATOM     14  C   UNL     1      -0.561  10.750  22.088  0.00  0.00    +0.000 C 
ATOM     15  O   UNL     1      -0.708  10.754  20.661  0.00  0.00    +0.000 OA
ENDBRANCH   4   6
BRANCH   1  16
ATOM     16  S   UNL     1       5.348   4.422  18.167  0.00  0.00    +0.000 S 
BRANCH  16  17
ATOM     17  C   UNL     1       4.073   3.148  17.954  0.00  0.00    +0.000 C 
BRANCH  17  25
ATOM     18  F   UNL     1       1.404   4.173  17.801  0.00  0.00    +0.000 F 
ATOM     19  C   UNL     1       1.801   3.656  18.971  0.00  0.00    +0.000 A 
ATOM     20  C   UNL     1       0.894   3.647  20.035  0.00  0.00    +0.000 A 
ATOM     21  C   UNL     1       1.270   3.117  21.268  0.00  0.00    +0.000 A 
ATOM     22  C   UNL     1       2.554   2.601  21.424  0.00  0.00    +0.000 A 
ATOM     23  C   UNL     1       3.448   2.616  20.348  0.00  0.00    +0.000 A 
ATOM     24  F   UNL     1       4.679   2.112  20.532  0.00  0.00    +0.000 F 
ATOM     25  C   UNL     1       3.097   3.148  19.106  0.00  0.00    +0.000 A 
ENDBRANCH  17  25
ENDBRANCH  16  17
ENDBRANCH   1  16
TORSDOF 4
ENDMDL
MODEL 2
REMARK VINA RESULT:      -8.4      0.080      1.649
REMARK  Name = 
REMARK  4 active torsions:
REMARK  status: ('A' for Active; 'I' for Inactive)
REMARK    1  A    between atoms: C_8  and  C_9
REMARK    2  A    between atoms: C_9  and  S_10
REMARK    3  A    between atoms: S_10  and  C_11
REMARK    4  A    between atoms: C_14  and  C_15
REMARK                            x       y       z     vdW  Elec       q    Type
REMARK                         _______ _______ _______ _____ _____    ______ ____
ROOT
ATOM      1  C   UNL     1       4.513   5.828  17.823  0.00  0.00    +0.000 A 
ATOM      2  N   UNL     1       4.639   6.555  16.734  0.00  0.00    +0.000 NA
ATOM      3  N   UNL     1       3.745   7.615  16.857  0.00  0.00    +0.000 NA
ATOM      4  C   UNL     1       3.148   7.467  18.022  0.00  0.00    +0.000 A 
ATOM      5  O   UNL     1       3.588   6.353  18.689  0.00  0.00    +0.000 OA
ENDROOT
BRANCH   4   6
ATOM      6  C   UNL     1       2.126   8.274  18.693  0.00  0.00    +0.000 A 
ATOM      7  C   UNL     1       1.355   9.202  17.974  0.00  0.00    +0.000 A 
ATOM      8  C   UNL     1       0.389   9.991  18.618  0.00  0.00    +0.000 A 
ATOM      9  C   UNL     1       0.192   9.871  19.992  0.00  0.00    +0.000 A 
ATOM     10  C   UNL     1       0.928   8.933  20.716  0.00  0.00    +0.000 A 
ATOM     11  C   UNL     1       1.890   8.148  20.074  0.00  0.00    +0.000 A 
ATOM     12  O   UNL     1       0.778   8.736  22.066  0.00  0.00    +0.000 OA
ATOM     13  C   UNL     1      -0.411   9.359  22.566  0.00  0.00    +0.000 C 
ATOM     14  C   UNL     1      -0.578  10.755  21.989  0.00  0.00    +0.000 C 
ATOM     15  O   UNL     1      -0.737  10.699  20.565  0.00  0.00    +0.000 OA
ENDBRANCH   4   6
BRANCH   1  16
ATOM     16  S   UNL     1       5.323   4.328  18.175  0.00  0.00    +0.000 S 
BRANCH  16  17
ATOM     17  C   UNL     1       4.009   3.093  17.965  0.00  0.00    +0.000 C 
BRANCH  17  25
ATOM     18  F   UNL     1       4.658   2.078  20.563  0.00  0.00    +0.000 F 
ATOM     19  C   UNL     1       3.433   2.593  20.388  0.00  0.00    +0.000 A 
ATOM     20  C   UNL     1       2.556   2.606  21.478  0.00  0.00    +0.000 A 
ATOM     21  C   UNL     1       1.274   3.134  21.335  0.00  0.00    +0.000 A 
ATOM     22  C   UNL     1       0.882   3.645  20.101  0.00  0.00    +0.000 A 
ATOM     23  C   UNL     1       1.773   3.627  19.023  0.00  0.00    +0.000 A 
ATOM     24  F   UNL     1       1.363   4.126  17.846  0.00  0.00    +0.000 F 
ATOM     25  C   UNL     1       3.059   3.096  19.139  0.00  0.00    +0.000 A 
ENDBRANCH  17  25
ENDBRANCH  16  17
ENDBRANCH   1  16
TORSDOF 4
ENDMDL
MODEL 3
REMARK VINA RESULT:      -8.1      6.251      7.424
REMARK  Name = 
REMARK  4 active torsions:
REMARK  status: ('A' for Active; 'I' for Inactive)
REMARK    1  A    between atoms: C_8  and  C_9
REMARK    2  A    between atoms: C_9  and  S_10
REMARK    3  A    between atoms: S_10  and  C_11
REMARK    4  A    between atoms: C_14  and  C_15
REMARK                            x       y       z     vdW  Elec       q    Type
REMARK                         _______ _______ _______ _____ _____    ______ ____
ROOT
ATOM      1  C   UNL     1       7.792   7.108  18.227  0.00  0.00    +0.000 A 
ATOM      2  N   UNL     1       7.302   7.684  17.151  0.00  0.00    +0.000 NA
ATOM      3  N   UNL     1       7.752   9.001  17.165  0.00  0.00    +0.000 NA
ATOM      4  C   UNL     1       8.500   9.130  18.243  0.00  0.00    +0.000 A 
ATOM      5  O   UNL     1       8.568   7.965  18.963  0.00  0.00    +0.000 OA
ENDROOT
BRANCH   4   6
ATOM      6  C   UNL     1       9.240  10.277  18.774  0.00  0.00    +0.000 A 
ATOM      7  C   UNL     1       9.329  10.497  20.158  0.00  0.00    +0.000 A 
ATOM      8  C   UNL     1      10.022  11.606  20.669  0.00  0.00    +0.000 A 
ATOM      9  C   UNL     1      10.623  12.516  19.801  0.00  0.00    +0.000 A 
ATOM     10  C   UNL     1      10.569  12.295  18.425  0.00  0.00    +0.000 A 
ATOM     11  C   UNL     1       9.879  11.191  17.916  0.00  0.00    +0.000 A 
ATOM     12  O   UNL     1      11.154  13.128  17.505  0.00  0.00    +0.000 OA
ATOM     13  C   UNL     1      12.069  14.043  18.120  0.00  0.00    +0.000 C 
ATOM     14  C   UNL     1      11.480  14.628  19.393  0.00  0.00    +0.000 C 
ATOM     15  O   UNL     1      11.248  13.597  20.363  0.00  0.00    +0.000 OA
ENDBRANCH   4   6
BRANCH   1  16
ATOM     16  S   UNL     1       7.485   5.483  18.771  0.00  0.00    +0.000 S 
BRANCH  16  17
ATOM     17  C   UNL     1       6.212   4.898  17.617  0.00  0.00    +0.000 C 
BRANCH  17  25
ATOM     18  F   UNL     1       4.365   6.943  16.840  0.00  0.00    +0.000 F 
ATOM     19  C   UNL     1       3.964   6.071  17.775  0.00  0.00    +0.000 A 
ATOM     20  C   UNL     1       2.678   6.211  18.307  0.00  0.00    +0.000 A 
ATOM     21  C   UNL     1       2.225   5.323  19.281  0.00  0.00    +0.000 A 
ATOM     22  C   UNL     1       3.066   4.301  19.714  0.00  0.00    +0.000 A 
ATOM     23  C   UNL     1       4.348   4.174  19.170  0.00  0.00    +0.000 A 
ATOM     24  F   UNL     1       5.135   3.180  19.611  0.00  0.00    +0.000 F 
ATOM     25  C   UNL     1       4.828   5.056  18.199  0.00  0.00    +0.000 A 
ENDBRANCH  17  25
ENDBRANCH  16  17
ENDBRANCH   1  16
TORSDOF 4
ENDMDL
MODEL 4
REMARK VINA RESULT:      -8.1      5.993      7.275
REMARK  Name = 
REMARK  4 active torsions:
REMARK  status: ('A' for Active; 'I' for Inactive)
REMARK    1  A    between atoms: C_8  and  C_9
REMARK    2  A    between atoms: C_9  and  S_10
REMARK    3  A    between atoms: S_10  and  C_11
REMARK    4  A    between atoms: C_14  and  C_15
REMARK                            x       y       z     vdW  Elec       q    Type
REMARK                         _______ _______ _______ _____ _____    ______ ____
ROOT
ATOM      1  C   UNL     1       7.545   6.833  17.969  0.00  0.00    +0.000 A 
ATOM      2  N   UNL     1       6.943   7.509  17.016  0.00  0.00    +0.000 NA
ATOM      3  N   UNL     1       7.396   8.821  17.110  0.00  0.00    +0.000 NA
ATOM      4  C   UNL     1       8.257   8.849  18.108  0.00  0.00    +0.000 A 
ATOM      5  O   UNL     1       8.400   7.620  18.698  0.00  0.00    +0.000 OA
ENDROOT
BRANCH   4   6
ATOM      6  C   UNL     1       9.055   9.943  18.665  0.00  0.00    +0.000 A 
ATOM      7  C   UNL     1       9.101  10.166  20.052  0.00  0.00    +0.000 A 
ATOM      8  C   UNL     1       9.849  11.226  20.588  0.00  0.00    +0.000 A 
ATOM      9  C   UNL     1      10.549  12.085  19.743  0.00  0.00    +0.000 A 
ATOM     10  C   UNL     1      10.537  11.860  18.366  0.00  0.00    +0.000 A 
ATOM     11  C   UNL     1       9.792  10.805  17.833  0.00  0.00    +0.000 A 
ATOM     12  O   UNL     1      11.218  12.644  17.469  0.00  0.00    +0.000 OA
ATOM     13  C   UNL     1      12.169  13.495  18.119  0.00  0.00    +0.000 C 
ATOM     14  C   UNL     1      11.571  14.128  19.365  0.00  0.00    +0.000 C 
ATOM     15  O   UNL     1      11.225  13.123  20.327  0.00  0.00    +0.000 OA
ENDBRANCH   4   6
BRANCH   1  16
ATOM     16  S   UNL     1       7.295   5.160  18.380  0.00  0.00    +0.000 S 
BRANCH  16  17
ATOM     17  C   UNL     1       5.764   5.202  19.354  0.00  0.00    +0.000 C 
BRANCH  17  25
ATOM     18  F   UNL     1       4.182   5.976  17.096  0.00  0.00    +0.000 F 
ATOM     19  C   UNL     1       3.955   4.765  17.624  0.00  0.00    +0.000 A 
ATOM     20  C   UNL     1       2.970   3.961  17.042  0.00  0.00    +0.000 A 
ATOM     21  C   UNL     1       2.705   2.696  17.564  0.00  0.00    +0.000 A 
ATOM     22  C   UNL     1       3.431   2.247  18.664  0.00  0.00    +0.000 A 
ATOM     23  C   UNL     1       4.414   3.064  19.231  0.00  0.00    +0.000 A 
ATOM     24  F   UNL     1       5.095   2.602  20.293  0.00  0.00    +0.000 F 
ATOM     25  C   UNL     1       4.692   4.338  18.733  0.00  0.00    +0.000 A 
ENDBRANCH  17  25
ENDBRANCH  16  17
ENDBRANCH   1  16
TORSDOF 4
ENDMDL
MODEL 5
REMARK VINA RESULT:      -8.0      1.735      2.667
REMARK  Name = 
REMARK  4 active torsions:
REMARK  status: ('A' for Active; 'I' for Inactive)
REMARK    1  A    between atoms: C_8  and  C_9
REMARK    2  A    between atoms: C_9  and  S_10
REMARK    3  A    between atoms: S_10  and  C_11
REMARK    4  A    between atoms: C_14  and  C_15
REMARK                            x       y       z     vdW  Elec       q    Type
REMARK                         _______ _______ _______ _____ _____    ______ ____
ROOT
ATOM      1  C   UNL     1       3.102   7.574  17.945  0.00  0.00    +0.000 A 
ATOM      2  N   UNL     1       2.660   8.430  17.049  0.00  0.00    +0.000 NA
ATOM      3  N   UNL     1       1.769   9.272  17.708  0.00  0.00    +0.000 NA
ATOM      4  C   UNL     1       1.743   8.880  18.966  0.00  0.00    +0.000 A 
ATOM      5  O   UNL     1       2.566   7.806  19.187  0.00  0.00    +0.000 OA
ENDROOT
BRANCH   4   6
ATOM      6  C   UNL     1       1.001   9.389  20.121  0.00  0.00    +0.000 A 
ATOM      7  C   UNL     1       0.645   8.537  21.180  0.00  0.00    +0.000 A 
ATOM      8  C   UNL     1      -0.083   9.017  22.280  0.00  0.00    +0.000 A 
ATOM      9  C   UNL     1      -0.475  10.354  22.328  0.00  0.00    +0.000 A 
ATOM     10  C   UNL     1      -0.104  11.220  21.299  0.00  0.00    +0.000 A 
ATOM     11  C   UNL     1       0.621  10.741  20.204  0.00  0.00    +0.000 A 
ATOM     12  O   UNL     1      -0.429  12.553  21.282  0.00  0.00    +0.000 OA
ATOM     13  C   UNL     1      -0.901  13.002  22.558  0.00  0.00    +0.000 C 
ATOM     14  C   UNL     1      -1.870  12.002  23.164  0.00  0.00    +0.000 C 
ATOM     15  O   UNL     1      -1.218  10.748  23.409  0.00  0.00    +0.000 OA
ENDBRANCH   4   6
BRANCH   1  16
ATOM     16  S   UNL     1       4.176   6.233  17.667  0.00  0.00    +0.000 S 
BRANCH  16  17
ATOM     17  C   UNL     1       4.095   5.312  19.228  0.00  0.00    +0.000 C 
BRANCH  17  25
ATOM     18  F   UNL     1       1.873   5.481  21.026  0.00  0.00    +0.000 F 
ATOM     19  C   UNL     1       1.873   4.480  20.135  0.00  0.00    +0.000 A 
ATOM     20  C   UNL     1       0.794   3.590  20.137  0.00  0.00    +0.000 A 
ATOM     21  C   UNL     1       0.758   2.536  19.225  0.00  0.00    +0.000 A 
ATOM     22  C   UNL     1       1.804   2.384  18.319  0.00  0.00    +0.000 A 
ATOM     23  C   UNL     1       2.874   3.286  18.329  0.00  0.00    +0.000 A 
ATOM     24  F   UNL     1       3.867   3.110  17.443  0.00  0.00    +0.000 F 
ATOM     25  C   UNL     1       2.937   4.344  19.238  0.00  0.00    +0.000 A 
ENDBRANCH  17  25
ENDBRANCH  16  17
ENDBRANCH   1  16
TORSDOF 4
ENDMDL
MODEL 6
REMARK VINA RESULT:      -8.0      0.838      2.306
REMARK  Name = 
REMARK  4 active torsions:
REMARK  status: ('A' for Active; 'I' for Inactive)
REMARK    1  A    between atoms: C_8  and  C_9
REMARK    2  A    between atoms: C_9  and  S_10
REMARK    3  A    between atoms: S_10  and  C_11
REMARK    4  A    between atoms: C_14  and  C_15
REMARK                            x       y       z     vdW  Elec       q    Type
REMARK                         _______ _______ _______ _____ _____    ______ ____
ROOT
ATOM      1  C   UNL     1       4.443   5.603  17.748  0.00  0.00    +0.000 A 
ATOM      2  N   UNL     1       4.501   6.364  16.676  0.00  0.00    +0.000 NA
ATOM      3  N   UNL     1       3.668   7.453  16.915  0.00  0.00    +0.000 NA
ATOM      4  C   UNL     1       3.171   7.286  18.124  0.00  0.00    +0.000 A 
ATOM      5  O   UNL     1       3.622   6.132  18.711  0.00  0.00    +0.000 OA
ENDROOT
BRANCH   4   6
ATOM      6  C   UNL     1       2.248   8.107  18.911  0.00  0.00    +0.000 A 
ATOM      7  C   UNL     1       1.833   7.697  20.190  0.00  0.00    +0.000 A 
ATOM      8  C   UNL     1       0.933   8.472  20.938  0.00  0.00    +0.000 A 
ATOM      9  C   UNL     1       0.426   9.659  20.412  0.00  0.00    +0.000 A 
ATOM     10  C   UNL     1       0.851  10.094  19.156  0.00  0.00    +0.000 A 
ATOM     11  C   UNL     1       1.747   9.322  18.411  0.00  0.00    +0.000 A 
ATOM     12  O   UNL     1       0.419  11.261  18.578  0.00  0.00    +0.000 OA
ATOM     13  C   UNL     1      -0.247  12.109  19.521  0.00  0.00    +0.000 C 
ATOM     14  C   UNL     1      -1.198  11.309  20.395  0.00  0.00    +0.000 C 
ATOM     15  O   UNL     1      -0.479  10.346  21.177  0.00  0.00    +0.000 OA
ENDBRANCH   4   6
BRANCH   1  16
ATOM     16  S   UNL     1       5.218   4.061  17.975  0.00  0.00    +0.000 S 
BRANCH  16  17
ATOM     17  C   UNL     1       3.838   2.888  17.862  0.00  0.00    +0.000 C 
BRANCH  17  25
ATOM     18  F   UNL     1       4.618   1.980  20.463  0.00  0.00    +0.000 F 
ATOM     19  C   UNL     1       3.392   2.505  20.334  0.00  0.00    +0.000 A 
ATOM     20  C   UNL     1       2.577   2.579  21.468  0.00  0.00    +0.000 A 
ATOM     21  C   UNL     1       1.296   3.119  21.373  0.00  0.00    +0.000 A 
ATOM     22  C   UNL     1       0.841   3.581  20.140  0.00  0.00    +0.000 A 
ATOM     23  C   UNL     1       1.670   3.502  19.017  0.00  0.00    +0.000 A 
ATOM     24  F   UNL     1       1.201   3.954  17.843  0.00  0.00    +0.000 F 
ATOM     25  C   UNL     1       2.955   2.958  19.085  0.00  0.00    +0.000 A 
ENDBRANCH  17  25
ENDBRANCH  16  17
ENDBRANCH   1  16
TORSDOF 4
ENDMDL
MODEL 7
REMARK VINA RESULT:      -8.0      0.839      1.637
REMARK  Name = 
REMARK  4 active torsions:
REMARK  status: ('A' for Active; 'I' for Inactive)
REMARK    1  A    between atoms: C_8  and  C_9
REMARK    2  A    between atoms: C_9  and  S_10
REMARK    3  A    between atoms: S_10  and  C_11
REMARK    4  A    between atoms: C_14  and  C_15
REMARK                            x       y       z     vdW  Elec       q    Type
REMARK                         _______ _______ _______ _____ _____    ______ ____
ROOT
ATOM      1  C   UNL     1       4.441   5.752  17.603  0.00  0.00    +0.000 A 
ATOM      2  N   UNL     1       4.512   6.538  16.551  0.00  0.00    +0.000 NA
ATOM      3  N   UNL     1       3.679   7.623  16.807  0.00  0.00    +0.000 NA
ATOM      4  C   UNL     1       3.169   7.430  18.007  0.00  0.00    +0.000 A 
ATOM      5  O   UNL     1       3.611   6.260  18.570  0.00  0.00    +0.000 OA
ENDROOT
BRANCH   4   6
ATOM      6  C   UNL     1       2.241   8.234  18.804  0.00  0.00    +0.000 A 
ATOM      7  C   UNL     1       1.863   7.829  20.095  0.00  0.00    +0.000 A 
ATOM      8  C   UNL     1       0.958   8.588  20.853  0.00  0.00    +0.000 A 
ATOM      9  C   UNL     1       0.409   9.754  20.324  0.00  0.00    +0.000 A 
ATOM     10  C   UNL     1       0.796  10.186  19.056  0.00  0.00    +0.000 A 
ATOM     11  C   UNL     1       1.697   9.430  18.301  0.00  0.00    +0.000 A 
ATOM     12  O   UNL     1       0.321  11.334  18.473  0.00  0.00    +0.000 OA
ATOM     13  C   UNL     1      -0.349  12.175  19.420  0.00  0.00    +0.000 C 
ATOM     14  C   UNL     1      -1.260  11.360  20.323  0.00  0.00    +0.000 C 
ATOM     15  O   UNL     1      -0.499  10.426  21.100  0.00  0.00    +0.000 OA
ENDBRANCH   4   6
BRANCH   1  16
ATOM     16  S   UNL     1       5.209   4.203  17.803  0.00  0.00    +0.000 S 
BRANCH  16  17
ATOM     17  C   UNL     1       3.818   3.041  17.711  0.00  0.00    +0.000 C 
BRANCH  17  25
ATOM     18  F   UNL     1       1.182   4.158  17.776  0.00  0.00    +0.000 F 
ATOM     19  C   UNL     1       1.673   3.664  18.921  0.00  0.00    +0.000 A 
ATOM     20  C   UNL     1       0.872   3.722  20.066  0.00  0.00    +0.000 A 
ATOM     21  C   UNL     1       1.348   3.218  21.276  0.00  0.00    +0.000 A 
ATOM     22  C   UNL     1       2.622   2.660  21.327  0.00  0.00    +0.000 A 
ATOM     23  C   UNL     1       3.408   2.609  20.171  0.00  0.00    +0.000 A 
ATOM     24  F   UNL     1       4.634   2.066  20.255  0.00  0.00    +0.000 F 
ATOM     25  C   UNL     1       2.958   3.114  18.950  0.00  0.00    +0.000 A 
ENDBRANCH  17  25
ENDBRANCH  16  17
ENDBRANCH   1  16
TORSDOF 4
ENDMDL
MODEL 8
REMARK VINA RESULT:      -8.0      6.291      7.569
REMARK  Name = 
REMARK  4 active torsions:
REMARK  status: ('A' for Active; 'I' for Inactive)
REMARK    1  A    between atoms: C_8  and  C_9
REMARK    2  A    between atoms: C_9  and  S_10
REMARK    3  A    between atoms: S_10  and  C_11
REMARK    4  A    between atoms: C_14  and  C_15
REMARK                            x       y       z     vdW  Elec       q    Type
REMARK                         _______ _______ _______ _____ _____    ______ ____
ROOT
ATOM      1  C   UNL     1       7.815   7.218  18.191  0.00  0.00    +0.000 A 
ATOM      2  N   UNL     1       7.333   7.797  17.113  0.00  0.00    +0.000 NA
ATOM      3  N   UNL     1       7.769   9.118  17.142  0.00  0.00    +0.000 NA
ATOM      4  C   UNL     1       8.501   9.248  18.230  0.00  0.00    +0.000 A 
ATOM      5  O   UNL     1       8.572   8.079  18.944  0.00  0.00    +0.000 OA
ENDROOT
BRANCH   4   6
ATOM      6  C   UNL     1       9.222  10.399  18.779  0.00  0.00    +0.000 A 
ATOM      7  C   UNL     1       9.420  10.530  20.163  0.00  0.00    +0.000 A 
ATOM      8  C   UNL     1      10.093  11.642  20.693  0.00  0.00    +0.000 A 
ATOM      9  C   UNL     1      10.564  12.643  19.846  0.00  0.00    +0.000 A 
ATOM     10  C   UNL     1      10.402  12.513  18.467  0.00  0.00    +0.000 A 
ATOM     11  C   UNL     1       9.731  11.406  17.939  0.00  0.00    +0.000 A 
ATOM     12  O   UNL     1      10.857  13.441  17.564  0.00  0.00    +0.000 OA
ATOM     13  C   UNL     1      11.771  14.366  18.165  0.00  0.00    +0.000 C 
ATOM     14  C   UNL     1      11.266  14.826  19.522  0.00  0.00    +0.000 C 
ATOM     15  O   UNL     1      11.177  13.720  20.431  0.00  0.00    +0.000 OA
ENDBRANCH   4   6
BRANCH   1  16
ATOM     16  S   UNL     1       7.519   5.586  18.720  0.00  0.00    +0.000 S 
BRANCH  16  17
ATOM     17  C   UNL     1       6.174   5.039  17.631  0.00  0.00    +0.000 C 
BRANCH  17  25
ATOM     18  F   UNL     1       5.062   3.535  19.798  0.00  0.00    +0.000 F 
ATOM     19  C   UNL     1       4.332   4.547  19.310  0.00  0.00    +0.000 A 
ATOM     20  C   UNL     1       3.085   4.806  19.886  0.00  0.00    +0.000 A 
ATOM     21  C   UNL     1       2.297   5.851  19.405  0.00  0.00    +0.000 A 
ATOM     22  C   UNL     1       2.768   6.628  18.350  0.00  0.00    +0.000 A 
ATOM     23  C   UNL     1       4.019   6.357  17.787  0.00  0.00    +0.000 A 
ATOM     24  F   UNL     1       4.443   7.124  16.770  0.00  0.00    +0.000 F 
ATOM     25  C   UNL     1       4.823   5.311  18.246  0.00  0.00    +0.000 A 
ENDBRANCH  17  25
ENDBRANCH  16  17
ENDBRANCH   1  16
TORSDOF 4
ENDMDL
MODEL 9
REMARK VINA RESULT:      -7.8      1.302      1.364
REMARK  Name = 
REMARK  4 active torsions:
REMARK  status: ('A' for Active; 'I' for Inactive)
REMARK    1  A    between atoms: C_8  and  C_9
REMARK    2  A    between atoms: C_9  and  S_10
REMARK    3  A    between atoms: S_10  and  C_11
REMARK    4  A    between atoms: C_14  and  C_15
REMARK                            x       y       z     vdW  Elec       q    Type
REMARK                         _______ _______ _______ _____ _____    ______ ____
ROOT
ATOM      1  C   UNL     1       3.839   4.473  17.887  0.00  0.00    +0.000 A 
ATOM      2  N   UNL     1       4.845   4.835  18.653  0.00  0.00    +0.000 NA
ATOM      3  N   UNL     1       4.494   6.056  19.222  0.00  0.00    +0.000 NA
ATOM      4  C   UNL     1       3.289   6.346  18.773  0.00  0.00    +0.000 A 
ATOM      5  O   UNL     1       2.813   5.383  17.920  0.00  0.00    +0.000 OA
ENDROOT
BRANCH   4   6
ATOM      6  C   UNL     1       2.411   7.489  19.029  0.00  0.00    +0.000 A 
ATOM      7  C   UNL     1       2.053   8.368  17.993  0.00  0.00    +0.000 A 
ATOM      8  C   UNL     1       1.228   9.476  18.240  0.00  0.00    +0.000 A 
ATOM      9  C   UNL     1       0.762   9.727  19.529  0.00  0.00    +0.000 A 
ATOM     10  C   UNL     1       1.084   8.848  20.563  0.00  0.00    +0.000 A 
ATOM     11  C   UNL     1       1.906   7.745  20.317  0.00  0.00    +0.000 A 
ATOM     12  O   UNL     1       0.647   9.010  21.854  0.00  0.00    +0.000 OA
ATOM     13  C   UNL     1      -0.407   9.976  21.942  0.00  0.00    +0.000 C 
ATOM     14  C   UNL     1      -0.096  11.200  21.097  0.00  0.00    +0.000 C 
ATOM     15  O   UNL     1      -0.005  10.848  19.710  0.00  0.00    +0.000 OA
ENDBRANCH   4   6
BRANCH   1  16
ATOM     16  S   UNL     1       3.762   3.069  16.861  0.00  0.00    +0.000 S 
BRANCH  16  17
ATOM     17  C   UNL     1       3.433   1.723  18.033  0.00  0.00    +0.000 C 
BRANCH  17  25
ATOM     18  F   UNL     1       0.662   2.442  18.097  0.00  0.00    +0.000 F 
ATOM     19  C   UNL     1       1.357   2.556  19.237  0.00  0.00    +0.000 A 
ATOM     20  C   UNL     1       0.690   3.012  20.379  0.00  0.00    +0.000 A 
ATOM     21  C   UNL     1       1.379   3.142  21.583  0.00  0.00    +0.000 A 
ATOM     22  C   UNL     1       2.732   2.814  21.633  0.00  0.00    +0.000 A 
ATOM     23  C   UNL     1       3.382   2.357  20.483  0.00  0.00    +0.000 A 
ATOM     24  F   UNL     1       4.687   2.051  20.564  0.00  0.00    +0.000 F 
ATOM     25  C   UNL     1       2.715   2.226  19.262  0.00  0.00    +0.000 A 
ENDBRANCH  17  25
ENDBRANCH  16  17
ENDBRANCH   1  16
TORSDOF 4
ENDMDL
