MODEL 1
REMARK VINA RESULT:      -7.7      0.000      0.000
REMARK  Name = 
REMARK  4 active torsions:
REMARK  status: ('A' for Active; 'I' for Inactive)
REMARK    1  A    between atoms: C_5  and  C_6
REMARK    2  A    between atoms: C_9  and  C_10
REMARK    3  A    between atoms: C_10  and  C_11
REMARK    4  A    between atoms: C_11  and  N_12
REMARK                            x       y       z     vdW  Elec       q    Type
REMARK                         _______ _______ _______ _____ _____    ______ ____
ROOT
ATOM      1  C   UNL     1       6.780   4.605  16.340  0.00  0.00    +0.000 A 
ATOM      2  N   UNL     1       7.795   4.537  17.219  0.00  0.00    +0.000 NA
ATOM      3  O   UNL     1       7.164   4.481  18.461  0.00  0.00    +0.000 OA
ATOM      4  C   UNL     1       5.825   4.525  18.217  0.00  0.00    +0.000 A 
ATOM      5  N   UNL     1       5.532   4.612  16.940  0.00  0.00    +0.000 NA
ENDROOT
BRANCH   1  10
ATOM      6  C   UNL     1       6.418   3.818  12.696  0.00  0.00    +0.000 A 
ATOM      7  C   UNL     1       7.341   4.719  12.205  0.00  0.00    +0.000 A 
ATOM      8  N   UNL     1       8.034   5.550  13.007  0.00  0.00    +0.000 NA
ATOM      9  N   UNL     1       7.830   5.508  14.363  0.00  0.00    +0.000 NA
ATOM     10  C   UNL     1       6.938   4.636  14.888  0.00  0.00    +0.000 A 
ATOM     11  C   UNL     1       6.212   3.777  14.071  0.00  0.00    +0.000 A 
ENDBRANCH   1  10
BRANCH   4  12
ATOM     12  C   UNL     1       4.918   4.418  19.387  0.00  0.00    +0.000 C 
BRANCH  12  13
ATOM     13  C   UNL     1       4.353   2.995  19.478  0.00  0.00    +0.000 C 
BRANCH  13  14
ATOM     14  N   UNL     1       3.075   2.938  20.202  0.00  0.00    +0.000 NA
ATOM     15  C   UNL     1       1.998   2.500  19.310  0.00  0.00    +0.000 C 
ATOM     16  C   UNL     1       0.779   3.090  19.966  0.00  0.00    +0.000 C 
ATOM     17  C   UNL     1       1.285   4.407  20.500  0.00  0.00    +0.000 C 
ATOM     18  O   UNL     1       2.717   4.319  20.528  0.00  0.00    +0.000 OA
ENDBRANCH  13  14
ENDBRANCH  12  13
ENDBRANCH   4  12
TORSDOF 4
ENDMDL
MODEL 2
REMARK VINA RESULT:      -7.5      0.961      1.309
REMARK  Name = 
REMARK  4 active torsions:
REMARK  status: ('A' for Active; 'I' for Inactive)
REMARK    1  A    between atoms: C_5  and  C_6
REMARK    2  A    between atoms: C_9  and  C_10
REMARK    3  A    between atoms: C_10  and  C_11
REMARK    4  A    between atoms: C_11  and  N_12
REMARK                            x       y       z     vdW  Elec       q    Type
REMARK                         _______ _______ _______ _____ _____    ______ ____
ROOT
ATOM      1  C   UNL     1       6.751   4.755  16.485  0.00  0.00    +0.000 A 
ATOM      2  N   UNL     1       7.691   4.428  17.387  0.00  0.00    +0.000 NA
ATOM      3  O   UNL     1       7.048   4.574  18.615  0.00  0.00    +0.000 OA
ATOM      4  C   UNL     1       5.777   4.980  18.340  0.00  0.00    +0.000 A 
ATOM      5  N   UNL     1       5.542   5.118  17.056  0.00  0.00    +0.000 NA
ENDROOT
BRANCH   1  10
ATOM      6  C   UNL     1       6.439   3.798  12.877  0.00  0.00    +0.000 A 
ATOM      7  C   UNL     1       7.391   4.653  12.360  0.00  0.00    +0.000 A 
ATOM      8  N   UNL     1       8.088   5.507  13.135  0.00  0.00    +0.000 NA
ATOM      9  N   UNL     1       7.858   5.536  14.487  0.00  0.00    +0.000 NA
ATOM     10  C   UNL     1       6.937   4.711  15.036  0.00  0.00    +0.000 A 
ATOM     11  C   UNL     1       6.205   3.829  14.248  0.00  0.00    +0.000 A 
ENDBRANCH   1  10
BRANCH   4  12
ATOM     12  C   UNL     1       4.855   5.151  19.491  0.00  0.00    +0.000 C 
BRANCH  12  13
ATOM     13  C   UNL     1       3.533   5.761  19.011  0.00  0.00    +0.000 C 
BRANCH  13  14
ATOM     14  N   UNL     1       2.388   4.859  19.205  0.00  0.00    +0.000 NA
ATOM     15  C   UNL     1       2.004   4.813  20.618  0.00  0.00    +0.000 C 
ATOM     16  C   UNL     1       1.334   3.470  20.725  0.00  0.00    +0.000 C 
ATOM     17  C   UNL     1       2.146   2.611  19.786  0.00  0.00    +0.000 C 
ATOM     18  O   UNL     1       2.872   3.505  18.932  0.00  0.00    +0.000 OA
ENDBRANCH  13  14
ENDBRANCH  12  13
ENDBRANCH   4  12
TORSDOF 4
ENDMDL
MODEL 3
REMARK VINA RESULT:      -6.9      1.124      1.248
REMARK  Name = 
REMARK  4 active torsions:
REMARK  status: ('A' for Active; 'I' for Inactive)
REMARK    1  A    between atoms: C_5  and  C_6
REMARK    2  A    between atoms: C_9  and  C_10
REMARK    3  A    between atoms: C_10  and  C_11
REMARK    4  A    between atoms: C_11  and  N_12
REMARK                            x       y       z     vdW  Elec       q    Type
REMARK                         _______ _______ _______ _____ _____    ______ ____
ROOT
ATOM      1  C   UNL     1       5.678   5.118  16.190  0.00  0.00    +0.000 A 
ATOM      2  N   UNL     1       5.330   6.323  16.672  0.00  0.00    +0.000 NA
ATOM      3  O   UNL     1       4.845   6.050  17.950  0.00  0.00    +0.000 OA
ATOM      4  C   UNL     1       4.942   4.702  18.120  0.00  0.00    +0.000 A 
ATOM      5  N   UNL     1       5.434   4.079  17.074  0.00  0.00    +0.000 NA
ENDROOT
BRANCH   1  10
ATOM      6  C   UNL     1       6.355   3.794  12.752  0.00  0.00    +0.000 A 
ATOM      7  C   UNL     1       7.526   4.480  12.501  0.00  0.00    +0.000 A 
ATOM      8  N   UNL     1       8.062   5.339  13.389  0.00  0.00    +0.000 NA
ATOM      9  N   UNL     1       7.437   5.546  14.593  0.00  0.00    +0.000 NA
ATOM     10  C   UNL     1       6.289   4.889  14.882  0.00  0.00    +0.000 A 
ATOM     11  C   UNL     1       5.721   4.005  13.972  0.00  0.00    +0.000 A 
ENDBRANCH   1  10
BRANCH   4  12
ATOM     12  C   UNL     1       4.541   4.154  19.440  0.00  0.00    +0.000 C 
BRANCH  12  13
ATOM     13  C   UNL     1       4.312   2.643  19.327  0.00  0.00    +0.000 C 
BRANCH  13  14
ATOM     14  N   UNL     1       2.919   2.258  19.597  0.00  0.00    +0.000 NA
ATOM     15  C   UNL     1       2.146   2.219  18.354  0.00  0.00    +0.000 C 
ATOM     16  C   UNL     1       0.742   2.451  18.842  0.00  0.00    +0.000 C 
ATOM     17  C   UNL     1       0.934   3.426  19.978  0.00  0.00    +0.000 C 
ATOM     18  O   UNL     1       2.318   3.362  20.348  0.00  0.00    +0.000 OA
ENDBRANCH  13  14
ENDBRANCH  12  13
ENDBRANCH   4  12
TORSDOF 4
ENDMDL
MODEL 4
REMARK VINA RESULT:      -6.9      0.964      1.037
REMARK  Name = 
REMARK  4 active torsions:
REMARK  status: ('A' for Active; 'I' for Inactive)
REMARK    1  A    between atoms: C_5  and  C_6
REMARK    2  A    between atoms: C_9  and  C_10
REMARK    3  A    between atoms: C_10  and  C_11
REMARK    4  A    between atoms: C_11  and  N_12
REMARK                            x       y       z     vdW  Elec       q    Type
REMARK                         _______ _______ _______ _____ _____    ______ ____
ROOT
ATOM      1  C   UNL     1       6.610   5.107  16.139  0.00  0.00    +0.000 A 
ATOM      2  N   UNL     1       7.582   5.533  16.965  0.00  0.00    +0.000 NA
ATOM      3  O   UNL     1       6.966   5.587  18.213  0.00  0.00    +0.000 OA
ATOM      4  C   UNL     1       5.676   5.192  18.026  0.00  0.00    +0.000 A 
ATOM      5  N   UNL     1       5.399   4.897  16.777  0.00  0.00    +0.000 NA
ENDROOT
BRANCH   1  10
ATOM      6  C   UNL     1       6.222   3.670  12.702  0.00  0.00    +0.000 A 
ATOM      7  C   UNL     1       7.223   4.382  12.074  0.00  0.00    +0.000 A 
ATOM      8  N   UNL     1       7.976   5.291  12.722  0.00  0.00    +0.000 NA
ATOM      9  N   UNL     1       7.755   5.526  14.056  0.00  0.00    +0.000 NA
ATOM     10  C   UNL     1       6.786   4.846  14.712  0.00  0.00    +0.000 A 
ATOM     11  C   UNL     1       5.998   3.909  14.054  0.00  0.00    +0.000 A 
ENDBRANCH   1  10
BRANCH   4  12
ATOM     12  C   UNL     1       4.811   5.104  19.229  0.00  0.00    +0.000 C 
BRANCH  12  13
ATOM     13  C   UNL     1       4.706   3.645  19.688  0.00  0.00    +0.000 C 
BRANCH  13  14
ATOM     14  N   UNL     1       3.340   3.113  19.581  0.00  0.00    +0.000 NA
ATOM     15  C   UNL     1       3.219   2.239  18.411  0.00  0.00    +0.000 C 
ATOM     16  C   UNL     1       1.748   2.320  18.102  0.00  0.00    +0.000 C 
ATOM     17  C   UNL     1       1.411   3.754  18.432  0.00  0.00    +0.000 C 
ATOM     18  O   UNL     1       2.474   4.248  19.259  0.00  0.00    +0.000 OA
ENDBRANCH  13  14
ENDBRANCH  12  13
ENDBRANCH   4  12
TORSDOF 4
ENDMDL
MODEL 5
REMARK VINA RESULT:      -6.9      1.750      2.073
REMARK  Name = 
REMARK  4 active torsions:
REMARK  status: ('A' for Active; 'I' for Inactive)
REMARK    1  A    between atoms: C_5  and  C_6
REMARK    2  A    between atoms: C_9  and  C_10
REMARK    3  A    between atoms: C_10  and  C_11
REMARK    4  A    between atoms: C_11  and  N_12
REMARK                            x       y       z     vdW  Elec       q    Type
REMARK                         _______ _______ _______ _____ _____    ______ ____
ROOT
ATOM      1  C   UNL     1       6.440   4.451  16.425  0.00  0.00    +0.000 A 
ATOM      2  N   UNL     1       7.266   4.758  17.441  0.00  0.00    +0.000 NA
ATOM      3  O   UNL     1       6.527   4.452  18.582  0.00  0.00    +0.000 OA
ATOM      4  C   UNL     1       5.321   3.990  18.150  0.00  0.00    +0.000 A 
ATOM      5  N   UNL     1       5.207   3.978  16.842  0.00  0.00    +0.000 NA
ENDROOT
BRANCH   1  10
ATOM      6  C   UNL     1       6.583   3.842  12.733  0.00  0.00    +0.000 A 
ATOM      7  C   UNL     1       7.535   4.787  12.411  0.00  0.00    +0.000 A 
ATOM      8  N   UNL     1       8.093   5.592  13.336  0.00  0.00    +0.000 NA
ATOM      9  N   UNL     1       7.714   5.477  14.650  0.00  0.00    +0.000 NA
ATOM     10  C   UNL     1       6.787   4.559  15.010  0.00  0.00    +0.000 A 
ATOM     11  C   UNL     1       6.199   3.726  14.065  0.00  0.00    +0.000 A 
ENDBRANCH   1  10
BRANCH   4  12
ATOM     12  C   UNL     1       4.359   3.533  19.185  0.00  0.00    +0.000 C 
BRANCH  12  13
ATOM     13  C   UNL     1       3.042   4.305  19.047  0.00  0.00    +0.000 C 
BRANCH  13  14
ATOM     14  N   UNL     1       3.170   5.719  19.427  0.00  0.00    +0.000 NA
ATOM     15  C   UNL     1       2.064   6.120  20.299  0.00  0.00    +0.000 C 
ATOM     16  C   UNL     1       1.989   7.604  20.061  0.00  0.00    +0.000 C 
ATOM     17  C   UNL     1       2.323   7.729  18.595  0.00  0.00    +0.000 C 
ATOM     18  O   UNL     1       2.953   6.500  18.207  0.00  0.00    +0.000 OA
ENDBRANCH  13  14
ENDBRANCH  12  13
ENDBRANCH   4  12
TORSDOF 4
ENDMDL
MODEL 6
REMARK VINA RESULT:      -6.9      1.163      1.405
REMARK  Name = 
REMARK  4 active torsions:
REMARK  status: ('A' for Active; 'I' for Inactive)
REMARK    1  A    between atoms: C_5  and  C_6
REMARK    2  A    between atoms: C_9  and  C_10
REMARK    3  A    between atoms: C_10  and  C_11
REMARK    4  A    between atoms: C_11  and  N_12
REMARK                            x       y       z     vdW  Elec       q    Type
REMARK                         _______ _______ _______ _____ _____    ______ ____
ROOT
ATOM      1  C   UNL     1       6.003   5.286  15.875  0.00  0.00    +0.000 A 
ATOM      2  N   UNL     1       5.781   6.545  16.288  0.00  0.00    +0.000 NA
ATOM      3  O   UNL     1       5.446   6.406  17.634  0.00  0.00    +0.000 OA
ATOM      4  C   UNL     1       5.494   5.073  17.909  0.00  0.00    +0.000 A 
ATOM      5  N   UNL     1       5.818   4.339  16.869  0.00  0.00    +0.000 NA
ENDROOT
BRANCH   1  10
ATOM      6  C   UNL     1       6.213   3.606  12.534  0.00  0.00    +0.000 A 
ATOM      7  C   UNL     1       7.339   4.248  12.058  0.00  0.00    +0.000 A 
ATOM      8  N   UNL     1       7.989   5.186  12.773  0.00  0.00    +0.000 NA
ATOM      9  N   UNL     1       7.531   5.524  14.021  0.00  0.00    +0.000 NA
ATOM     10  C   UNL     1       6.433   4.916  14.528  0.00  0.00    +0.000 A 
ATOM     11  C   UNL     1       5.749   3.950  13.799  0.00  0.00    +0.000 A 
ENDBRANCH   1  10
BRANCH   4  12
ATOM     12  C   UNL     1       5.233   4.658  19.310  0.00  0.00    +0.000 C 
BRANCH  12  13
ATOM     13  C   UNL     1       4.472   3.328  19.325  0.00  0.00    +0.000 C 
BRANCH  13  14
ATOM     14  N   UNL     1       3.014   3.508  19.378  0.00  0.00    +0.000 NA
ATOM     15  C   UNL     1       2.674   4.743  20.090  0.00  0.00    +0.000 C 
ATOM     16  C   UNL     1       1.285   4.452  20.591  0.00  0.00    +0.000 C 
ATOM     17  C   UNL     1       1.347   2.981  20.925  0.00  0.00    +0.000 C 
ATOM     18  O   UNL     1       2.493   2.451  20.246  0.00  0.00    +0.000 OA
ENDBRANCH  13  14
ENDBRANCH  12  13
ENDBRANCH   4  12
TORSDOF 4
ENDMDL
MODEL 7
REMARK VINA RESULT:      -6.9      2.332      6.708
REMARK  Name = 
REMARK  4 active torsions:
REMARK  status: ('A' for Active; 'I' for Inactive)
REMARK    1  A    between atoms: C_5  and  C_6
REMARK    2  A    between atoms: C_9  and  C_10
REMARK    3  A    between atoms: C_10  and  C_11
REMARK    4  A    between atoms: C_11  and  N_12
REMARK                            x       y       z     vdW  Elec       q    Type
REMARK                         _______ _______ _______ _____ _____    ______ ____
ROOT
ATOM      1  C   UNL     1       3.327   5.015  18.267  0.00  0.00    +0.000 A 
ATOM      2  N   UNL     1       3.297   6.351  18.121  0.00  0.00    +0.000 NA
ATOM      3  O   UNL     1       4.158   6.595  17.053  0.00  0.00    +0.000 OA
ATOM      4  C   UNL     1       4.633   5.382  16.654  0.00  0.00    +0.000 A 
ATOM      5  N   UNL     1       4.168   4.381  17.367  0.00  0.00    +0.000 NA
ENDROOT
BRANCH   1  10
ATOM      6  C   UNL     1       0.753   2.772  19.805  0.00  0.00    +0.000 A 
ATOM      7  C   UNL     1       1.087   2.963  21.131  0.00  0.00    +0.000 A 
ATOM      8  N   UNL     1       2.102   3.764  21.508  0.00  0.00    +0.000 NA
ATOM      9  N   UNL     1       2.836   4.423  20.555  0.00  0.00    +0.000 NA
ATOM     10  C   UNL     1       2.538   4.267  19.243  0.00  0.00    +0.000 A 
ATOM     11  C   UNL     1       1.498   3.439  18.839  0.00  0.00    +0.000 A 
ENDBRANCH   1  10
BRANCH   4  12
ATOM     12  C   UNL     1       5.537   5.360  15.477  0.00  0.00    +0.000 C 
BRANCH  12  13
ATOM     13  C   UNL     1       6.808   4.573  15.813  0.00  0.00    +0.000 C 
BRANCH  13  14
ATOM     14  N   UNL     1       7.735   5.329  16.668  0.00  0.00    +0.000 NA
ATOM     15  C   UNL     1       7.406   5.133  18.082  0.00  0.00    +0.000 C 
ATOM     16  C   UNL     1       7.960   6.380  18.716  0.00  0.00    +0.000 C 
ATOM     17  C   UNL     1       7.699   7.437  17.671  0.00  0.00    +0.000 C 
ATOM     18  O   UNL     1       7.453   6.747  16.437  0.00  0.00    +0.000 OA
ENDBRANCH  13  14
ENDBRANCH  12  13
ENDBRANCH   4  12
TORSDOF 4
ENDMDL
MODEL 8
REMARK VINA RESULT:      -6.9      1.564      1.903
REMARK  Name = 
REMARK  4 active torsions:
REMARK  status: ('A' for Active; 'I' for Inactive)
REMARK    1  A    between atoms: C_5  and  C_6
REMARK    2  A    between atoms: C_9  and  C_10
REMARK    3  A    between atoms: C_10  and  C_11
REMARK    4  A    between atoms: C_11  and  N_12
REMARK                            x       y       z     vdW  Elec       q    Type
REMARK                         _______ _______ _______ _____ _____    ______ ____
ROOT
ATOM      1  C   UNL     1       5.424   4.427  16.193  0.00  0.00    +0.000 A 
ATOM      2  N   UNL     1       4.491   3.479  16.380  0.00  0.00    +0.000 NA
ATOM      3  O   UNL     1       3.984   3.749  17.650  0.00  0.00    +0.000 OA
ATOM      4  C   UNL     1       4.660   4.837  18.114  0.00  0.00    +0.000 A 
ATOM      5  N   UNL     1       5.561   5.287  17.271  0.00  0.00    +0.000 NA
ENDROOT
BRANCH   1  10
ATOM      6  C   UNL     1       6.675   4.066  12.681  0.00  0.00    +0.000 A 
ATOM      7  C   UNL     1       7.768   4.905  12.770  0.00  0.00    +0.000 A 
ATOM      8  N   UNL     1       8.077   5.566  13.903  0.00  0.00    +0.000 NA
ATOM      9  N   UNL     1       7.290   5.407  15.016  0.00  0.00    +0.000 NA
ATOM     10  C   UNL     1       6.212   4.590  14.973  0.00  0.00    +0.000 A 
ATOM     11  C   UNL     1       5.878   3.906  13.809  0.00  0.00    +0.000 A 
ENDBRANCH   1  10
BRANCH   4  12
ATOM     12  C   UNL     1       4.260   5.371  19.439  0.00  0.00    +0.000 C 
BRANCH  12  13
ATOM     13  C   UNL     1       2.853   5.972  19.354  0.00  0.00    +0.000 C 
BRANCH  13  14
ATOM     14  N   UNL     1       1.851   5.179  20.080  0.00  0.00    +0.000 NA
ATOM     15  C   UNL     1       2.498   4.318  21.073  0.00  0.00    +0.000 C 
ATOM     16  C   UNL     1       1.500   3.203  21.229  0.00  0.00    +0.000 C 
ATOM     17  C   UNL     1       0.954   3.038  19.832  0.00  0.00    +0.000 C 
ATOM     18  O   UNL     1       1.287   4.234  19.114  0.00  0.00    +0.000 OA
ENDBRANCH  13  14
ENDBRANCH  12  13
ENDBRANCH   4  12
TORSDOF 4
ENDMDL
MODEL 9
REMARK VINA RESULT:      -6.9      1.441      1.620
REMARK  Name = 
REMARK  4 active torsions:
REMARK  status: ('A' for Active; 'I' for Inactive)
REMARK    1  A    between atoms: C_5  and  C_6
REMARK    2  A    between atoms: C_9  and  C_10
REMARK    3  A    between atoms: C_10  and  C_11
REMARK    4  A    between atoms: C_11  and  N_12
REMARK                            x       y       z     vdW  Elec       q    Type
REMARK                         _______ _______ _______ _____ _____    ______ ____
ROOT
ATOM      1  C   UNL     1       6.741   4.531  16.365  0.00  0.00    +0.000 A 
ATOM      2  N   UNL     1       7.713   4.624  17.289  0.00  0.00    +0.000 NA
ATOM      3  O   UNL     1       7.050   4.427  18.499  0.00  0.00    +0.000 OA
ATOM      4  C   UNL     1       5.736   4.236  18.193  0.00  0.00    +0.000 A 
ATOM      5  N   UNL     1       5.487   4.300  16.906  0.00  0.00    +0.000 NA
ENDROOT
BRANCH   1  10
ATOM      6  C   UNL     1       6.514   3.906  12.679  0.00  0.00    +0.000 A 
ATOM      7  C   UNL     1       7.458   4.823  12.262  0.00  0.00    +0.000 A 
ATOM      8  N   UNL     1       8.123   5.614  13.126  0.00  0.00    +0.000 NA
ATOM      9  N   UNL     1       7.868   5.514  14.470  0.00  0.00    +0.000 NA
ATOM     10  C   UNL     1       6.954   4.624  14.922  0.00  0.00    +0.000 A 
ATOM     11  C   UNL     1       6.255   3.806  14.042  0.00  0.00    +0.000 A 
ENDBRANCH   1  10
BRANCH   4  12
ATOM     12  C   UNL     1       4.813   3.940  19.318  0.00  0.00    +0.000 C 
BRANCH  12  13
ATOM     13  C   UNL     1       3.427   3.581  18.771  0.00  0.00    +0.000 C 
BRANCH  13  14
ATOM     14  N   UNL     1       2.453   4.671  18.932  0.00  0.00    +0.000 NA
ATOM     15  C   UNL     1       2.531   5.601  17.803  0.00  0.00    +0.000 C 
ATOM     16  C   UNL     1       2.006   6.877  18.401  0.00  0.00    +0.000 C 
ATOM     17  C   UNL     1       2.534   6.831  19.814  0.00  0.00    +0.000 C 
ATOM     18  O   UNL     1       2.906   5.470  20.073  0.00  0.00    +0.000 OA
ENDBRANCH  13  14
ENDBRANCH  12  13
ENDBRANCH   4  12
TORSDOF 4
ENDMDL
