MODEL 1
REMARK VINA RESULT:      -8.4      0.000      0.000
REMARK  Name = 
REMARK  4 active torsions:
REMARK  status: ('A' for Active; 'I' for Inactive)
REMARK    1  A    between atoms: C_4  and  C_5
REMARK    2  A    between atoms: C_5  and  C_6
REMARK    3  A    between atoms: C_9  and  S_10
REMARK    4  A    between atoms: N_11  and  C_12
REMARK                            x       y       z     vdW  Elec       q    Type
REMARK                         _______ _______ _______ _____ _____    ______ ____
ROOT
ATOM      1  O   UNL     1       1.301   8.338  22.354  0.00  0.00    +0.000 OA
ATOM      2  C   UNL     1       1.329   8.543  21.145  0.00  0.00    +0.000 A 
ATOM      3  N   UNL     1       2.084   7.775  20.292  0.00  0.00    +0.000 N 
ATOM      4  C   UNL     1       2.160   7.979  18.933  0.00  0.00    +0.000 A 
ATOM      5  N   UNL     1       1.486   8.902  18.307  0.00  0.00    +0.000 NA
ATOM      6  C   UNL     1       0.731   9.700  19.110  0.00  0.00    +0.000 A 
ATOM      7  S   UNL     1      -0.186  11.003  18.489  0.00  0.00    +0.000 S 
ATOM      8  C   UNL     1      -0.757  11.423  20.037  0.00  0.00    +0.000 A 
ATOM      9  C   UNL     1      -0.268  10.593  21.026  0.00  0.00    +0.000 A 
ATOM     10  C   UNL     1       0.597   9.596  20.479  0.00  0.00    +0.000 A 
ATOM     11  C   UNL     1      -0.646  10.750  22.470  0.00  0.00    +0.000 C 
ATOM     12  C   UNL     1      -1.320  12.102  22.746  0.00  0.00    +0.000 C 
ATOM     13  C   UNL     1      -2.332  12.474  21.654  0.00  0.00    +0.000 C 
ATOM     14  C   UNL     1      -1.661  12.593  20.274  0.00  0.00    +0.000 C 
ATOM     15  H   UNL     1       2.722   7.131  20.747  0.00  0.00    +0.000 HD
ENDROOT
BRANCH   4  16
ATOM     16  C   UNL     1       3.000   7.008  18.117  0.00  0.00    +0.000 C 
BRANCH  16  17
ATOM     17  C   UNL     1       2.767   5.567  18.444  0.00  0.00    +0.000 A 
ATOM     18  N   UNL     1       1.678   5.093  19.023  0.00  0.00    +0.000 NA
ATOM     19  N   UNL     1       1.743   3.735  19.039  0.00  0.00    +0.000 NA
ATOM     20  C   UNL     1       2.878   3.382  18.487  0.00  0.00    +0.000 A 
ATOM     21  N   UNL     1       3.581   4.498  18.051  0.00  0.00    +0.000 N 
BRANCH  21  22
ATOM     22  C   UNL     1       4.817   4.547  17.341  0.00  0.00    +0.000 A 
ATOM     23  C   UNL     1       4.838   4.397  15.947  0.00  0.00    +0.000 A 
ATOM     24  C   UNL     1       6.048   4.390  15.252  0.00  0.00    +0.000 A 
ATOM     25  C   UNL     1       7.247   4.565  15.935  0.00  0.00    +0.000 A 
ATOM     26  C   UNL     1       7.236   4.747  17.315  0.00  0.00    +0.000 A 
ATOM     27  C   UNL     1       6.029   4.731  18.018  0.00  0.00    +0.000 A 
ENDBRANCH  21  22
BRANCH  20  28
ATOM     28  S   UNL     1       3.449   1.745  18.506  0.00  0.00    +0.000 S 
ATOM     29  H   UNL     1       2.249   1.150  18.448  0.00  0.00    +0.000 HD
ENDBRANCH  20  28
ENDBRANCH  16  17
ENDBRANCH   4  16
TORSDOF 4
ENDMDL
MODEL 2
REMARK VINA RESULT:      -8.3      0.724      1.277
REMARK  Name = 
REMARK  4 active torsions:
REMARK  status: ('A' for Active; 'I' for Inactive)
REMARK    1  A    between atoms: C_4  and  C_5
REMARK    2  A    between atoms: C_5  and  C_6
REMARK    3  A    between atoms: C_9  and  S_10
REMARK    4  A    between atoms: N_11  and  C_12
REMARK                            x       y       z     vdW  Elec       q    Type
REMARK                         _______ _______ _______ _____ _____    ______ ____
ROOT
ATOM      1  O   UNL     1       1.101   7.888  22.045  0.00  0.00    +0.000 OA
ATOM      2  C   UNL     1       1.229   8.290  20.892  0.00  0.00    +0.000 A 
ATOM      3  N   UNL     1       1.987   7.617  19.965  0.00  0.00    +0.000 N 
ATOM      4  C   UNL     1       2.173   8.038  18.669  0.00  0.00    +0.000 A 
ATOM      5  N   UNL     1       1.613   9.106  18.174  0.00  0.00    +0.000 NA
ATOM      6  C   UNL     1       0.862   9.817  19.057  0.00  0.00    +0.000 A 
ATOM      7  S   UNL     1       0.087  11.276  18.618  0.00  0.00    +0.000 S 
ATOM      8  C   UNL     1      -0.562  11.476  20.180  0.00  0.00    +0.000 A 
ATOM      9  C   UNL     1      -0.205  10.455  21.037  0.00  0.00    +0.000 A 
ATOM     10  C   UNL     1       0.623   9.496  20.378  0.00  0.00    +0.000 A 
ATOM     11  C   UNL     1      -0.673  10.398  22.462  0.00  0.00    +0.000 C 
ATOM     12  C   UNL     1      -1.267  11.735  22.928  0.00  0.00    +0.000 C 
ATOM     13  C   UNL     1      -2.170  12.367  21.859  0.00  0.00    +0.000 C 
ATOM     14  C   UNL     1      -1.395  12.660  20.562  0.00  0.00    +0.000 C 
ATOM     15  H   UNL     1       2.543   6.855  20.338  0.00  0.00    +0.000 HD
ENDROOT
BRANCH   4  16
ATOM     16  C   UNL     1       2.998   7.152  17.747  0.00  0.00    +0.000 C 
BRANCH  16  17
ATOM     17  C   UNL     1       2.692   5.692  17.861  0.00  0.00    +0.000 A 
ATOM     18  N   UNL     1       1.487   5.165  17.737  0.00  0.00    +0.000 NA
ATOM     19  N   UNL     1       1.596   3.809  17.755  0.00  0.00    +0.000 NA
ATOM     20  C   UNL     1       2.864   3.511  17.907  0.00  0.00    +0.000 A 
ATOM     21  N   UNL     1       3.638   4.664  17.953  0.00  0.00    +0.000 N 
BRANCH  21  22
ATOM     22  C   UNL     1       5.057   4.778  18.037  0.00  0.00    +0.000 A 
ATOM     23  C   UNL     1       5.661   5.241  19.215  0.00  0.00    +0.000 A 
ATOM     24  C   UNL     1       7.045   5.407  19.285  0.00  0.00    +0.000 A 
ATOM     25  C   UNL     1       7.844   5.084  18.192  0.00  0.00    +0.000 A 
ATOM     26  C   UNL     1       7.258   4.595  17.029  0.00  0.00    +0.000 A 
ATOM     27  C   UNL     1       5.870   4.449  16.946  0.00  0.00    +0.000 A 
ENDBRANCH  21  22
BRANCH  20  28
ATOM     28  S   UNL     1       3.408   1.891  18.198  0.00  0.00    +0.000 S 
ATOM     29  H   UNL     1       2.908   1.345  17.081  0.00  0.00    +0.000 HD
ENDBRANCH  20  28
ENDBRANCH  16  17
ENDBRANCH   4  16
TORSDOF 4
ENDMDL
MODEL 3
REMARK VINA RESULT:      -8.3      0.835      1.233
REMARK  Name = 
REMARK  4 active torsions:
REMARK  status: ('A' for Active; 'I' for Inactive)
REMARK    1  A    between atoms: C_4  and  C_5
REMARK    2  A    between atoms: C_5  and  C_6
REMARK    3  A    between atoms: C_9  and  S_10
REMARK    4  A    between atoms: N_11  and  C_12
REMARK                            x       y       z     vdW  Elec       q    Type
REMARK                         _______ _______ _______ _____ _____    ______ ____
ROOT
ATOM      1  O   UNL     1       1.163   8.902  22.748  0.00  0.00    +0.000 OA
ATOM      2  C   UNL     1       1.124   9.003  21.526  0.00  0.00    +0.000 A 
ATOM      3  N   UNL     1       1.879   8.202  20.703  0.00  0.00    +0.000 N 
ATOM      4  C   UNL     1       1.880   8.291  19.330  0.00  0.00    +0.000 A 
ATOM      5  N   UNL     1       1.131   9.123  18.664  0.00  0.00    +0.000 NA
ATOM      6  C   UNL     1       0.373   9.950  19.434  0.00  0.00    +0.000 A 
ATOM      7  S   UNL     1      -0.639  11.148  18.753  0.00  0.00    +0.000 S 
ATOM      8  C   UNL     1      -1.159  11.672  20.288  0.00  0.00    +0.000 A 
ATOM      9  C   UNL     1      -0.582  10.955  21.316  0.00  0.00    +0.000 A 
ATOM     10  C   UNL     1       0.308   9.958  20.812  0.00  0.00    +0.000 A 
ATOM     11  C   UNL     1      -0.901  11.218  22.759  0.00  0.00    +0.000 C 
ATOM     12  C   UNL     1      -1.631  12.554  22.955  0.00  0.00    +0.000 C 
ATOM     13  C   UNL     1      -2.711  12.781  21.888  0.00  0.00    +0.000 C 
ATOM     14  C   UNL     1      -2.111  12.813  20.471  0.00  0.00    +0.000 C 
ATOM     15  H   UNL     1       2.569   7.631  21.178  0.00  0.00    +0.000 HD
ENDROOT
BRANCH   4  16
ATOM     16  C   UNL     1       2.731   7.295  18.557  0.00  0.00    +0.000 C 
BRANCH  16  17
ATOM     17  C   UNL     1       2.825   5.943  19.190  0.00  0.00    +0.000 A 
ATOM     18  N   UNL     1       1.930   5.437  20.020  0.00  0.00    +0.000 NA
ATOM     19  N   UNL     1       2.258   4.145  20.287  0.00  0.00    +0.000 NA
ATOM     20  C   UNL     1       3.361   3.868  19.635  0.00  0.00    +0.000 A 
ATOM     21  N   UNL     1       3.774   4.960  18.883  0.00  0.00    +0.000 N 
BRANCH  21  22
ATOM     22  C   UNL     1       4.876   5.053  17.983  0.00  0.00    +0.000 A 
ATOM     23  C   UNL     1       6.095   5.600  18.410  0.00  0.00    +0.000 A 
ATOM     24  C   UNL     1       7.160   5.743  17.520  0.00  0.00    +0.000 A 
ATOM     25  C   UNL     1       7.032   5.313  16.203  0.00  0.00    +0.000 A 
ATOM     26  C   UNL     1       5.838   4.741  15.775  0.00  0.00    +0.000 A 
ATOM     27  C   UNL     1       4.761   4.617  16.657  0.00  0.00    +0.000 A 
ENDBRANCH  21  22
BRANCH  20  28
ATOM     28  S   UNL     1       4.235   2.391  19.876  0.00  0.00    +0.000 S 
ATOM     29  H   UNL     1       5.441   2.852  19.517  0.00  0.00    +0.000 HD
ENDBRANCH  20  28
ENDBRANCH  16  17
ENDBRANCH   4  16
TORSDOF 4
ENDMDL
MODEL 4
REMARK VINA RESULT:      -8.2      1.557      2.326
REMARK  Name = 
REMARK  4 active torsions:
REMARK  status: ('A' for Active; 'I' for Inactive)
REMARK    1  A    between atoms: C_4  and  C_5
REMARK    2  A    between atoms: C_5  and  C_6
REMARK    3  A    between atoms: C_9  and  S_10
REMARK    4  A    between atoms: N_11  and  C_12
REMARK                            x       y       z     vdW  Elec       q    Type
REMARK                         _______ _______ _______ _____ _____    ______ ____
ROOT
ATOM      1  O   UNL     1      -0.006  10.789  17.727  0.00  0.00    +0.000 OA
ATOM      2  C   UNL     1       0.575   9.939  18.393  0.00  0.00    +0.000 A 
ATOM      3  N   UNL     1       1.417   9.015  17.822  0.00  0.00    +0.000 N 
ATOM      4  C   UNL     1       2.077   8.034  18.526  0.00  0.00    +0.000 A 
ATOM      5  N   UNL     1       1.999   7.904  19.821  0.00  0.00    +0.000 NA
ATOM      6  C   UNL     1       1.166   8.788  20.433  0.00  0.00    +0.000 A 
ATOM      7  S   UNL     1       0.888   8.750  22.120  0.00  0.00    +0.000 S 
ATOM      8  C   UNL     1      -0.185  10.071  22.037  0.00  0.00    +0.000 A 
ATOM      9  C   UNL     1      -0.340  10.547  20.750  0.00  0.00    +0.000 A 
ATOM     10  C   UNL     1       0.447   9.796  19.825  0.00  0.00    +0.000 A 
ATOM     11  C   UNL     1      -1.218  11.721  20.426  0.00  0.00    +0.000 C 
ATOM     12  C   UNL     1      -2.157  12.077  21.588  0.00  0.00    +0.000 C 
ATOM     13  C   UNL     1      -1.442  12.018  22.945  0.00  0.00    +0.000 C 
ATOM     14  C   UNL     1      -0.896  10.610  23.239  0.00  0.00    +0.000 C 
ATOM     15  H   UNL     1       1.407   8.996  16.809  0.00  0.00    +0.000 HD
ENDROOT
BRANCH   4  16
ATOM     16  C   UNL     1       3.017   7.119  17.756  0.00  0.00    +0.000 C 
BRANCH  16  17
ATOM     17  C   UNL     1       2.710   5.662  17.895  0.00  0.00    +0.000 A 
ATOM     18  N   UNL     1       1.505   5.133  17.782  0.00  0.00    +0.000 NA
ATOM     19  N   UNL     1       1.613   3.778  17.824  0.00  0.00    +0.000 NA
ATOM     20  C   UNL     1       2.881   3.482  17.979  0.00  0.00    +0.000 A 
ATOM     21  N   UNL     1       3.655   4.634  18.005  0.00  0.00    +0.000 N 
BRANCH  21  22
ATOM     22  C   UNL     1       5.074   4.749  18.085  0.00  0.00    +0.000 A 
ATOM     23  C   UNL     1       5.682   5.212  19.261  0.00  0.00    +0.000 A 
ATOM     24  C   UNL     1       7.066   5.378  19.328  0.00  0.00    +0.000 A 
ATOM     25  C   UNL     1       7.862   5.055  18.233  0.00  0.00    +0.000 A 
ATOM     26  C   UNL     1       7.273   4.566  17.071  0.00  0.00    +0.000 A 
ATOM     27  C   UNL     1       5.885   4.420  16.991  0.00  0.00    +0.000 A 
ENDBRANCH  21  22
BRANCH  20  28
ATOM     28  S   UNL     1       3.423   1.867  18.298  0.00  0.00    +0.000 S 
ATOM     29  H   UNL     1       2.436   1.230  17.653  0.00  0.00    +0.000 HD
ENDBRANCH  20  28
ENDBRANCH  16  17
ENDBRANCH   4  16
TORSDOF 4
ENDMDL
MODEL 5
REMARK VINA RESULT:      -8.1      2.093      2.783
REMARK  Name = 
REMARK  4 active torsions:
REMARK  status: ('A' for Active; 'I' for Inactive)
REMARK    1  A    between atoms: C_4  and  C_5
REMARK    2  A    between atoms: C_5  and  C_6
REMARK    3  A    between atoms: C_9  and  S_10
REMARK    4  A    between atoms: N_11  and  C_12
REMARK                            x       y       z     vdW  Elec       q    Type
REMARK                         _______ _______ _______ _____ _____    ______ ____
ROOT
ATOM      1  O   UNL     1       1.925   9.277  17.276  0.00  0.00    +0.000 OA
ATOM      2  C   UNL     1       1.887   8.701  18.358  0.00  0.00    +0.000 A 
ATOM      3  N   UNL     1       2.536   7.509  18.574  0.00  0.00    +0.000 N 
ATOM      4  C   UNL     1       2.507   6.820  19.764  0.00  0.00    +0.000 A 
ATOM      5  N   UNL     1       1.889   7.251  20.828  0.00  0.00    +0.000 NA
ATOM      6  C   UNL     1       1.219   8.422  20.663  0.00  0.00    +0.000 A 
ATOM      7  S   UNL     1       0.304   9.128  21.923  0.00  0.00    +0.000 S 
ATOM      8  C   UNL     1      -0.157  10.440  20.940  0.00  0.00    +0.000 A 
ATOM      9  C   UNL     1       0.371  10.360  19.667  0.00  0.00    +0.000 A 
ATOM     10  C   UNL     1       1.167   9.185  19.514  0.00  0.00    +0.000 A 
ATOM     11  C   UNL     1       0.124  11.411  18.625  0.00  0.00    +0.000 C 
ATOM     12  C   UNL     1      -1.025  12.352  19.015  0.00  0.00    +0.000 C 
ATOM     13  C   UNL     1      -0.963  12.753  20.495  0.00  0.00    +0.000 C 
ATOM     14  C   UNL     1      -1.066  11.529  21.421  0.00  0.00    +0.000 C 
ATOM     15  H   UNL     1       2.920   7.074  17.742  0.00  0.00    +0.000 HD
ENDROOT
BRANCH   4  16
ATOM     16  C   UNL     1       3.322   5.539  19.861  0.00  0.00    +0.000 C 
BRANCH  16  17
ATOM     17  C   UNL     1       3.560   4.860  18.550  0.00  0.00    +0.000 A 
ATOM     18  N   UNL     1       2.667   4.128  17.909  0.00  0.00    +0.000 NA
ATOM     19  N   UNL     1       3.169   3.786  16.692  0.00  0.00    +0.000 NA
ATOM     20  C   UNL     1       4.374   4.295  16.598  0.00  0.00    +0.000 A 
ATOM     21  N   UNL     1       4.689   5.024  17.737  0.00  0.00    +0.000 N 
BRANCH  21  22
ATOM     22  C   UNL     1       5.862   5.789  18.006  0.00  0.00    +0.000 A 
ATOM     23  C   UNL     1       6.098   6.988  17.317  0.00  0.00    +0.000 A 
ATOM     24  C   UNL     1       7.270   7.713  17.536  0.00  0.00    +0.000 A 
ATOM     25  C   UNL     1       8.205   7.268  18.466  0.00  0.00    +0.000 A 
ATOM     26  C   UNL     1       7.967   6.096  19.177  0.00  0.00    +0.000 A 
ATOM     27  C   UNL     1       6.805   5.354  18.945  0.00  0.00    +0.000 A 
ENDBRANCH  21  22
BRANCH  20  28
ATOM     28  S   UNL     1       5.444   3.909  15.291  0.00  0.00    +0.000 S 
ATOM     29  H   UNL     1       5.016   4.855  14.442  0.00  0.00    +0.000 HD
ENDBRANCH  20  28
ENDBRANCH  16  17
ENDBRANCH   4  16
TORSDOF 4
ENDMDL
MODEL 6
REMARK VINA RESULT:      -8.1      1.211      1.381
REMARK  Name = 
REMARK  4 active torsions:
REMARK  status: ('A' for Active; 'I' for Inactive)
REMARK    1  A    between atoms: C_4  and  C_5
REMARK    2  A    between atoms: C_5  and  C_6
REMARK    3  A    between atoms: C_9  and  S_10
REMARK    4  A    between atoms: N_11  and  C_12
REMARK                            x       y       z     vdW  Elec       q    Type
REMARK                         _______ _______ _______ _____ _____    ______ ____
ROOT
ATOM      1  O   UNL     1       0.779   9.420  23.427  0.00  0.00    +0.000 OA
ATOM      2  C   UNL     1       0.806   9.374  22.201  0.00  0.00    +0.000 A 
ATOM      3  N   UNL     1       1.627   8.507  21.521  0.00  0.00    +0.000 N 
ATOM      4  C   UNL     1       1.703   8.432  20.149  0.00  0.00    +0.000 A 
ATOM      5  N   UNL     1       0.969   9.154  19.350  0.00  0.00    +0.000 NA
ATOM      6  C   UNL     1       0.147  10.040  19.974  0.00  0.00    +0.000 A 
ATOM      7  S   UNL     1      -0.857  11.115  19.102  0.00  0.00    +0.000 S 
ATOM      8  C   UNL     1      -1.476  11.799  20.534  0.00  0.00    +0.000 A 
ATOM      9  C   UNL     1      -0.938  11.229  21.669  0.00  0.00    +0.000 A 
ATOM     10  C   UNL     1       0.005  10.210  21.336  0.00  0.00    +0.000 A 
ATOM     11  C   UNL     1      -1.344  11.650  23.052  0.00  0.00    +0.000 C 
ATOM     12  C   UNL     1      -2.120  12.975  23.047  0.00  0.00    +0.000 C 
ATOM     13  C   UNL     1      -3.144  13.037  21.906  0.00  0.00    +0.000 C 
ATOM     14  C   UNL     1      -2.468  12.921  20.528  0.00  0.00    +0.000 C 
ATOM     15  H   UNL     1       2.305   8.020  22.096  0.00  0.00    +0.000 HD
ENDROOT
BRANCH   4  16
ATOM     16  C   UNL     1       2.622   7.381  19.546  0.00  0.00    +0.000 C 
BRANCH  16  17
ATOM     17  C   UNL     1       2.249   5.972  19.882  0.00  0.00    +0.000 A 
ATOM     18  N   UNL     1       1.187   5.622  20.585  0.00  0.00    +0.000 NA
ATOM     19  N   UNL     1       1.079   4.266  20.576  0.00  0.00    +0.000 NA
ATOM     20  C   UNL     1       2.084   3.789  19.881  0.00  0.00    +0.000 A 
ATOM     21  N   UNL     1       2.865   4.820  19.376  0.00  0.00    +0.000 N 
BRANCH  21  22
ATOM     22  C   UNL     1       4.001   4.735  18.518  0.00  0.00    +0.000 A 
ATOM     23  C   UNL     1       3.834   4.503  17.145  0.00  0.00    +0.000 A 
ATOM     24  C   UNL     1       4.943   4.365  16.309  0.00  0.00    +0.000 A 
ATOM     25  C   UNL     1       6.229   4.488  16.827  0.00  0.00    +0.000 A 
ATOM     26  C   UNL     1       6.405   4.748  18.182  0.00  0.00    +0.000 A 
ATOM     27  C   UNL     1       5.299   4.865  19.028  0.00  0.00    +0.000 A 
ENDBRANCH  21  22
BRANCH  20  28
ATOM     28  S   UNL     1       2.438   2.094  19.808  0.00  0.00    +0.000 S 
ATOM     29  H   UNL     1       3.447   2.098  20.691  0.00  0.00    +0.000 HD
ENDBRANCH  20  28
ENDBRANCH  16  17
ENDBRANCH   4  16
TORSDOF 4
ENDMDL
MODEL 7
REMARK VINA RESULT:      -8.0      2.556      8.545
REMARK  Name = 
REMARK  4 active torsions:
REMARK  status: ('A' for Active; 'I' for Inactive)
REMARK    1  A    between atoms: C_4  and  C_5
REMARK    2  A    between atoms: C_5  and  C_6
REMARK    3  A    between atoms: C_9  and  S_10
REMARK    4  A    between atoms: N_11  and  C_12
REMARK                            x       y       z     vdW  Elec       q    Type
REMARK                         _______ _______ _______ _____ _____    ______ ____
ROOT
ATOM      1  O   UNL     1       2.796   8.520  17.348  0.00  0.00    +0.000 OA
ATOM      2  C   UNL     1       2.322   8.169  18.423  0.00  0.00    +0.000 A 
ATOM      3  N   UNL     1       1.560   9.012  19.195  0.00  0.00    +0.000 N 
ATOM      4  C   UNL     1       1.022   8.668  20.414  0.00  0.00    +0.000 A 
ATOM      5  N   UNL     1       1.150   7.485  20.946  0.00  0.00    +0.000 NA
ATOM      6  C   UNL     1       1.909   6.615  20.226  0.00  0.00    +0.000 A 
ATOM      7  S   UNL     1       2.240   5.031  20.778  0.00  0.00    +0.000 S 
ATOM      8  C   UNL     1       3.172   4.677  19.397  0.00  0.00    +0.000 A 
ATOM      9  C   UNL     1       3.241   5.738  18.518  0.00  0.00    +0.000 A 
ATOM     10  C   UNL     1       2.506   6.860  19.007  0.00  0.00    +0.000 A 
ATOM     11  C   UNL     1       3.988   5.660  17.218  0.00  0.00    +0.000 C 
ATOM     12  C   UNL     1       4.921   4.442  17.161  0.00  0.00    +0.000 C 
ATOM     13  C   UNL     1       4.256   3.180  17.729  0.00  0.00    +0.000 C 
ATOM     14  C   UNL     1       3.861   3.361  19.205  0.00  0.00    +0.000 C 
ATOM     15  H   UNL     1       1.542   9.977  18.884  0.00  0.00    +0.000 HD
ENDROOT
BRANCH   4  16
ATOM     16  C   UNL     1       0.155   9.698  21.122  0.00  0.00    +0.000 C 
BRANCH  16  17
ATOM     17  C   UNL     1       0.409  11.110  20.701  0.00  0.00    +0.000 A 
ATOM     18  N   UNL     1       1.439  11.839  21.094  0.00  0.00    +0.000 NA
ATOM     19  N   UNL     1       1.432  13.015  20.412  0.00  0.00    +0.000 NA
ATOM     20  C   UNL     1       0.390  13.011  19.616  0.00  0.00    +0.000 A 
ATOM     21  N   UNL     1      -0.303  11.812  19.720  0.00  0.00    +0.000 N 
BRANCH  21  22
ATOM     22  C   UNL     1      -1.442  11.377  18.982  0.00  0.00    +0.000 A 
ATOM     23  C   UNL     1      -1.309  10.400  17.984  0.00  0.00    +0.000 A 
ATOM     24  C   UNL     1      -2.411  10.010  17.221  0.00  0.00    +0.000 A 
ATOM     25  C   UNL     1      -3.662  10.567  17.464  0.00  0.00    +0.000 A 
ATOM     26  C   UNL     1      -3.812  11.516  18.472  0.00  0.00    +0.000 A 
ATOM     27  C   UNL     1      -2.708  11.926  19.224  0.00  0.00    +0.000 A 
ENDBRANCH  21  22
BRANCH  20  28
ATOM     28  S   UNL     1      -0.106  14.416  18.731  0.00  0.00    +0.000 S 
ATOM     29  H   UNL     1      -0.199  15.248  19.778  0.00  0.00    +0.000 HD
ENDBRANCH  20  28
ENDBRANCH  16  17
ENDBRANCH   4  16
TORSDOF 4
ENDMDL
MODEL 8
REMARK VINA RESULT:      -8.0      1.396      1.932
REMARK  Name = 
REMARK  4 active torsions:
REMARK  status: ('A' for Active; 'I' for Inactive)
REMARK    1  A    between atoms: C_4  and  C_5
REMARK    2  A    between atoms: C_5  and  C_6
REMARK    3  A    between atoms: C_9  and  S_10
REMARK    4  A    between atoms: N_11  and  C_12
REMARK                            x       y       z     vdW  Elec       q    Type
REMARK                         _______ _______ _______ _____ _____    ______ ____
ROOT
ATOM      1  O   UNL     1      -0.082  10.507  17.628  0.00  0.00    +0.000 OA
ATOM      2  C   UNL     1       0.527   9.765  18.392  0.00  0.00    +0.000 A 
ATOM      3  N   UNL     1       1.405   8.810  17.938  0.00  0.00    +0.000 N 
ATOM      4  C   UNL     1       2.095   7.946  18.756  0.00  0.00    +0.000 A 
ATOM      5  N   UNL     1       2.016   7.972  20.057  0.00  0.00    +0.000 NA
ATOM      6  C   UNL     1       1.148   8.892  20.557  0.00  0.00    +0.000 A 
ATOM      7  S   UNL     1       0.862   9.048  22.235  0.00  0.00    +0.000 S 
ATOM      8  C   UNL     1      -0.257  10.309  21.992  0.00  0.00    +0.000 A 
ATOM      9  C   UNL     1      -0.422  10.620  20.657  0.00  0.00    +0.000 A 
ATOM     10  C   UNL     1       0.396   9.792  19.831  0.00  0.00    +0.000 A 
ATOM     11  C   UNL     1      -1.340  11.713  20.193  0.00  0.00    +0.000 C 
ATOM     12  C   UNL     1      -2.299  12.172  21.301  0.00  0.00    +0.000 C 
ATOM     13  C   UNL     1      -1.589  12.305  22.656  0.00  0.00    +0.000 C 
ATOM     14  C   UNL     1      -0.993  10.963  23.119  0.00  0.00    +0.000 C 
ATOM     15  H   UNL     1       1.401   8.668  16.934  0.00  0.00    +0.000 HD
ENDROOT
BRANCH   4  16
ATOM     16  C   UNL     1       3.073   6.980  18.103  0.00  0.00    +0.000 C 
BRANCH  16  17
ATOM     17  C   UNL     1       2.792   5.538  18.382  0.00  0.00    +0.000 A 
ATOM     18  N   UNL     1       1.653   5.073  18.866  0.00  0.00    +0.000 NA
ATOM     19  N   UNL     1       1.694   3.714  18.859  0.00  0.00    +0.000 NA
ATOM     20  C   UNL     1       2.863   3.351  18.388  0.00  0.00    +0.000 A 
ATOM     21  N   UNL     1       3.615   4.462  18.030  0.00  0.00    +0.000 N 
BRANCH  21  22
ATOM     22  C   UNL     1       4.902   4.503  17.417  0.00  0.00    +0.000 A 
ATOM     23  C   UNL     1       5.030   4.350  16.029  0.00  0.00    +0.000 A 
ATOM     24  C   UNL     1       6.290   4.335  15.430  0.00  0.00    +0.000 A 
ATOM     25  C   UNL     1       7.435   4.503  16.203  0.00  0.00    +0.000 A 
ATOM     26  C   UNL     1       7.318   4.686  17.578  0.00  0.00    +0.000 A 
ATOM     27  C   UNL     1       6.060   4.679  18.186  0.00  0.00    +0.000 A 
ENDBRANCH  21  22
BRANCH  20  28
ATOM     28  S   UNL     1       3.403   1.704  18.417  0.00  0.00    +0.000 S 
ATOM     29  H   UNL     1       3.881   1.708  19.669  0.00  0.00    +0.000 HD
ENDBRANCH  20  28
ENDBRANCH  16  17
ENDBRANCH   4  16
TORSDOF 4
ENDMDL
MODEL 9
REMARK VINA RESULT:      -7.7      1.538      2.220
REMARK  Name = 
REMARK  4 active torsions:
REMARK  status: ('A' for Active; 'I' for Inactive)
REMARK    1  A    between atoms: C_4  and  C_5
REMARK    2  A    between atoms: C_5  and  C_6
REMARK    3  A    between atoms: C_9  and  S_10
REMARK    4  A    between atoms: N_11  and  C_12
REMARK                            x       y       z     vdW  Elec       q    Type
REMARK                         _______ _______ _______ _____ _____    ______ ____
ROOT
ATOM      1  O   UNL     1      -0.215  10.453  17.626  0.00  0.00    +0.000 OA
ATOM      2  C   UNL     1       0.392   9.778  18.451  0.00  0.00    +0.000 A 
ATOM      3  N   UNL     1       1.292   8.809  18.082  0.00  0.00    +0.000 N 
ATOM      4  C   UNL     1       1.982   8.017  18.971  0.00  0.00    +0.000 A 
ATOM      5  N   UNL     1       1.879   8.134  20.265  0.00  0.00    +0.000 NA
ATOM      6  C   UNL     1       0.988   9.073  20.683  0.00  0.00    +0.000 A 
ATOM      7  S   UNL     1       0.670   9.344  22.341  0.00  0.00    +0.000 S 
ATOM      8  C   UNL     1      -0.464  10.565  21.989  0.00  0.00    +0.000 A 
ATOM      9  C   UNL     1      -0.611  10.777  20.633  0.00  0.00    +0.000 A 
ATOM     10  C   UNL     1       0.235   9.906  19.882  0.00  0.00    +0.000 A 
ATOM     11  C   UNL     1      -1.537  11.818  20.076  0.00  0.00    +0.000 C 
ATOM     12  C   UNL     1      -2.522  12.339  21.133  0.00  0.00    +0.000 C 
ATOM     13  C   UNL     1      -1.839  12.580  22.486  0.00  0.00    +0.000 C 
ATOM     14  C   UNL     1      -1.231  11.286  23.054  0.00  0.00    +0.000 C 
ATOM     15  H   UNL     1       1.308   8.595  17.090  0.00  0.00    +0.000 HD
ENDROOT
BRANCH   4  16
ATOM     16  C   UNL     1       2.986   7.023  18.405  0.00  0.00    +0.000 C 
BRANCH  16  17
ATOM     17  C   UNL     1       3.040   5.719  19.136  0.00  0.00    +0.000 A 
ATOM     18  N   UNL     1       2.168   5.333  20.051  0.00  0.00    +0.000 NA
ATOM     19  N   UNL     1       2.438   4.047  20.400  0.00  0.00    +0.000 NA
ATOM     20  C   UNL     1       3.482   3.655  19.711  0.00  0.00    +0.000 A 
ATOM     21  N   UNL     1       3.911   4.660  18.854  0.00  0.00    +0.000 N 
BRANCH  21  22
ATOM     22  C   UNL     1       4.961   4.617  17.891  0.00  0.00    +0.000 A 
ATOM     23  C   UNL     1       6.271   4.963  18.255  0.00  0.00    +0.000 A 
ATOM     24  C   UNL     1       7.293   4.976  17.305  0.00  0.00    +0.000 A 
ATOM     25  C   UNL     1       7.026   4.614  15.988  0.00  0.00    +0.000 A 
ATOM     26  C   UNL     1       5.737   4.240  15.621  0.00  0.00    +0.000 A 
ATOM     27  C   UNL     1       4.706   4.248  16.564  0.00  0.00    +0.000 A 
ENDBRANCH  21  22
BRANCH  20  28
ATOM     28  S   UNL     1       4.284   2.149  20.018  0.00  0.00    +0.000 S 
ATOM     29  H   UNL     1       3.187   1.433  20.304  0.00  0.00    +0.000 HD
ENDBRANCH  20  28
ENDBRANCH  16  17
ENDBRANCH   4  16
TORSDOF 4
ENDMDL
