MODEL 1
REMARK VINA RESULT:      -7.6      0.000      0.000
REMARK  Name = 
REMARK  4 active torsions:
REMARK  status: ('A' for Active; 'I' for Inactive)
REMARK    1  A    between atoms: C_4  and  N_5
REMARK    2  A    between atoms: N_10  and  C_11
REMARK    3  A    between atoms: C_11  and  C_12
REMARK    4  A    between atoms: C_12  and  C_13
REMARK                            x       y       z     vdW  Elec       q    Type
REMARK                         _______ _______ _______ _____ _____    ______ ____
ROOT
ATOM      1  N   UNL     1       4.114   3.587  18.244  0.00  0.00    +0.000 N 
ATOM      2  C   UNL     1       5.268   4.308  18.330  0.00  0.00    +0.000 C 
ATOM      3  N   UNL     1       5.937   4.607  19.412  0.00  0.00    +0.000 NA
ATOM      4  C   UNL     1       7.038   5.490  18.972  0.00  0.00    +0.000 C 
ATOM      5  C   UNL     1       7.054   5.445  17.446  0.00  0.00    +0.000 C 
ATOM      6  N   UNL     1       5.805   4.774  17.158  0.00  0.00    +0.000 N 
ATOM      7  H   UNL     1       3.754   3.436  17.317  0.00  0.00    +0.000 HD
ENDROOT
BRANCH   1  11
ATOM      8  C   UNL     1       1.263   3.050  21.319  0.00  0.00    +0.000 A 
ATOM      9  C   UNL     1       0.922   3.687  20.130  0.00  0.00    +0.000 A 
ATOM     10  C   UNL     1       1.870   3.820  19.111  0.00  0.00    +0.000 A 
ATOM     11  C   UNL     1       3.181   3.333  19.266  0.00  0.00    +0.000 A 
ATOM     12  C   UNL     1       3.487   2.664  20.456  0.00  0.00    +0.000 A 
ATOM     13  C   UNL     1       2.543   2.527  21.473  0.00  0.00    +0.000 A 
ENDBRANCH   1  11
BRANCH   6  14
ATOM     14  C   UNL     1       5.212   4.892  15.842  0.00  0.00    +0.000 C 
BRANCH  14  15
ATOM     15  C   UNL     1       6.274   5.197  14.779  0.00  0.00    +0.000 C 
BRANCH  15  16
ATOM     16  C   UNL     1       6.452   4.057  13.772  0.00  0.00    +0.000 C 
ATOM     17  C   UNL     1       5.139   3.656  13.101  0.00  0.00    +0.000 C 
ATOM     18  C   UNL     1       5.581   2.827  11.903  0.00  0.00    +0.000 C 
ATOM     19  C   UNL     1       6.948   3.380  11.498  0.00  0.00    +0.000 C 
ATOM     20  C   UNL     1       7.337   4.395  12.572  0.00  0.00    +0.000 C 
ENDBRANCH  15  16
ENDBRANCH  14  15
ENDBRANCH   6  14
TORSDOF 4
ENDMDL
MODEL 2
REMARK VINA RESULT:      -7.6      0.236      1.108
REMARK  Name = 
REMARK  4 active torsions:
REMARK  status: ('A' for Active; 'I' for Inactive)
REMARK    1  A    between atoms: C_4  and  N_5
REMARK    2  A    between atoms: N_10  and  C_11
REMARK    3  A    between atoms: C_11  and  C_12
REMARK    4  A    between atoms: C_12  and  C_13
REMARK                            x       y       z     vdW  Elec       q    Type
REMARK                         _______ _______ _______ _____ _____    ______ ____
ROOT
ATOM      1  N   UNL     1       4.126   3.748  18.384  0.00  0.00    +0.000 N 
ATOM      2  C   UNL     1       5.305   4.431  18.394  0.00  0.00    +0.000 C 
ATOM      3  N   UNL     1       6.001   4.795  19.439  0.00  0.00    +0.000 NA
ATOM      4  C   UNL     1       7.126   5.597  18.913  0.00  0.00    +0.000 C 
ATOM      5  C   UNL     1       7.118   5.423  17.396  0.00  0.00    +0.000 C 
ATOM      6  N   UNL     1       5.841   4.777  17.181  0.00  0.00    +0.000 N 
ATOM      7  H   UNL     1       3.746   3.533  17.478  0.00  0.00    +0.000 HD
ENDROOT
BRANCH   1  11
ATOM      8  C   UNL     1       1.343   3.122  21.505  0.00  0.00    +0.000 A 
ATOM      9  C   UNL     1       2.554   2.438  21.477  0.00  0.00    +0.000 A 
ATOM     10  C   UNL     1       3.476   2.688  20.457  0.00  0.00    +0.000 A 
ATOM     11  C   UNL     1       3.200   3.615  19.435  0.00  0.00    +0.000 A 
ATOM     12  C   UNL     1       1.992   4.316  19.506  0.00  0.00    +0.000 A 
ATOM     13  C   UNL     1       1.071   4.071  20.525  0.00  0.00    +0.000 A 
ENDBRANCH   1  11
BRANCH   6  14
ATOM     14  C   UNL     1       5.232   4.806  15.867  0.00  0.00    +0.000 C 
BRANCH  14  15
ATOM     15  C   UNL     1       6.265   5.141  14.784  0.00  0.00    +0.000 C 
BRANCH  15  16
ATOM     16  C   UNL     1       6.436   4.017  13.757  0.00  0.00    +0.000 C 
ATOM     17  C   UNL     1       5.124   3.653  13.062  0.00  0.00    +0.000 C 
ATOM     18  C   UNL     1       5.567   2.840  11.853  0.00  0.00    +0.000 C 
ATOM     19  C   UNL     1       6.949   3.376  11.477  0.00  0.00    +0.000 C 
ATOM     20  C   UNL     1       7.341   4.363  12.575  0.00  0.00    +0.000 C 
ENDBRANCH  15  16
ENDBRANCH  14  15
ENDBRANCH   6  14
TORSDOF 4
ENDMDL
MODEL 3
REMARK VINA RESULT:      -7.6      3.055      6.077
REMARK  Name = 
REMARK  4 active torsions:
REMARK  status: ('A' for Active; 'I' for Inactive)
REMARK    1  A    between atoms: C_4  and  N_5
REMARK    2  A    between atoms: N_10  and  C_11
REMARK    3  A    between atoms: C_11  and  C_12
REMARK    4  A    between atoms: C_12  and  C_13
REMARK                            x       y       z     vdW  Elec       q    Type
REMARK                         _______ _______ _______ _____ _____    ______ ____
ROOT
ATOM      1  N   UNL     1       2.742   6.016  18.472  0.00  0.00    +0.000 N 
ATOM      2  C   UNL     1       3.826   5.703  17.709  0.00  0.00    +0.000 C 
ATOM      3  N   UNL     1       4.831   6.481  17.403  0.00  0.00    +0.000 NA
ATOM      4  C   UNL     1       5.674   5.701  16.471  0.00  0.00    +0.000 C 
ATOM      5  C   UNL     1       5.141   4.270  16.491  0.00  0.00    +0.000 C 
ATOM      6  N   UNL     1       3.893   4.431  17.204  0.00  0.00    +0.000 N 
ATOM      7  H   UNL     1       2.076   5.277  18.621  0.00  0.00    +0.000 HD
ENDROOT
BRANCH   1  11
ATOM      8  C   UNL     1       1.073   9.765  19.491  0.00  0.00    +0.000 A 
ATOM      9  C   UNL     1       1.298   8.793  20.462  0.00  0.00    +0.000 A 
ATOM     10  C   UNL     1       1.886   7.576  20.109  0.00  0.00    +0.000 A 
ATOM     11  C   UNL     1       2.246   7.298  18.778  0.00  0.00    +0.000 A 
ATOM     12  C   UNL     1       2.043   8.303  17.828  0.00  0.00    +0.000 A 
ATOM     13  C   UNL     1       1.460   9.522  18.178  0.00  0.00    +0.000 A 
ENDBRANCH   1  11
BRANCH   6  14
ATOM     14  C   UNL     1       2.862   3.419  17.087  0.00  0.00    +0.000 C 
BRANCH  14  15
ATOM     15  C   UNL     1       3.222   2.165  17.892  0.00  0.00    +0.000 C 
BRANCH  15  16
ATOM     16  C   UNL     1       2.515   2.106  19.250  0.00  0.00    +0.000 C 
ATOM     17  C   UNL     1       3.333   2.754  20.366  0.00  0.00    +0.000 C 
ATOM     18  C   UNL     1       2.326   2.940  21.493  0.00  0.00    +0.000 C 
ATOM     19  C   UNL     1       0.972   3.133  20.811  0.00  0.00    +0.000 C 
ATOM     20  C   UNL     1       1.201   2.883  19.321  0.00  0.00    +0.000 C 
ENDBRANCH  15  16
ENDBRANCH  14  15
ENDBRANCH   6  14
TORSDOF 4
ENDMDL
MODEL 4
REMARK VINA RESULT:      -7.5      1.317      1.693
REMARK  Name = 
REMARK  4 active torsions:
REMARK  status: ('A' for Active; 'I' for Inactive)
REMARK    1  A    between atoms: C_4  and  N_5
REMARK    2  A    between atoms: N_10  and  C_11
REMARK    3  A    between atoms: C_11  and  C_12
REMARK    4  A    between atoms: C_12  and  C_13
REMARK                            x       y       z     vdW  Elec       q    Type
REMARK                         _______ _______ _______ _____ _____    ______ ____
ROOT
ATOM      1  N   UNL     1       4.949   3.329  17.613  0.00  0.00    +0.000 N 
ATOM      2  C   UNL     1       5.835   4.166  18.223  0.00  0.00    +0.000 C 
ATOM      3  N   UNL     1       5.762   4.650  19.435  0.00  0.00    +0.000 NA
ATOM      4  C   UNL     1       6.902   5.584  19.564  0.00  0.00    +0.000 C 
ATOM      5  C   UNL     1       7.786   5.370  18.336  0.00  0.00    +0.000 C 
ATOM      6  N   UNL     1       6.935   4.550  17.501  0.00  0.00    +0.000 N 
ATOM      7  H   UNL     1       5.184   3.040  16.679  0.00  0.00    +0.000 HD
ENDROOT
BRANCH   1  11
ATOM      8  C   UNL     1       0.905   2.849  18.750  0.00  0.00    +0.000 A 
ATOM      9  C   UNL     1       1.312   3.946  17.996  0.00  0.00    +0.000 A 
ATOM     10  C   UNL     1       2.647   4.065  17.599  0.00  0.00    +0.000 A 
ATOM     11  C   UNL     1       3.605   3.099  17.960  0.00  0.00    +0.000 A 
ATOM     12  C   UNL     1       3.164   1.990  18.687  0.00  0.00    +0.000 A 
ATOM     13  C   UNL     1       1.831   1.866  19.081  0.00  0.00    +0.000 A 
ENDBRANCH   1  11
BRANCH   6  14
ATOM     14  C   UNL     1       7.195   4.460  16.079  0.00  0.00    +0.000 C 
BRANCH  14  15
ATOM     15  C   UNL     1       6.291   5.412  15.288  0.00  0.00    +0.000 C 
BRANCH  15  16
ATOM     16  C   UNL     1       6.138   5.005  13.819  0.00  0.00    +0.000 C 
ATOM     17  C   UNL     1       7.482   4.874  13.104  0.00  0.00    +0.000 C 
ATOM     18  C   UNL     1       7.144   4.107  11.833  0.00  0.00    +0.000 C 
ATOM     19  C   UNL     1       5.950   3.221  12.188  0.00  0.00    +0.000 C 
ATOM     20  C   UNL     1       5.521   3.624  13.599  0.00  0.00    +0.000 C 
ENDBRANCH  15  16
ENDBRANCH  14  15
ENDBRANCH   6  14
TORSDOF 4
ENDMDL
MODEL 5
REMARK VINA RESULT:      -7.4      1.210      7.049
REMARK  Name = 
REMARK  4 active torsions:
REMARK  status: ('A' for Active; 'I' for Inactive)
REMARK    1  A    between atoms: C_4  and  N_5
REMARK    2  A    between atoms: N_10  and  C_11
REMARK    3  A    between atoms: C_11  and  C_12
REMARK    4  A    between atoms: C_12  and  C_13
REMARK                            x       y       z     vdW  Elec       q    Type
REMARK                         _______ _______ _______ _____ _____    ______ ____
ROOT
ATOM      1  N   UNL     1       5.552   5.177  15.494  0.00  0.00    +0.000 N 
ATOM      2  C   UNL     1       6.152   5.182  16.717  0.00  0.00    +0.000 C 
ATOM      3  N   UNL     1       7.429   5.083  16.975  0.00  0.00    +0.000 NA
ATOM      4  C   UNL     1       7.539   5.029  18.449  0.00  0.00    +0.000 C 
ATOM      5  C   UNL     1       6.158   5.371  19.005  0.00  0.00    +0.000 C 
ATOM      6  N   UNL     1       5.339   5.313  17.814  0.00  0.00    +0.000 N 
ATOM      7  H   UNL     1       4.553   5.289  15.489  0.00  0.00    +0.000 HD
ENDROOT
BRANCH   1  11
ATOM      8  C   UNL     1       7.126   3.929  11.773  0.00  0.00    +0.000 A 
ATOM      9  C   UNL     1       7.751   4.925  12.517  0.00  0.00    +0.000 A 
ATOM     10  C   UNL     1       7.236   5.296  13.762  0.00  0.00    +0.000 A 
ATOM     11  C   UNL     1       6.076   4.690  14.282  0.00  0.00    +0.000 A 
ATOM     12  C   UNL     1       5.488   3.667  13.531  0.00  0.00    +0.000 A 
ATOM     13  C   UNL     1       6.003   3.292  12.290  0.00  0.00    +0.000 A 
ENDBRANCH   1  11
BRANCH   6  14
ATOM     14  C   UNL     1       3.904   5.155  17.935  0.00  0.00    +0.000 C 
BRANCH  14  15
ATOM     15  C   UNL     1       3.400   5.678  19.285  0.00  0.00    +0.000 C 
BRANCH  15  16
ATOM     16  C   UNL     1       2.165   4.926  19.791  0.00  0.00    +0.000 C 
ATOM     17  C   UNL     1       1.655   3.892  18.787  0.00  0.00    +0.000 C 
ATOM     18  C   UNL     1       0.717   3.019  19.609  0.00  0.00    +0.000 C 
ATOM     19  C   UNL     1       1.265   3.051  21.036  0.00  0.00    +0.000 C 
ATOM     20  C   UNL     1       2.400   4.074  21.038  0.00  0.00    +0.000 C 
ENDBRANCH  15  16
ENDBRANCH  14  15
ENDBRANCH   6  14
TORSDOF 4
ENDMDL
MODEL 6
REMARK VINA RESULT:      -7.3      1.237      1.930
REMARK  Name = 
REMARK  4 active torsions:
REMARK  status: ('A' for Active; 'I' for Inactive)
REMARK    1  A    between atoms: C_4  and  N_5
REMARK    2  A    between atoms: N_10  and  C_11
REMARK    3  A    between atoms: C_11  and  C_12
REMARK    4  A    between atoms: C_12  and  C_13
REMARK                            x       y       z     vdW  Elec       q    Type
REMARK                         _______ _______ _______ _____ _____    ______ ____
ROOT
ATOM      1  N   UNL     1       4.959   3.488  17.778  0.00  0.00    +0.000 N 
ATOM      2  C   UNL     1       5.896   4.287  18.360  0.00  0.00    +0.000 C 
ATOM      3  N   UNL     1       5.886   4.765  19.576  0.00  0.00    +0.000 NA
ATOM      4  C   UNL     1       7.064   5.656  19.668  0.00  0.00    +0.000 C 
ATOM      5  C   UNL     1       7.894   5.417  18.408  0.00  0.00    +0.000 C 
ATOM      6  N   UNL     1       6.984   4.634  17.600  0.00  0.00    +0.000 N 
ATOM      7  H   UNL     1       5.148   3.196  16.834  0.00  0.00    +0.000 HD
ENDROOT
BRANCH   1  11
ATOM      8  C   UNL     1       0.948   2.728  18.878  0.00  0.00    +0.000 A 
ATOM      9  C   UNL     1       1.977   1.892  19.301  0.00  0.00    +0.000 A 
ATOM     10  C   UNL     1       3.300   2.183  18.958  0.00  0.00    +0.000 A 
ATOM     11  C   UNL     1       3.620   3.306  18.172  0.00  0.00    +0.000 A 
ATOM     12  C   UNL     1       2.572   4.149  17.790  0.00  0.00    +0.000 A 
ATOM     13  C   UNL     1       1.251   3.863  18.135  0.00  0.00    +0.000 A 
ENDBRANCH   1  11
BRANCH   6  14
ATOM     14  C   UNL     1       7.189   4.544  16.169  0.00  0.00    +0.000 C 
BRANCH  14  15
ATOM     15  C   UNL     1       6.151   5.376  15.406  0.00  0.00    +0.000 C 
BRANCH  15  16
ATOM     16  C   UNL     1       6.075   5.014  13.919  0.00  0.00    +0.000 C 
ATOM     17  C   UNL     1       7.455   4.817  13.293  0.00  0.00    +0.000 C 
ATOM     18  C   UNL     1       7.159   4.103  11.981  0.00  0.00    +0.000 C 
ATOM     19  C   UNL     1       5.890   3.287  12.230  0.00  0.00    +0.000 C 
ATOM     20  C   UNL     1       5.391   3.681  13.619  0.00  0.00    +0.000 C 
ENDBRANCH  15  16
ENDBRANCH  14  15
ENDBRANCH   6  14
TORSDOF 4
ENDMDL
MODEL 7
REMARK VINA RESULT:      -7.3      1.772      6.436
REMARK  Name = 
REMARK  4 active torsions:
REMARK  status: ('A' for Active; 'I' for Inactive)
REMARK    1  A    between atoms: C_4  and  N_5
REMARK    2  A    between atoms: N_10  and  C_11
REMARK    3  A    between atoms: C_11  and  C_12
REMARK    4  A    between atoms: C_12  and  C_13
REMARK                            x       y       z     vdW  Elec       q    Type
REMARK                         _______ _______ _______ _____ _____    ______ ____
ROOT
ATOM      1  N   UNL     1       6.100   5.618  15.231  0.00  0.00    +0.000 N 
ATOM      2  C   UNL     1       6.636   5.418  16.468  0.00  0.00    +0.000 C 
ATOM      3  N   UNL     1       7.699   4.721  16.767  0.00  0.00    +0.000 NA
ATOM      4  C   UNL     1       7.783   4.729  18.244  0.00  0.00    +0.000 C 
ATOM      5  C   UNL     1       6.758   5.748  18.736  0.00  0.00    +0.000 C 
ATOM      6  N   UNL     1       6.005   6.014  17.529  0.00  0.00    +0.000 N 
ATOM      7  H   UNL     1       5.286   6.208  15.191  0.00  0.00    +0.000 HD
ENDROOT
BRANCH   1  11
ATOM      8  C   UNL     1       6.726   3.497  11.627  0.00  0.00    +0.000 A 
ATOM      9  C   UNL     1       7.630   4.466  12.055  0.00  0.00    +0.000 A 
ATOM     10  C   UNL     1       7.424   5.128  13.269  0.00  0.00    +0.000 A 
ATOM     11  C   UNL     1       6.302   4.847  14.071  0.00  0.00    +0.000 A 
ATOM     12  C   UNL     1       5.429   3.845  13.637  0.00  0.00    +0.000 A 
ATOM     13  C   UNL     1       5.635   3.180  12.428  0.00  0.00    +0.000 A 
ENDBRANCH   1  11
BRANCH   6  14
ATOM     14  C   UNL     1       4.681   6.594  17.621  0.00  0.00    +0.000 C 
BRANCH  14  15
ATOM     15  C   UNL     1       3.788   5.790  18.573  0.00  0.00    +0.000 C 
BRANCH  15  16
ATOM     16  C   UNL     1       3.323   4.459  17.972  0.00  0.00    +0.000 C 
ATOM     17  C   UNL     1       4.039   3.256  18.586  0.00  0.00    +0.000 C 
ATOM     18  C   UNL     1       3.185   2.070  18.161  0.00  0.00    +0.000 C 
ATOM     19  C   UNL     1       1.760   2.608  18.035  0.00  0.00    +0.000 C 
ATOM     20  C   UNL     1       1.854   4.122  18.223  0.00  0.00    +0.000 C 
ENDBRANCH  15  16
ENDBRANCH  14  15
ENDBRANCH   6  14
TORSDOF 4
ENDMDL
MODEL 8
REMARK VINA RESULT:      -7.3      1.411      6.912
REMARK  Name = 
REMARK  4 active torsions:
REMARK  status: ('A' for Active; 'I' for Inactive)
REMARK    1  A    between atoms: C_4  and  N_5
REMARK    2  A    between atoms: N_10  and  C_11
REMARK    3  A    between atoms: C_11  and  C_12
REMARK    4  A    between atoms: C_12  and  C_13
REMARK                            x       y       z     vdW  Elec       q    Type
REMARK                         _______ _______ _______ _____ _____    ______ ____
ROOT
ATOM      1  N   UNL     1       5.923   5.594  15.330  0.00  0.00    +0.000 N 
ATOM      2  C   UNL     1       6.479   5.352  16.551  0.00  0.00    +0.000 C 
ATOM      3  N   UNL     1       7.629   4.783  16.799  0.00  0.00    +0.000 NA
ATOM      4  C   UNL     1       7.707   4.661  18.271  0.00  0.00    +0.000 C 
ATOM      5  C   UNL     1       6.549   5.477  18.842  0.00  0.00    +0.000 C 
ATOM      6  N   UNL     1       5.769   5.750  17.654  0.00  0.00    +0.000 N 
ATOM      7  H   UNL     1       5.035   6.067  15.333  0.00  0.00    +0.000 HD
ENDROOT
BRANCH   1  11
ATOM      8  C   UNL     1       6.841   3.525  11.759  0.00  0.00    +0.000 A 
ATOM      9  C   UNL     1       5.694   3.223  12.487  0.00  0.00    +0.000 A 
ATOM     10  C   UNL     1       5.389   3.946  13.644  0.00  0.00    +0.000 A 
ATOM     11  C   UNL     1       6.233   4.973  14.106  0.00  0.00    +0.000 A 
ATOM     12  C   UNL     1       7.360   5.280  13.338  0.00  0.00    +0.000 A 
ATOM     13  C   UNL     1       7.664   4.564  12.180  0.00  0.00    +0.000 A 
ENDBRANCH   1  11
BRANCH   6  14
ATOM     14  C   UNL     1       4.377   6.130  17.780  0.00  0.00    +0.000 C 
BRANCH  14  15
ATOM     15  C   UNL     1       3.450   4.939  17.509  0.00  0.00    +0.000 C 
BRANCH  15  16
ATOM     16  C   UNL     1       2.891   4.316  18.792  0.00  0.00    +0.000 C 
ATOM     17  C   UNL     1       2.873   5.300  19.962  0.00  0.00    +0.000 C 
ATOM     18  C   UNL     1       1.952   4.638  20.978  0.00  0.00    +0.000 C 
ATOM     19  C   UNL     1       0.954   3.817  20.162  0.00  0.00    +0.000 C 
ATOM     20  C   UNL     1       1.426   3.887  18.710  0.00  0.00    +0.000 C 
ENDBRANCH  15  16
ENDBRANCH  14  15
ENDBRANCH   6  14
TORSDOF 4
ENDMDL
MODEL 9
REMARK VINA RESULT:      -7.3      0.991      7.014
REMARK  Name = 
REMARK  4 active torsions:
REMARK  status: ('A' for Active; 'I' for Inactive)
REMARK    1  A    between atoms: C_4  and  N_5
REMARK    2  A    between atoms: N_10  and  C_11
REMARK    3  A    between atoms: C_11  and  C_12
REMARK    4  A    between atoms: C_12  and  C_13
REMARK                            x       y       z     vdW  Elec       q    Type
REMARK                         _______ _______ _______ _____ _____    ______ ____
ROOT
ATOM      1  N   UNL     1       5.547   4.953  15.586  0.00  0.00    +0.000 N 
ATOM      2  C   UNL     1       6.188   5.063  16.783  0.00  0.00    +0.000 C 
ATOM      3  N   UNL     1       7.473   5.193  16.986  0.00  0.00    +0.000 NA
ATOM      4  C   UNL     1       7.655   5.157  18.453  0.00  0.00    +0.000 C 
ATOM      5  C   UNL     1       6.261   5.246  19.070  0.00  0.00    +0.000 C 
ATOM      6  N   UNL     1       5.414   5.045  17.914  0.00  0.00    +0.000 N 
ATOM      7  H   UNL     1       4.545   4.884  15.625  0.00  0.00    +0.000 HD
ENDROOT
BRANCH   1  11
ATOM      8  C   UNL     1       7.195   4.021  11.806  0.00  0.00    +0.000 A 
ATOM      9  C   UNL     1       7.793   4.965  12.635  0.00  0.00    +0.000 A 
ATOM     10  C   UNL     1       7.254   5.230  13.896  0.00  0.00    +0.000 A 
ATOM     11  C   UNL     1       6.097   4.569  14.349  0.00  0.00    +0.000 A 
ATOM     12  C   UNL     1       5.536   3.599  13.513  0.00  0.00    +0.000 A 
ATOM     13  C   UNL     1       6.075   3.329  12.254  0.00  0.00    +0.000 A 
ENDBRANCH   1  11
BRANCH   6  14
ATOM     14  C   UNL     1       4.037   4.633  18.095  0.00  0.00    +0.000 C 
BRANCH  14  15
ATOM     15  C   UNL     1       3.931   3.113  18.269  0.00  0.00    +0.000 C 
BRANCH  15  16
ATOM     16  C   UNL     1       2.750   2.696  19.152  0.00  0.00    +0.000 C 
ATOM     17  C   UNL     1       3.066   2.799  20.643  0.00  0.00    +0.000 C 
ATOM     18  C   UNL     1       1.699   2.733  21.310  0.00  0.00    +0.000 C 
ATOM     19  C   UNL     1       0.718   3.339  20.307  0.00  0.00    +0.000 C 
ATOM     20  C   UNL     1       1.511   3.583  19.023  0.00  0.00    +0.000 C 
ENDBRANCH  15  16
ENDBRANCH  14  15
ENDBRANCH   6  14
TORSDOF 4
ENDMDL
