MODEL 1
REMARK VINA RESULT:      -7.5      0.000      0.000
REMARK  Name = 
REMARK  3 active torsions:
REMARK  status: ('A' for Active; 'I' for Inactive)
REMARK    1  A    between atoms: O_1  and  C_2
REMARK    2  A    between atoms: C_2  and  C_3
REMARK    3  A    between atoms: C_2  and  C_9
REMARK                            x       y       z     vdW  Elec       q    Type
REMARK                         _______ _______ _______ _____ _____    ______ ____
ROOT
ATOM      1  C   UNL     1       6.359   4.426  16.992  0.00  0.00    +0.000 C 
ATOM      2  C   UNL     1       7.217   4.603  18.269  0.00  0.00    +0.000 C 
ATOM      3  N   UNL     1       6.375   5.156  19.343  0.00  0.00    +0.000 N 
ATOM      4  C   UNL     1       5.067   4.807  18.938  0.00  0.00    +0.000 A 
ATOM      5  C   UNL     1       3.924   4.978  19.694  0.00  0.00    +0.000 A 
ATOM      6  C   UNL     1       2.688   4.684  19.110  0.00  0.00    +0.000 A 
ATOM      7  C   UNL     1       2.614   4.229  17.784  0.00  0.00    +0.000 A 
ATOM      8  C   UNL     1       3.773   4.076  17.021  0.00  0.00    +0.000 A 
ATOM      9  C   UNL     1       4.989   4.386  17.610  0.00  0.00    +0.000 A 
ATOM     10  H   UNL     1       6.582   4.822  20.279  0.00  0.00    +0.000 HD
ENDROOT
BRANCH   1  11
ATOM     11  C   UNL     1       6.478   5.545  15.936  0.00  0.00    +0.000 C 
BRANCH  11  12
ATOM     12  C   UNL     1       6.668   4.997  14.531  0.00  0.00    +0.000 A 
ATOM     13  C   UNL     1       5.829   3.997  14.036  0.00  0.00    +0.000 A 
ATOM     14  C   UNL     1       6.034   3.509  12.751  0.00  0.00    +0.000 A 
ATOM     15  C   UNL     1       7.078   4.021  11.991  0.00  0.00    +0.000 A 
ATOM     16  C   UNL     1       7.869   5.009  12.551  0.00  0.00    +0.000 A 
ATOM     17  N   UNL     1       7.687   5.510  13.795  0.00  0.00    +0.000 NA
ENDBRANCH  11  12
BRANCH  11  18
ATOM     18  O   UNL     1       7.518   6.483  16.235  0.00  0.00    +0.000 OA
ATOM     19  H   UNL     1       7.102   7.205  16.736  0.00  0.00    +0.000 HD
ENDBRANCH  11  18
ENDBRANCH   1  11
TORSDOF 3
ENDMDL
MODEL 2
REMARK VINA RESULT:      -7.4      1.855      5.623
REMARK  Name = 
REMARK  3 active torsions:
REMARK  status: ('A' for Active; 'I' for Inactive)
REMARK    1  A    between atoms: O_1  and  C_2
REMARK    2  A    between atoms: C_2  and  C_3
REMARK    3  A    between atoms: C_2  and  C_9
REMARK                            x       y       z     vdW  Elec       q    Type
REMARK                         _______ _______ _______ _____ _____    ______ ____
ROOT
ATOM      1  C   UNL     1       5.183   4.932  16.067  0.00  0.00    +0.000 C 
ATOM      2  C   UNL     1       6.194   6.041  16.451  0.00  0.00    +0.000 C 
ATOM      3  N   UNL     1       7.405   5.898  15.626  0.00  0.00    +0.000 N 
ATOM      4  C   UNL     1       6.944   5.173  14.504  0.00  0.00    +0.000 A 
ATOM      5  C   UNL     1       7.679   4.911  13.364  0.00  0.00    +0.000 A 
ATOM      6  C   UNL     1       7.121   4.084  12.385  0.00  0.00    +0.000 A 
ATOM      7  C   UNL     1       5.843   3.532  12.561  0.00  0.00    +0.000 A 
ATOM      8  C   UNL     1       5.113   3.786  13.724  0.00  0.00    +0.000 A 
ATOM      9  C   UNL     1       5.688   4.596  14.691  0.00  0.00    +0.000 A 
ATOM     10  H   UNL     1       7.856   6.766  15.355  0.00  0.00    +0.000 HD
ENDROOT
BRANCH   1  11
ATOM     11  C   UNL     1       5.156   3.693  16.985  0.00  0.00    +0.000 C 
BRANCH  11  12
ATOM     12  C   UNL     1       3.768   3.413  17.538  0.00  0.00    +0.000 A 
ATOM     13  C   UNL     1       2.769   4.387  17.483  0.00  0.00    +0.000 A 
ATOM     14  C   UNL     1       1.512   4.106  18.007  0.00  0.00    +0.000 A 
ATOM     15  C   UNL     1       1.283   2.863  18.584  0.00  0.00    +0.000 A 
ATOM     16  C   UNL     1       2.323   1.950  18.604  0.00  0.00    +0.000 A 
ATOM     17  N   UNL     1       3.553   2.194  18.094  0.00  0.00    +0.000 NA
ENDBRANCH  11  12
BRANCH  11  18
ATOM     18  O   UNL     1       6.098   3.777  18.061  0.00  0.00    +0.000 OA
ATOM     19  H   UNL     1       6.316   4.718  18.163  0.00  0.00    +0.000 HD
ENDBRANCH  11  18
ENDBRANCH   1  11
TORSDOF 3
ENDMDL
MODEL 3
REMARK VINA RESULT:      -7.3      3.210      4.453
REMARK  Name = 
REMARK  3 active torsions:
REMARK  status: ('A' for Active; 'I' for Inactive)
REMARK    1  A    between atoms: O_1  and  C_2
REMARK    2  A    between atoms: C_2  and  C_3
REMARK    3  A    between atoms: C_2  and  C_9
REMARK                            x       y       z     vdW  Elec       q    Type
REMARK                         _______ _______ _______ _____ _____    ______ ____
ROOT
ATOM      1  C   UNL     1       3.844   4.575  18.053  0.00  0.00    +0.000 C 
ATOM      2  C   UNL     1       3.790   3.478  16.960  0.00  0.00    +0.000 C 
ATOM      3  N   UNL     1       2.972   2.354  17.446  0.00  0.00    +0.000 N 
ATOM      4  C   UNL     1       2.170   2.948  18.445  0.00  0.00    +0.000 A 
ATOM      5  C   UNL     1       1.124   2.331  19.103  0.00  0.00    +0.000 A 
ATOM      6  C   UNL     1       0.496   3.016  20.148  0.00  0.00    +0.000 A 
ATOM      7  C   UNL     1       0.923   4.301  20.518  0.00  0.00    +0.000 A 
ATOM      8  C   UNL     1       1.992   4.911  19.860  0.00  0.00    +0.000 A 
ATOM      9  C   UNL     1       2.614   4.212  18.837  0.00  0.00    +0.000 A 
ATOM     10  H   UNL     1       2.411   1.883  16.742  0.00  0.00    +0.000 HD
ENDROOT
BRANCH   1  11
ATOM     11  C   UNL     1       5.106   4.586  18.940  0.00  0.00    +0.000 C 
BRANCH  11  12
ATOM     12  C   UNL     1       6.100   5.656  18.519  0.00  0.00    +0.000 A 
ATOM     13  C   UNL     1       7.341   5.763  19.148  0.00  0.00    +0.000 A 
ATOM     14  C   UNL     1       8.226   6.759  18.750  0.00  0.00    +0.000 A 
ATOM     15  C   UNL     1       7.848   7.632  17.738  0.00  0.00    +0.000 A 
ATOM     16  C   UNL     1       6.600   7.465  17.163  0.00  0.00    +0.000 A 
ATOM     17  N   UNL     1       5.724   6.500  17.525  0.00  0.00    +0.000 NA
ENDBRANCH  11  12
BRANCH  11  18
ATOM     18  O   UNL     1       5.760   3.312  18.993  0.00  0.00    +0.000 OA
ATOM     19  H   UNL     1       6.336   3.331  19.776  0.00  0.00    +0.000 HD
ENDBRANCH  11  18
ENDBRANCH   1  11
TORSDOF 3
ENDMDL
MODEL 4
REMARK VINA RESULT:      -7.3      2.325      5.871
REMARK  Name = 
REMARK  3 active torsions:
REMARK  status: ('A' for Active; 'I' for Inactive)
REMARK    1  A    between atoms: O_1  and  C_2
REMARK    2  A    between atoms: C_2  and  C_3
REMARK    3  A    between atoms: C_2  and  C_9
REMARK                            x       y       z     vdW  Elec       q    Type
REMARK                         _______ _______ _______ _____ _____    ______ ____
ROOT
ATOM      1  C   UNL     1       4.969   4.575  18.463  0.00  0.00    +0.000 C 
ATOM      2  C   UNL     1       6.247   5.048  19.199  0.00  0.00    +0.000 C 
ATOM      3  N   UNL     1       7.413   4.837  18.325  0.00  0.00    +0.000 N 
ATOM      4  C   UNL     1       6.842   4.794  17.033  0.00  0.00    +0.000 A 
ATOM      5  C   UNL     1       7.549   4.760  15.847  0.00  0.00    +0.000 A 
ATOM      6  C   UNL     1       6.839   4.606  14.652  0.00  0.00    +0.000 A 
ATOM      7  C   UNL     1       5.441   4.488  14.661  0.00  0.00    +0.000 A 
ATOM      8  C   UNL     1       4.735   4.506  15.866  0.00  0.00    +0.000 A 
ATOM      9  C   UNL     1       5.455   4.643  17.042  0.00  0.00    +0.000 A 
ATOM     10  H   UNL     1       8.143   5.539  18.391  0.00  0.00    +0.000 HD
ENDROOT
BRANCH   1  11
ATOM     11  C   UNL     1       4.460   3.165  18.828  0.00  0.00    +0.000 C 
BRANCH  11  12
ATOM     12  C   UNL     1       2.996   3.165  19.234  0.00  0.00    +0.000 A 
ATOM     13  C   UNL     1       2.049   2.459  18.490  0.00  0.00    +0.000 A 
ATOM     14  C   UNL     1       0.715   2.485  18.880  0.00  0.00    +0.000 A 
ATOM     15  C   UNL     1       0.353   3.224  19.999  0.00  0.00    +0.000 A 
ATOM     16  C   UNL     1       1.348   3.900  20.685  0.00  0.00    +0.000 A 
ATOM     17  N   UNL     1       2.654   3.884  20.333  0.00  0.00    +0.000 NA
ENDBRANCH  11  12
BRANCH  11  18
ATOM     18  O   UNL     1       5.246   2.536  19.847  0.00  0.00    +0.000 OA
ATOM     19  H   UNL     1       6.176   2.640  19.582  0.00  0.00    +0.000 HD
ENDBRANCH  11  18
ENDBRANCH   1  11
TORSDOF 3
ENDMDL
MODEL 5
REMARK VINA RESULT:      -7.3      2.398      5.935
REMARK  Name = 
REMARK  3 active torsions:
REMARK  status: ('A' for Active; 'I' for Inactive)
REMARK    1  A    between atoms: O_1  and  C_2
REMARK    2  A    between atoms: C_2  and  C_3
REMARK    3  A    between atoms: C_2  and  C_9
REMARK                            x       y       z     vdW  Elec       q    Type
REMARK                         _______ _______ _______ _____ _____    ______ ____
ROOT
ATOM      1  C   UNL     1       4.972   4.618  18.409  0.00  0.00    +0.000 C 
ATOM      2  C   UNL     1       6.243   5.095  19.155  0.00  0.00    +0.000 C 
ATOM      3  N   UNL     1       7.418   4.868  18.298  0.00  0.00    +0.000 N 
ATOM      4  C   UNL     1       6.864   4.810  17.000  0.00  0.00    +0.000 A 
ATOM      5  C   UNL     1       7.585   4.757  15.824  0.00  0.00    +0.000 A 
ATOM      6  C   UNL     1       6.890   4.591  14.622  0.00  0.00    +0.000 A 
ATOM      7  C   UNL     1       5.491   4.479  14.615  0.00  0.00    +0.000 A 
ATOM      8  C   UNL     1       4.770   4.515  15.810  0.00  0.00    +0.000 A 
ATOM      9  C   UNL     1       5.476   4.666  16.994  0.00  0.00    +0.000 A 
ATOM     10  H   UNL     1       8.151   5.568  18.364  0.00  0.00    +0.000 HD
ENDROOT
BRANCH   1  11
ATOM     11  C   UNL     1       4.453   3.215  18.786  0.00  0.00    +0.000 C 
BRANCH  11  12
ATOM     12  C   UNL     1       3.001   3.236  19.233  0.00  0.00    +0.000 A 
ATOM     13  C   UNL     1       2.592   4.047  20.294  0.00  0.00    +0.000 A 
ATOM     14  C   UNL     1       1.260   4.037  20.688  0.00  0.00    +0.000 A 
ATOM     15  C   UNL     1       0.364   3.211  20.022  0.00  0.00    +0.000 A 
ATOM     16  C   UNL     1       0.843   2.433  18.981  0.00  0.00    +0.000 A 
ATOM     17  N   UNL     1       2.132   2.429  18.571  0.00  0.00    +0.000 NA
ENDBRANCH  11  12
BRANCH  11  18
ATOM     18  O   UNL     1       5.257   2.573  19.782  0.00  0.00    +0.000 OA
ATOM     19  H   UNL     1       5.475   3.254  20.441  0.00  0.00    +0.000 HD
ENDBRANCH  11  18
ENDBRANCH   1  11
TORSDOF 3
ENDMDL
MODEL 6
REMARK VINA RESULT:      -7.2      3.284      4.512
REMARK  Name = 
REMARK  3 active torsions:
REMARK  status: ('A' for Active; 'I' for Inactive)
REMARK    1  A    between atoms: O_1  and  C_2
REMARK    2  A    between atoms: C_2  and  C_3
REMARK    3  A    between atoms: C_2  and  C_9
REMARK                            x       y       z     vdW  Elec       q    Type
REMARK                         _______ _______ _______ _____ _____    ______ ____
ROOT
ATOM      1  C   UNL     1       3.793   4.558  18.090  0.00  0.00    +0.000 C 
ATOM      2  C   UNL     1       3.752   3.532  16.931  0.00  0.00    +0.000 C 
ATOM      3  N   UNL     1       2.909   2.391  17.326  0.00  0.00    +0.000 N 
ATOM      4  C   UNL     1       2.091   2.933  18.342  0.00  0.00    +0.000 A 
ATOM      5  C   UNL     1       1.023   2.290  18.936  0.00  0.00    +0.000 A 
ATOM      6  C   UNL     1       0.379   2.918  20.007  0.00  0.00    +0.000 A 
ATOM      7  C   UNL     1       0.812   4.171  20.467  0.00  0.00    +0.000 A 
ATOM      8  C   UNL     1       1.904   4.806  19.873  0.00  0.00    +0.000 A 
ATOM      9  C   UNL     1       2.541   4.164  18.822  0.00  0.00    +0.000 A 
ATOM     10  H   UNL     1       2.359   1.973  16.581  0.00  0.00    +0.000 HD
ENDROOT
BRANCH   1  11
ATOM     11  C   UNL     1       5.034   4.496  19.005  0.00  0.00    +0.000 C 
BRANCH  11  12
ATOM     12  C   UNL     1       6.072   5.547  18.645  0.00  0.00    +0.000 A 
ATOM     13  C   UNL     1       5.828   6.470  17.626  0.00  0.00    +0.000 A 
ATOM     14  C   UNL     1       6.800   7.413  17.312  0.00  0.00    +0.000 A 
ATOM     15  C   UNL     1       7.998   7.408  18.014  0.00  0.00    +0.000 A 
ATOM     16  C   UNL     1       8.168   6.461  19.009  0.00  0.00    +0.000 A 
ATOM     17  N   UNL     1       7.236   5.538  19.342  0.00  0.00    +0.000 NA
ENDBRANCH  11  12
BRANCH  11  18
ATOM     18  O   UNL     1       5.645   3.201  19.027  0.00  0.00    +0.000 OA
ATOM     19  H   UNL     1       6.333   3.232  19.714  0.00  0.00    +0.000 HD
ENDBRANCH  11  18
ENDBRANCH   1  11
TORSDOF 3
ENDMDL
MODEL 7
REMARK VINA RESULT:      -7.2      2.241      6.123
REMARK  Name = 
REMARK  3 active torsions:
REMARK  status: ('A' for Active; 'I' for Inactive)
REMARK    1  A    between atoms: O_1  and  C_2
REMARK    2  A    between atoms: C_2  and  C_3
REMARK    3  A    between atoms: C_2  and  C_9
REMARK                            x       y       z     vdW  Elec       q    Type
REMARK                         _______ _______ _______ _____ _____    ______ ____
ROOT
ATOM      1  C   UNL     1       4.059   4.579  17.547  0.00  0.00    +0.000 C 
ATOM      2  C   UNL     1       4.470   5.884  18.273  0.00  0.00    +0.000 C 
ATOM      3  N   UNL     1       5.841   6.244  17.878  0.00  0.00    +0.000 N 
ATOM      4  C   UNL     1       6.007   5.574  16.645  0.00  0.00    +0.000 A 
ATOM      5  C   UNL     1       7.087   5.717  15.796  0.00  0.00    +0.000 A 
ATOM      6  C   UNL     1       7.158   4.901  14.663  0.00  0.00    +0.000 A 
ATOM      7  C   UNL     1       6.154   3.957  14.399  0.00  0.00    +0.000 A 
ATOM      8  C   UNL     1       5.074   3.805  15.272  0.00  0.00    +0.000 A 
ATOM      9  C   UNL     1       5.027   4.612  16.398  0.00  0.00    +0.000 A 
ATOM     10  H   UNL     1       6.028   7.239  17.795  0.00  0.00    +0.000 HD
ENDROOT
BRANCH   1  11
ATOM     11  C   UNL     1       4.188   3.279  18.367  0.00  0.00    +0.000 C 
BRANCH  11  12
ATOM     12  C   UNL     1       3.096   3.145  19.416  0.00  0.00    +0.000 A 
ATOM     13  C   UNL     1       1.776   3.493  19.120  0.00  0.00    +0.000 A 
ATOM     14  C   UNL     1       0.801   3.370  20.102  0.00  0.00    +0.000 A 
ATOM     15  C   UNL     1       1.164   2.911  21.362  0.00  0.00    +0.000 A 
ATOM     16  C   UNL     1       2.492   2.588  21.581  0.00  0.00    +0.000 A 
ATOM     17  N   UNL     1       3.461   2.690  20.641  0.00  0.00    +0.000 NA
ENDBRANCH  11  12
BRANCH  11  18
ATOM     18  O   UNL     1       5.472   3.136  18.986  0.00  0.00    +0.000 OA
ATOM     19  H   UNL     1       6.078   3.722  18.500  0.00  0.00    +0.000 HD
ENDBRANCH  11  18
ENDBRANCH   1  11
TORSDOF 3
ENDMDL
MODEL 8
REMARK VINA RESULT:      -7.2      1.856      5.577
REMARK  Name = 
REMARK  3 active torsions:
REMARK  status: ('A' for Active; 'I' for Inactive)
REMARK    1  A    between atoms: O_1  and  C_2
REMARK    2  A    between atoms: C_2  and  C_3
REMARK    3  A    between atoms: C_2  and  C_9
REMARK                            x       y       z     vdW  Elec       q    Type
REMARK                         _______ _______ _______ _____ _____    ______ ____
ROOT
ATOM      1  C   UNL     1       5.204   4.944  15.995  0.00  0.00    +0.000 C 
ATOM      2  C   UNL     1       6.243   6.030  16.367  0.00  0.00    +0.000 C 
ATOM      3  N   UNL     1       7.446   5.852  15.537  0.00  0.00    +0.000 N 
ATOM      4  C   UNL     1       6.963   5.130  14.422  0.00  0.00    +0.000 A 
ATOM      5  C   UNL     1       7.686   4.843  13.281  0.00  0.00    +0.000 A 
ATOM      6  C   UNL     1       7.102   4.023  12.311  0.00  0.00    +0.000 A 
ATOM      7  C   UNL     1       5.812   3.503  12.496  0.00  0.00    +0.000 A 
ATOM      8  C   UNL     1       5.094   3.783  13.661  0.00  0.00    +0.000 A 
ATOM      9  C   UNL     1       5.693   4.586  14.619  0.00  0.00    +0.000 A 
ATOM     10  H   UNL     1       7.917   6.707  15.257  0.00  0.00    +0.000 HD
ENDROOT
BRANCH   1  11
ATOM     11  C   UNL     1       5.151   3.712  16.922  0.00  0.00    +0.000 C 
BRANCH  11  12
ATOM     12  C   UNL     1       3.764   3.481  17.499  0.00  0.00    +0.000 A 
ATOM     13  C   UNL     1       3.365   2.208  17.911  0.00  0.00    +0.000 A 
ATOM     14  C   UNL     1       2.087   2.025  18.425  0.00  0.00    +0.000 A 
ATOM     15  C   UNL     1       1.230   3.115  18.507  0.00  0.00    +0.000 A 
ATOM     16  C   UNL     1       1.695   4.346  18.077  0.00  0.00    +0.000 A 
ATOM     17  N   UNL     1       2.936   4.554  17.581  0.00  0.00    +0.000 NA
ENDBRANCH  11  12
BRANCH  11  18
ATOM     18  O   UNL     1       6.112   3.772  17.983  0.00  0.00    +0.000 OA
ATOM     19  H   UNL     1       5.873   3.069  18.611  0.00  0.00    +0.000 HD
ENDBRANCH  11  18
ENDBRANCH   1  11
TORSDOF 3
ENDMDL
MODEL 9
REMARK VINA RESULT:      -7.0      1.601      5.652
REMARK  Name = 
REMARK  3 active torsions:
REMARK  status: ('A' for Active; 'I' for Inactive)
REMARK    1  A    between atoms: O_1  and  C_2
REMARK    2  A    between atoms: C_2  and  C_3
REMARK    3  A    between atoms: C_2  and  C_9
REMARK                            x       y       z     vdW  Elec       q    Type
REMARK                         _______ _______ _______ _____ _____    ______ ____
ROOT
ATOM      1  C   UNL     1       5.159   5.185  16.318  0.00  0.00    +0.000 C 
ATOM      2  C   UNL     1       6.250   6.227  16.669  0.00  0.00    +0.000 C 
ATOM      3  N   UNL     1       7.444   5.970  15.847  0.00  0.00    +0.000 N 
ATOM      4  C   UNL     1       6.928   5.249  14.748  0.00  0.00    +0.000 A 
ATOM      5  C   UNL     1       7.639   4.900  13.616  0.00  0.00    +0.000 A 
ATOM      6  C   UNL     1       7.018   4.089  12.662  0.00  0.00    +0.000 A 
ATOM      7  C   UNL     1       5.703   3.638  12.854  0.00  0.00    +0.000 A 
ATOM      8  C   UNL     1       4.997   3.980  14.010  0.00  0.00    +0.000 A 
ATOM      9  C   UNL     1       5.633   4.773  14.952  0.00  0.00    +0.000 A 
ATOM     10  H   UNL     1       7.958   6.794  15.551  0.00  0.00    +0.000 HD
ENDROOT
BRANCH   1  11
ATOM     11  C   UNL     1       5.042   3.979  17.272  0.00  0.00    +0.000 C 
BRANCH  11  12
ATOM     12  C   UNL     1       3.754   4.001  18.079  0.00  0.00    +0.000 A 
ATOM     13  C   UNL     1       2.563   3.517  17.535  0.00  0.00    +0.000 A 
ATOM     14  C   UNL     1       1.399   3.560  18.293  0.00  0.00    +0.000 A 
ATOM     15  C   UNL     1       1.446   4.095  19.574  0.00  0.00    +0.000 A 
ATOM     16  C   UNL     1       2.663   4.558  20.044  0.00  0.00    +0.000 A 
ATOM     17  N   UNL     1       3.813   4.520  19.332  0.00  0.00    +0.000 NA
ENDBRANCH  11  12
BRANCH  11  18
ATOM     18  O   UNL     1       6.164   3.857  18.155  0.00  0.00    +0.000 OA
ATOM     19  H   UNL     1       6.679   4.676  18.061  0.00  0.00    +0.000 HD
ENDBRANCH  11  18
ENDBRANCH   1  11
TORSDOF 3
ENDMDL
