MODEL 1
REMARK VINA RESULT:      -7.2      0.000      0.000
REMARK  Name = 
REMARK  5 active torsions:
REMARK  status: ('A' for Active; 'I' for Inactive)
REMARK    1  A    between atoms: C_2  and  C_3
REMARK    2  A    between atoms: C_3  and  N_4
REMARK    3  A    between atoms: C_5  and  S_6
REMARK    4  A    between atoms: C_10  and  C_11
REMARK    5  A    between atoms: C_11  and  C_13
REMARK                            x       y       z     vdW  Elec       q    Type
REMARK                         _______ _______ _______ _____ _____    ______ ____
ROOT
ATOM      1  N   UNL     1       5.591   3.522  13.481  0.00  0.00    +0.000 NA
ATOM      2  C   UNL     1       6.102   4.481  14.173  0.00  0.00    +0.000 C 
ATOM      3  N   UNL     1       5.527   4.941  15.338  0.00  0.00    +0.000 N 
ATOM      4  C   UNL     1       5.202   6.347  15.533  0.00  0.00    +0.000 C 
ATOM      5  C   UNL     1       5.751   6.762  16.893  0.00  0.00    +0.000 C 
ATOM      6  C   UNL     1       5.157   5.910  18.025  0.00  0.00    +0.000 C 
ATOM      7  C   UNL     1       5.310   4.403  17.691  0.00  0.00    +0.000 C 
ATOM      8  C   UNL     1       4.843   4.047  16.267  0.00  0.00    +0.000 C 
ENDROOT
BRANCH   2   9
ATOM      9  S   UNL     1       7.626   5.295  13.777  0.00  0.00    +0.000 S 
ATOM     10  H   UNL     1       8.123   4.372  12.951  0.00  0.00    +0.000 HD
ENDBRANCH   2   9
BRANCH   6  11
ATOM     11  C   UNL     1       3.695   6.254  18.318  0.00  0.00    +0.000 C 
ATOM     12  O   UNL     1       3.201   7.315  17.943  0.00  0.00    +0.000 OA
BRANCH  11  13
ATOM     13  C   UNL     1       2.814   5.290  19.060  0.00  0.00    +0.000 A 
ATOM     14  C   UNL     1       1.877   4.461  18.426  0.00  0.00    +0.000 A 
ATOM     15  C   UNL     1       1.120   3.553  19.174  0.00  0.00    +0.000 A 
ATOM     16  C   UNL     1       1.276   3.498  20.554  0.00  0.00    +0.000 A 
ATOM     17  F   UNL     1       0.541   2.633  21.265  0.00  0.00    +0.000 F 
ATOM     18  C   UNL     1       2.176   4.329  21.204  0.00  0.00    +0.000 A 
ATOM     19  C   UNL     1       2.950   5.221  20.457  0.00  0.00    +0.000 A 
ENDBRANCH  11  13
ENDBRANCH   6  11
BRANCH   1  20
ATOM     20  C   UNL     1       6.208   3.086  12.239  0.00  0.00    +0.000 C 
BRANCH  20  22
ATOM     21  C   UNL     1       3.979   3.126  11.097  0.00  0.00    +0.000 C 
ATOM     22  C   UNL     1       5.153   2.524  11.341  0.00  0.00    +0.000 C 
ENDBRANCH  20  22
ENDBRANCH   1  20
TORSDOF 5
ENDMDL
MODEL 2
REMARK VINA RESULT:      -7.0      0.108      1.059
REMARK  Name = 
REMARK  5 active torsions:
REMARK  status: ('A' for Active; 'I' for Inactive)
REMARK    1  A    between atoms: C_2  and  C_3
REMARK    2  A    between atoms: C_3  and  N_4
REMARK    3  A    between atoms: C_5  and  S_6
REMARK    4  A    between atoms: C_10  and  C_11
REMARK    5  A    between atoms: C_11  and  C_13
REMARK                            x       y       z     vdW  Elec       q    Type
REMARK                         _______ _______ _______ _____ _____    ______ ____
ROOT
ATOM      1  N   UNL     1       5.623   3.540  13.455  0.00  0.00    +0.000 NA
ATOM      2  C   UNL     1       6.139   4.504  14.137  0.00  0.00    +0.000 C 
ATOM      3  N   UNL     1       5.581   4.961  15.311  0.00  0.00    +0.000 N 
ATOM      4  C   UNL     1       5.250   6.366  15.510  0.00  0.00    +0.000 C 
ATOM      5  C   UNL     1       5.819   6.786  16.860  0.00  0.00    +0.000 C 
ATOM      6  C   UNL     1       5.249   5.932  18.002  0.00  0.00    +0.000 C 
ATOM      7  C   UNL     1       5.406   4.425  17.668  0.00  0.00    +0.000 C 
ATOM      8  C   UNL     1       4.917   4.065  16.253  0.00  0.00    +0.000 C 
ENDROOT
BRANCH   2   9
ATOM      9  S   UNL     1       7.651   5.326  13.715  0.00  0.00    +0.000 S 
ATOM     10  H   UNL     1       8.501   4.396  14.157  0.00  0.00    +0.000 HD
ENDBRANCH   2   9
BRANCH   6  11
ATOM     11  C   UNL     1       3.791   6.267  18.319  0.00  0.00    +0.000 C 
ATOM     12  O   UNL     1       3.280   7.319  17.939  0.00  0.00    +0.000 OA
BRANCH  11  13
ATOM     13  C   UNL     1       2.933   5.306  19.092  0.00  0.00    +0.000 A 
ATOM     14  C   UNL     1       3.028   5.136  20.481  0.00  0.00    +0.000 A 
ATOM     15  C   UNL     1       2.166   4.256  21.143  0.00  0.00    +0.000 A 
ATOM     16  C   UNL     1       1.233   3.525  20.415  0.00  0.00    +0.000 A 
ATOM     17  F   UNL     1       0.417   2.678  21.055  0.00  0.00    +0.000 F 
ATOM     18  C   UNL     1       1.142   3.657  19.037  0.00  0.00    +0.000 A 
ATOM     19  C   UNL     1       1.987   4.553  18.376  0.00  0.00    +0.000 A 
ENDBRANCH  11  13
ENDBRANCH   6  11
BRANCH   1  20
ATOM     20  C   UNL     1       6.221   3.107  12.203  0.00  0.00    +0.000 C 
BRANCH  20  22
ATOM     21  C   UNL     1       3.990   3.130  11.064  0.00  0.00    +0.000 C 
ATOM     22  C   UNL     1       5.157   2.523  11.330  0.00  0.00    +0.000 C 
ENDBRANCH  20  22
ENDBRANCH   1  20
TORSDOF 5
ENDMDL
MODEL 3
REMARK VINA RESULT:      -6.6      4.707      7.943
REMARK  Name = 
REMARK  5 active torsions:
REMARK  status: ('A' for Active; 'I' for Inactive)
REMARK    1  A    between atoms: C_2  and  C_3
REMARK    2  A    between atoms: C_3  and  N_4
REMARK    3  A    between atoms: C_5  and  S_6
REMARK    4  A    between atoms: C_10  and  C_11
REMARK    5  A    between atoms: C_11  and  C_13
REMARK                            x       y       z     vdW  Elec       q    Type
REMARK                         _______ _______ _______ _____ _____    ______ ____
ROOT
ATOM      1  N   UNL     1       1.520   8.428  21.859  0.00  0.00    +0.000 NA
ATOM      2  C   UNL     1       1.463   8.163  20.599  0.00  0.00    +0.000 C 
ATOM      3  N   UNL     1       1.926   6.977  20.070  0.00  0.00    +0.000 N 
ATOM      4  C   UNL     1       2.899   6.946  18.987  0.00  0.00    +0.000 C 
ATOM      5  C   UNL     1       2.376   5.983  17.927  0.00  0.00    +0.000 C 
ATOM      6  C   UNL     1       2.162   4.574  18.501  0.00  0.00    +0.000 C 
ATOM      7  C   UNL     1       1.307   4.651  19.792  0.00  0.00    +0.000 C 
ATOM      8  C   UNL     1       1.808   5.712  20.789  0.00  0.00    +0.000 C 
ENDROOT
BRANCH   2   9
ATOM      9  S   UNL     1       0.736   9.232  19.387  0.00  0.00    +0.000 S 
ATOM     10  H   UNL     1       1.429  10.338  19.671  0.00  0.00    +0.000 HD
ENDBRANCH   2   9
BRANCH   6  11
ATOM     11  C   UNL     1       3.478   3.839  18.766  0.00  0.00    +0.000 C 
ATOM     12  O   UNL     1       3.580   3.019  19.676  0.00  0.00    +0.000 OA
BRANCH  11  13
ATOM     13  C   UNL     1       4.682   4.087  17.904  0.00  0.00    +0.000 A 
ATOM     14  C   UNL     1       5.905   4.558  18.406  0.00  0.00    +0.000 A 
ATOM     15  C   UNL     1       7.000   4.723  17.553  0.00  0.00    +0.000 A 
ATOM     16  C   UNL     1       6.865   4.450  16.197  0.00  0.00    +0.000 A 
ATOM     17  F   UNL     1       7.916   4.620  15.384  0.00  0.00    +0.000 F 
ATOM     18  C   UNL     1       5.658   4.013  15.674  0.00  0.00    +0.000 A 
ATOM     19  C   UNL     1       4.568   3.824  16.528  0.00  0.00    +0.000 A 
ENDBRANCH  11  13
ENDBRANCH   6  11
BRANCH   1  20
ATOM     20  C   UNL     1       1.053   9.703  22.376  0.00  0.00    +0.000 C 
BRANCH  20  22
ATOM     21  C   UNL     1      -1.154  10.569  23.184  0.00  0.00    +0.000 C 
ATOM     22  C   UNL     1      -0.345   9.543  22.882  0.00  0.00    +0.000 C 
ENDBRANCH  20  22
ENDBRANCH   1  20
TORSDOF 5
ENDMDL
MODEL 4
REMARK VINA RESULT:      -6.5      4.725      7.883
REMARK  Name = 
REMARK  5 active torsions:
REMARK  status: ('A' for Active; 'I' for Inactive)
REMARK    1  A    between atoms: C_2  and  C_3
REMARK    2  A    between atoms: C_3  and  N_4
REMARK    3  A    between atoms: C_5  and  S_6
REMARK    4  A    between atoms: C_10  and  C_11
REMARK    5  A    between atoms: C_11  and  C_13
REMARK                            x       y       z     vdW  Elec       q    Type
REMARK                         _______ _______ _______ _____ _____    ______ ____
ROOT
ATOM      1  N   UNL     1       1.494   8.494  21.830  0.00  0.00    +0.000 NA
ATOM      2  C   UNL     1       1.451   8.229  20.570  0.00  0.00    +0.000 C 
ATOM      3  N   UNL     1       1.938   7.053  20.043  0.00  0.00    +0.000 N 
ATOM      4  C   UNL     1       2.918   7.041  18.966  0.00  0.00    +0.000 C 
ATOM      5  C   UNL     1       2.420   6.070  17.901  0.00  0.00    +0.000 C 
ATOM      6  C   UNL     1       2.228   4.657  18.472  0.00  0.00    +0.000 C 
ATOM      7  C   UNL     1       1.363   4.717  19.758  0.00  0.00    +0.000 C 
ATOM      8  C   UNL     1       1.838   5.786  20.760  0.00  0.00    +0.000 C 
ENDROOT
BRANCH   2   9
ATOM      9  S   UNL     1       0.712   9.287  19.354  0.00  0.00    +0.000 S 
ATOM     10  H   UNL     1      -0.381   8.560  19.111  0.00  0.00    +0.000 HD
ENDBRANCH   2   9
BRANCH   6  11
ATOM     11  C   UNL     1       3.555   3.946  18.745  0.00  0.00    +0.000 C 
ATOM     12  O   UNL     1       3.703   3.222  19.728  0.00  0.00    +0.000 OA
BRANCH  11  13
ATOM     13  C   UNL     1       4.715   4.098  17.803  0.00  0.00    +0.000 A 
ATOM     14  C   UNL     1       4.642   3.789  16.437  0.00  0.00    +0.000 A 
ATOM     15  C   UNL     1       5.748   3.998  15.607  0.00  0.00    +0.000 A 
ATOM     16  C   UNL     1       6.934   4.484  16.148  0.00  0.00    +0.000 A 
ATOM     17  F   UNL     1       7.992   4.673  15.349  0.00  0.00    +0.000 F 
ATOM     18  C   UNL     1       7.036   4.768  17.501  0.00  0.00    +0.000 A 
ATOM     19  C   UNL     1       5.926   4.582  18.328  0.00  0.00    +0.000 A 
ENDBRANCH  11  13
ENDBRANCH   6  11
BRANCH   1  20
ATOM     20  C   UNL     1       1.001   9.760  22.346  0.00  0.00    +0.000 C 
BRANCH  20  22
ATOM     21  C   UNL     1      -1.211  10.616  23.150  0.00  0.00    +0.000 C 
ATOM     22  C   UNL     1      -0.438   9.607  22.721  0.00  0.00    +0.000 C 
ENDBRANCH  20  22
ENDBRANCH   1  20
TORSDOF 5
ENDMDL
MODEL 5
REMARK VINA RESULT:      -6.2      2.679      3.215
REMARK  Name = 
REMARK  5 active torsions:
REMARK  status: ('A' for Active; 'I' for Inactive)
REMARK    1  A    between atoms: C_2  and  C_3
REMARK    2  A    between atoms: C_3  and  N_4
REMARK    3  A    between atoms: C_5  and  S_6
REMARK    4  A    between atoms: C_10  and  C_11
REMARK    5  A    between atoms: C_11  and  C_13
REMARK                            x       y       z     vdW  Elec       q    Type
REMARK                         _______ _______ _______ _____ _____    ______ ____
ROOT
ATOM      1  N   UNL     1       5.425   4.130  14.535  0.00  0.00    +0.000 NA
ATOM      2  C   UNL     1       5.745   4.534  15.716  0.00  0.00    +0.000 C 
ATOM      3  N   UNL     1       4.835   4.597  16.749  0.00  0.00    +0.000 N 
ATOM      4  C   UNL     1       4.614   5.821  17.506  0.00  0.00    +0.000 C 
ATOM      5  C   UNL     1       4.666   5.462  18.986  0.00  0.00    +0.000 C 
ATOM      6  C   UNL     1       3.610   4.406  19.348  0.00  0.00    +0.000 C 
ATOM      7  C   UNL     1       3.713   3.200  18.379  0.00  0.00    +0.000 C 
ATOM      8  C   UNL     1       3.766   3.614  16.897  0.00  0.00    +0.000 C 
ENDROOT
BRANCH   2   9
ATOM      9  S   UNL     1       7.386   4.998  16.200  0.00  0.00    +0.000 S 
ATOM     10  H   UNL     1       7.260   4.793  17.513  0.00  0.00    +0.000 HD
ENDBRANCH   2   9
BRANCH   6  11
ATOM     11  C   UNL     1       2.189   4.973  19.358  0.00  0.00    +0.000 C 
ATOM     12  O   UNL     1       1.208   4.241  19.245  0.00  0.00    +0.000 OA
BRANCH  11  13
ATOM     13  C   UNL     1       1.951   6.446  19.528  0.00  0.00    +0.000 A 
ATOM     14  C   UNL     1       2.040   7.366  18.473  0.00  0.00    +0.000 A 
ATOM     15  C   UNL     1       1.761   8.719  18.692  0.00  0.00    +0.000 A 
ATOM     16  C   UNL     1       1.427   9.156  19.969  0.00  0.00    +0.000 A 
ATOM     17  F   UNL     1       1.171  10.454  20.173  0.00  0.00    +0.000 F 
ATOM     18  C   UNL     1       1.362   8.268  21.032  0.00  0.00    +0.000 A 
ATOM     19  C   UNL     1       1.618   6.912  20.811  0.00  0.00    +0.000 A 
ENDBRANCH  11  13
ENDBRANCH   6  11
BRANCH   1  20
ATOM     20  C   UNL     1       6.405   4.110  13.461  0.00  0.00    +0.000 C 
BRANCH  20  22
ATOM     21  C   UNL     1       4.723   3.302  11.790  0.00  0.00    +0.000 C 
ATOM     22  C   UNL     1       5.924   3.197  12.379  0.00  0.00    +0.000 C 
ENDBRANCH  20  22
ENDBRANCH   1  20
TORSDOF 5
ENDMDL
MODEL 6
REMARK VINA RESULT:      -6.2      4.974      8.035
REMARK  Name = 
REMARK  5 active torsions:
REMARK  status: ('A' for Active; 'I' for Inactive)
REMARK    1  A    between atoms: C_2  and  C_3
REMARK    2  A    between atoms: C_3  and  N_4
REMARK    3  A    between atoms: C_5  and  S_6
REMARK    4  A    between atoms: C_10  and  C_11
REMARK    5  A    between atoms: C_11  and  C_13
REMARK                            x       y       z     vdW  Elec       q    Type
REMARK                         _______ _______ _______ _____ _____    ______ ____
ROOT
ATOM      1  N   UNL     1       1.063  10.120  20.941  0.00  0.00    +0.000 NA
ATOM      2  C   UNL     1       0.976   9.511  19.808  0.00  0.00    +0.000 C 
ATOM      3  N   UNL     1       1.704   8.378  19.519  0.00  0.00    +0.000 N 
ATOM      4  C   UNL     1       2.551   8.288  18.338  0.00  0.00    +0.000 C 
ATOM      5  C   UNL     1       2.229   6.972  17.639  0.00  0.00    +0.000 C 
ATOM      6  C   UNL     1       2.466   5.769  18.565  0.00  0.00    +0.000 C 
ATOM      7  C   UNL     1       1.736   5.988  19.916  0.00  0.00    +0.000 C 
ATOM      8  C   UNL     1       2.004   7.372  20.534  0.00  0.00    +0.000 C 
ENDROOT
BRANCH   2   9
ATOM      9  S   UNL     1      -0.121   9.991  18.501  0.00  0.00    +0.000 S 
ATOM     10  H   UNL     1      -0.382   8.774  18.018  0.00  0.00    +0.000 HD
ENDBRANCH   2   9
BRANCH   6  11
ATOM     11  C   UNL     1       3.952   5.484  18.792  0.00  0.00    +0.000 C 
ATOM     12  O   UNL     1       4.419   5.394  19.926  0.00  0.00    +0.000 OA
BRANCH  11  13
ATOM     13  C   UNL     1       4.881   5.284  17.630  0.00  0.00    +0.000 A 
ATOM     14  C   UNL     1       4.656   4.339  16.618  0.00  0.00    +0.000 A 
ATOM     15  C   UNL     1       5.540   4.238  15.539  0.00  0.00    +0.000 A 
ATOM     16  C   UNL     1       6.663   5.057  15.488  0.00  0.00    +0.000 A 
ATOM     17  F   UNL     1       7.510   4.948  14.457  0.00  0.00    +0.000 F 
ATOM     18  C   UNL     1       6.919   5.978  16.492  0.00  0.00    +0.000 A 
ATOM     19  C   UNL     1       6.026   6.097  17.560  0.00  0.00    +0.000 A 
ENDBRANCH  11  13
ENDBRANCH   6  11
BRANCH   1  20
ATOM     20  C   UNL     1       0.305  11.333  21.198  0.00  0.00    +0.000 C 
BRANCH  20  22
ATOM     21  C   UNL     1      -0.595   9.992  23.113  0.00  0.00    +0.000 C 
ATOM     22  C   UNL     1      -0.614  11.099  22.354  0.00  0.00    +0.000 C 
ENDBRANCH  20  22
ENDBRANCH   1  20
TORSDOF 5
ENDMDL
MODEL 7
REMARK VINA RESULT:      -6.2      4.947      8.067
REMARK  Name = 
REMARK  5 active torsions:
REMARK  status: ('A' for Active; 'I' for Inactive)
REMARK    1  A    between atoms: C_2  and  C_3
REMARK    2  A    between atoms: C_3  and  N_4
REMARK    3  A    between atoms: C_5  and  S_6
REMARK    4  A    between atoms: C_10  and  C_11
REMARK    5  A    between atoms: C_11  and  C_13
REMARK                            x       y       z     vdW  Elec       q    Type
REMARK                         _______ _______ _______ _____ _____    ______ ____
ROOT
ATOM      1  N   UNL     1       1.078  10.027  20.952  0.00  0.00    +0.000 NA
ATOM      2  C   UNL     1       1.011   9.455  19.799  0.00  0.00    +0.000 C 
ATOM      3  N   UNL     1       1.715   8.310  19.499  0.00  0.00    +0.000 N 
ATOM      4  C   UNL     1       2.598   8.230  18.344  0.00  0.00    +0.000 C 
ATOM      5  C   UNL     1       2.261   6.945  17.595  0.00  0.00    +0.000 C 
ATOM      6  C   UNL     1       2.432   5.709  18.491  0.00  0.00    +0.000 C 
ATOM      7  C   UNL     1       1.664   5.909  19.823  0.00  0.00    +0.000 C 
ATOM      8  C   UNL     1       1.952   7.266  20.492  0.00  0.00    +0.000 C 
ENDROOT
BRANCH   2   9
ATOM      9  S   UNL     1      -0.027  10.006  18.472  0.00  0.00    +0.000 S 
ATOM     10  H   UNL     1      -0.904   9.000  18.489  0.00  0.00    +0.000 HD
ENDBRANCH   2   9
BRANCH   6  11
ATOM     11  C   UNL     1       3.900   5.372  18.757  0.00  0.00    +0.000 C 
ATOM     12  O   UNL     1       4.306   5.135  19.893  0.00  0.00    +0.000 OA
BRANCH  11  13
ATOM     13  C   UNL     1       4.889   5.302  17.629  0.00  0.00    +0.000 A 
ATOM     14  C   UNL     1       6.008   6.143  17.533  0.00  0.00    +0.000 A 
ATOM     15  C   UNL     1       6.913   5.993  16.478  0.00  0.00    +0.000 A 
ATOM     16  C   UNL     1       6.684   5.028  15.504  0.00  0.00    +0.000 A 
ATOM     17  F   UNL     1       7.550   4.896  14.492  0.00  0.00    +0.000 F 
ATOM     18  C   UNL     1       5.569   4.205  15.564  0.00  0.00    +0.000 A 
ATOM     19  C   UNL     1       4.675   4.338  16.629  0.00  0.00    +0.000 A 
ENDBRANCH  11  13
ENDBRANCH   6  11
BRANCH   1  20
ATOM     20  C   UNL     1       0.347  11.254  21.222  0.00  0.00    +0.000 C 
BRANCH  20  22
ATOM     21  C   UNL     1      -0.624  10.020  23.173  0.00  0.00    +0.000 C 
ATOM     22  C   UNL     1      -0.714  10.977  22.238  0.00  0.00    +0.000 C 
ENDBRANCH  20  22
ENDBRANCH   1  20
TORSDOF 5
ENDMDL
MODEL 8
REMARK VINA RESULT:      -6.2      2.641      3.228
REMARK  Name = 
REMARK  5 active torsions:
REMARK  status: ('A' for Active; 'I' for Inactive)
REMARK    1  A    between atoms: C_2  and  C_3
REMARK    2  A    between atoms: C_3  and  N_4
REMARK    3  A    between atoms: C_5  and  S_6
REMARK    4  A    between atoms: C_10  and  C_11
REMARK    5  A    between atoms: C_11  and  C_13
REMARK                            x       y       z     vdW  Elec       q    Type
REMARK                         _______ _______ _______ _____ _____    ______ ____
ROOT
ATOM      1  N   UNL     1       5.593   3.801  14.130  0.00  0.00    +0.000 NA
ATOM      2  C   UNL     1       5.912   4.465  15.187  0.00  0.00    +0.000 C 
ATOM      3  N   UNL     1       5.034   4.664  16.230  0.00  0.00    +0.000 N 
ATOM      4  C   UNL     1       4.726   5.995  16.734  0.00  0.00    +0.000 C 
ATOM      5  C   UNL     1       4.858   5.955  18.252  0.00  0.00    +0.000 C 
ATOM      6  C   UNL     1       3.916   4.913  18.872  0.00  0.00    +0.000 C 
ATOM      7  C   UNL     1       4.097   3.545  18.164  0.00  0.00    +0.000 C 
ATOM      8  C   UNL     1       4.064   3.648  16.628  0.00  0.00    +0.000 C 
ENDROOT
BRANCH   2   9
ATOM      9  S   UNL     1       7.518   5.153  15.484  0.00  0.00    +0.000 S 
ATOM     10  H   UNL     1       7.587   5.943  14.410  0.00  0.00    +0.000 HD
ENDBRANCH   2   9
BRANCH   6  11
ATOM     11  C   UNL     1       2.450   5.350  18.839  0.00  0.00    +0.000 C 
ATOM     12  O   UNL     1       1.556   4.566  18.525  0.00  0.00    +0.000 OA
BRANCH  11  13
ATOM     13  C   UNL     1       2.058   6.751  19.210  0.00  0.00    +0.000 A 
ATOM     14  C   UNL     1       1.769   7.147  20.525  0.00  0.00    +0.000 A 
ATOM     15  C   UNL     1       1.455   8.480  20.806  0.00  0.00    +0.000 A 
ATOM     16  C   UNL     1       1.399   9.408  19.773  0.00  0.00    +0.000 A 
ATOM     17  F   UNL     1       1.088  10.682  20.049  0.00  0.00    +0.000 F 
ATOM     18  C   UNL     1       1.652   9.033  18.462  0.00  0.00    +0.000 A 
ATOM     19  C   UNL     1       1.989   7.706  18.181  0.00  0.00    +0.000 A 
ENDBRANCH  11  13
ENDBRANCH   6  11
BRANCH   1  20
ATOM     20  C   UNL     1       6.535   3.641  13.034  0.00  0.00    +0.000 C 
BRANCH  20  22
ATOM     21  C   UNL     1       4.551   3.129  11.594  0.00  0.00    +0.000 C 
ATOM     22  C   UNL     1       5.847   2.960  11.895  0.00  0.00    +0.000 C 
ENDBRANCH  20  22
ENDBRANCH   1  20
TORSDOF 5
ENDMDL
MODEL 9
REMARK VINA RESULT:      -6.1      2.067      2.793
REMARK  Name = 
REMARK  5 active torsions:
REMARK  status: ('A' for Active; 'I' for Inactive)
REMARK    1  A    between atoms: C_2  and  C_3
REMARK    2  A    between atoms: C_3  and  N_4
REMARK    3  A    between atoms: C_5  and  S_6
REMARK    4  A    between atoms: C_10  and  C_11
REMARK    5  A    between atoms: C_11  and  C_13
REMARK                            x       y       z     vdW  Elec       q    Type
REMARK                         _______ _______ _______ _____ _____    ______ ____
ROOT
ATOM      1  N   UNL     1       4.436   3.517  12.134  0.00  0.00    +0.000 NA
ATOM      2  C   UNL     1       5.623   3.598  12.629  0.00  0.00    +0.000 C 
ATOM      3  N   UNL     1       5.878   4.186  13.849  0.00  0.00    +0.000 N 
ATOM      4  C   UNL     1       6.853   5.258  13.999  0.00  0.00    +0.000 C 
ATOM      5  C   UNL     1       7.749   4.903  15.179  0.00  0.00    +0.000 C 
ATOM      6  C   UNL     1       6.937   4.729  16.472  0.00  0.00    +0.000 C 
ATOM      7  C   UNL     1       5.758   3.752  16.230  0.00  0.00    +0.000 C 
ATOM      8  C   UNL     1       4.943   4.084  14.966  0.00  0.00    +0.000 C 
ENDROOT
BRANCH   2   9
ATOM      9  S   UNL     1       7.071   2.920  11.864  0.00  0.00    +0.000 S 
ATOM     10  H   UNL     1       7.900   3.021  12.906  0.00  0.00    +0.000 HD
ENDBRANCH   2   9
BRANCH   6  11
ATOM     11  C   UNL     1       6.432   6.059  17.034  0.00  0.00    +0.000 C 
ATOM     12  O   UNL     1       7.045   7.108  16.844  0.00  0.00    +0.000 OA
BRANCH  11  13
ATOM     13  C   UNL     1       5.154   6.123  17.822  0.00  0.00    +0.000 A 
ATOM     14  C   UNL     1       4.051   6.899  17.436  0.00  0.00    +0.000 A 
ATOM     15  C   UNL     1       2.875   6.876  18.193  0.00  0.00    +0.000 A 
ATOM     16  C   UNL     1       2.814   6.106  19.350  0.00  0.00    +0.000 A 
ATOM     17  F   UNL     1       1.688   6.097  20.075  0.00  0.00    +0.000 F 
ATOM     18  C   UNL     1       3.903   5.355  19.764  0.00  0.00    +0.000 A 
ATOM     19  C   UNL     1       5.071   5.358  18.997  0.00  0.00    +0.000 A 
ENDBRANCH  11  13
ENDBRANCH   6  11
BRANCH   1  20
ATOM     20  C   UNL     1       4.211   2.920  10.828  0.00  0.00    +0.000 C 
BRANCH  20  22
ATOM     21  C   UNL     1       2.864   4.459   9.382  0.00  0.00    +0.000 C 
ATOM     22  C   UNL     1       2.932   3.450  10.263  0.00  0.00    +0.000 C 
ENDBRANCH  20  22
ENDBRANCH   1  20
TORSDOF 5
ENDMDL
