MODEL 1
REMARK VINA RESULT:      -5.4      0.000      0.000
REMARK  Name = 
REMARK  7 active torsions:
REMARK  status: ('A' for Active; 'I' for Inactive)
REMARK    1  A    between atoms: C_1  and  C_2
REMARK    2  A    between atoms: C_2  and  N_3
REMARK    3  A    between atoms: C_4  and  C_5
REMARK    4  A    between atoms: C_6  and  C_7
REMARK    5  A    between atoms: C_7  and  C_8
REMARK    6  A    between atoms: C_10  and  S_11
REMARK    7  A    between atoms: S_11  and  C_12
REMARK                            x       y       z     vdW  Elec       q    Type
REMARK                         _______ _______ _______ _____ _____    ______ ____
ROOT
ATOM      1  N   UNL     1       4.226   6.032  17.585  0.00  0.00    +0.000 N 
ATOM      2  C   UNL     1       4.537   4.668  17.852  0.00  0.00    +0.000 A 
ATOM      3  C   UNL     1       5.561   4.031  16.939  0.00  0.00    +0.000 C 
ATOM      4  C   UNL     1       3.931   3.969  18.858  0.00  0.00    +0.000 A 
ATOM      5  C   UNL     1       2.920   4.825  19.595  0.00  0.00    +0.000 A 
ATOM      6  N   UNL     1       2.594   6.031  19.306  0.00  0.00    +0.000 NA
ATOM      7  C   UNL     1       3.184   6.690  18.278  0.00  0.00    +0.000 A 
ATOM      8  S   UNL     1       2.617   8.256  17.943  0.00  0.00    +0.000 S 
ENDROOT
BRANCH   4   9
ATOM      9  C   UNL     1       4.170   2.509  19.262  0.00  0.00    +0.000 C 
ATOM     10  C   UNL     1       3.556   1.294  18.607  0.00  0.00    +0.000 C 
ATOM     11  O   UNL     1       4.922   2.221  20.200  0.00  0.00    +0.000 OA
ENDBRANCH   4   9
BRANCH   1  13
ATOM     12  C   UNL     1       6.333   7.334  17.111  0.00  0.00    +0.000 C 
ATOM     13  C   UNL     1       5.004   6.806  16.579  0.00  0.00    +0.000 C 
ENDBRANCH   1  13
BRANCH   5  14
ATOM     14  S   UNL     1       2.081   4.172  21.008  0.00  0.00    +0.000 S 
ATOM     15  C   UNL     1       0.747   3.200  20.287  0.00  0.00    +0.000 C 
ENDBRANCH   5  14
TORSDOF 3
ENDMDL
MODEL 2
REMARK VINA RESULT:      -5.4      2.770      5.214
REMARK  Name = 
REMARK  7 active torsions:
REMARK  status: ('A' for Active; 'I' for Inactive)
REMARK    1  A    between atoms: C_1  and  C_2
REMARK    2  A    between atoms: C_2  and  N_3
REMARK    3  A    between atoms: C_4  and  C_5
REMARK    4  A    between atoms: C_6  and  C_7
REMARK    5  A    between atoms: C_7  and  C_8
REMARK    6  A    between atoms: C_10  and  S_11
REMARK    7  A    between atoms: S_11  and  C_12
REMARK                            x       y       z     vdW  Elec       q    Type
REMARK                         _______ _______ _______ _____ _____    ______ ____
ROOT
ATOM      1  N   UNL     1       3.117   3.302  19.267  0.00  0.00    +0.000 N 
ATOM      2  C   UNL     1       3.060   4.434  18.406  0.00  0.00    +0.000 A 
ATOM      3  C   UNL     1       1.716   4.718  17.774  0.00  0.00    +0.000 C 
ATOM      4  C   UNL     1       4.158   5.206  18.148  0.00  0.00    +0.000 A 
ATOM      5  C   UNL     1       5.384   4.685  18.872  0.00  0.00    +0.000 A 
ATOM      6  N   UNL     1       5.445   3.625  19.591  0.00  0.00    +0.000 NA
ATOM      7  C   UNL     1       4.348   2.855  19.801  0.00  0.00    +0.000 A 
ATOM      8  S   UNL     1       4.569   1.436  20.709  0.00  0.00    +0.000 S 
ENDROOT
BRANCH   4   9
ATOM      9  C   UNL     1       4.241   6.450  17.253  0.00  0.00    +0.000 C 
ATOM     10  C   UNL     1       4.958   6.543  15.927  0.00  0.00    +0.000 C 
ATOM     11  O   UNL     1       3.696   7.509  17.581  0.00  0.00    +0.000 OA
ENDBRANCH   4   9
BRANCH   1  13
ATOM     12  C   UNL     1       1.238   3.073  20.933  0.00  0.00    +0.000 C 
ATOM     13  C   UNL     1       1.877   2.569  19.643  0.00  0.00    +0.000 C 
ENDBRANCH   1  13
BRANCH   5  14
ATOM     14  S   UNL     1       6.906   5.579  18.777  0.00  0.00    +0.000 S 
ATOM     15  C   UNL     1       7.857   4.652  17.561  0.00  0.00    +0.000 C 
ENDBRANCH   5  14
TORSDOF 3
ENDMDL
MODEL 3
REMARK VINA RESULT:      -5.3      2.309      3.162
REMARK  Name = 
REMARK  7 active torsions:
REMARK  status: ('A' for Active; 'I' for Inactive)
REMARK    1  A    between atoms: C_1  and  C_2
REMARK    2  A    between atoms: C_2  and  N_3
REMARK    3  A    between atoms: C_4  and  C_5
REMARK    4  A    between atoms: C_6  and  C_7
REMARK    5  A    between atoms: C_7  and  C_8
REMARK    6  A    between atoms: C_10  and  S_11
REMARK    7  A    between atoms: S_11  and  C_12
REMARK                            x       y       z     vdW  Elec       q    Type
REMARK                         _______ _______ _______ _____ _____    ______ ____
ROOT
ATOM      1  N   UNL     1       4.812   5.930  18.020  0.00  0.00    +0.000 N 
ATOM      2  C   UNL     1       3.481   5.673  18.457  0.00  0.00    +0.000 A 
ATOM      3  C   UNL     1       2.454   6.726  18.109  0.00  0.00    +0.000 C 
ATOM      4  C   UNL     1       3.156   4.551  19.167  0.00  0.00    +0.000 A 
ATOM      5  C   UNL     1       4.371   3.680  19.416  0.00  0.00    +0.000 A 
ATOM      6  N   UNL     1       5.578   3.952  19.080  0.00  0.00    +0.000 NA
ATOM      7  C   UNL     1       5.881   5.091  18.408  0.00  0.00    +0.000 A 
ATOM      8  S   UNL     1       7.524   5.377  18.084  0.00  0.00    +0.000 S 
ENDROOT
BRANCH   4   9
ATOM      9  C   UNL     1       1.773   4.142  19.693  0.00  0.00    +0.000 C 
ATOM     10  C   UNL     1       0.822   3.173  19.033  0.00  0.00    +0.000 C 
ATOM     11  O   UNL     1       1.330   4.607  20.749  0.00  0.00    +0.000 OA
ENDBRANCH   4   9
BRANCH   1  13
ATOM     12  C   UNL     1       5.117   6.721  15.645  0.00  0.00    +0.000 C 
ATOM     13  C   UNL     1       5.108   7.084  17.126  0.00  0.00    +0.000 C 
ENDBRANCH   1  13
BRANCH   5  14
ATOM     14  S   UNL     1       4.183   2.120  20.225  0.00  0.00    +0.000 S 
ATOM     15  C   UNL     1       3.818   0.990  18.871  0.00  0.00    +0.000 C 
ENDBRANCH   5  14
TORSDOF 3
ENDMDL
MODEL 4
REMARK VINA RESULT:      -5.3      2.897      5.179
REMARK  Name = 
REMARK  7 active torsions:
REMARK  status: ('A' for Active; 'I' for Inactive)
REMARK    1  A    between atoms: C_1  and  C_2
REMARK    2  A    between atoms: C_2  and  N_3
REMARK    3  A    between atoms: C_4  and  C_5
REMARK    4  A    between atoms: C_6  and  C_7
REMARK    5  A    between atoms: C_7  and  C_8
REMARK    6  A    between atoms: C_10  and  S_11
REMARK    7  A    between atoms: S_11  and  C_12
REMARK                            x       y       z     vdW  Elec       q    Type
REMARK                         _______ _______ _______ _____ _____    ______ ____
ROOT
ATOM      1  N   UNL     1       2.755   4.609  18.483  0.00  0.00    +0.000 N 
ATOM      2  C   UNL     1       3.473   5.738  17.995  0.00  0.00    +0.000 A 
ATOM      3  C   UNL     1       2.974   7.090  18.454  0.00  0.00    +0.000 C 
ATOM      4  C   UNL     1       4.535   5.610  17.145  0.00  0.00    +0.000 A 
ATOM      5  C   UNL     1       4.805   4.156  16.810  0.00  0.00    +0.000 A 
ATOM      6  N   UNL     1       4.112   3.149  17.197  0.00  0.00    +0.000 NA
ATOM      7  C   UNL     1       3.039   3.307  18.012  0.00  0.00    +0.000 A 
ATOM      8  S   UNL     1       2.156   1.908  18.397  0.00  0.00    +0.000 S 
ENDROOT
BRANCH   4   9
ATOM      9  C   UNL     1       5.400   6.729  16.548  0.00  0.00    +0.000 C 
ATOM     10  C   UNL     1       6.612   7.355  17.194  0.00  0.00    +0.000 C 
ATOM     11  O   UNL     1       5.142   7.211  15.440  0.00  0.00    +0.000 OA
ENDBRANCH   4   9
BRANCH   1  13
ATOM     12  C   UNL     1       2.211   4.605  20.946  0.00  0.00    +0.000 C 
ATOM     13  C   UNL     1       1.698   4.771  19.519  0.00  0.00    +0.000 C 
ENDBRANCH   1  13
BRANCH   5  14
ATOM     14  S   UNL     1       6.197   3.729  15.808  0.00  0.00    +0.000 S 
ATOM     15  C   UNL     1       5.611   4.028  14.132  0.00  0.00    +0.000 C 
ENDBRANCH   5  14
TORSDOF 3
ENDMDL
MODEL 5
REMARK VINA RESULT:      -5.2      2.177      4.437
REMARK  Name = 
REMARK  7 active torsions:
REMARK  status: ('A' for Active; 'I' for Inactive)
REMARK    1  A    between atoms: C_1  and  C_2
REMARK    2  A    between atoms: C_2  and  N_3
REMARK    3  A    between atoms: C_4  and  C_5
REMARK    4  A    between atoms: C_6  and  C_7
REMARK    5  A    between atoms: C_7  and  C_8
REMARK    6  A    between atoms: C_10  and  S_11
REMARK    7  A    between atoms: S_11  and  C_12
REMARK                            x       y       z     vdW  Elec       q    Type
REMARK                         _______ _______ _______ _____ _____    ______ ____
ROOT
ATOM      1  N   UNL     1       3.099   3.577  17.828  0.00  0.00    +0.000 N 
ATOM      2  C   UNL     1       4.129   4.310  17.173  0.00  0.00    +0.000 A 
ATOM      3  C   UNL     1       5.187   3.485  16.475  0.00  0.00    +0.000 C 
ATOM      4  C   UNL     1       4.172   5.676  17.191  0.00  0.00    +0.000 A 
ATOM      5  C   UNL     1       3.020   6.255  17.990  0.00  0.00    +0.000 A 
ATOM      6  N   UNL     1       2.136   5.588  18.635  0.00  0.00    +0.000 NA
ATOM      7  C   UNL     1       2.137   4.232  18.632  0.00  0.00    +0.000 A 
ATOM      8  S   UNL     1       0.961   3.460  19.584  0.00  0.00    +0.000 S 
ENDROOT
BRANCH   4   9
ATOM      9  C   UNL     1       5.210   6.591  16.529  0.00  0.00    +0.000 C 
ATOM     10  C   UNL     1       6.449   7.151  17.186  0.00  0.00    +0.000 C 
ATOM     11  O   UNL     1       5.088   6.945  15.351  0.00  0.00    +0.000 OA
ENDBRANCH   4   9
BRANCH   1  13
ATOM     12  C   UNL     1       3.746   1.318  18.744  0.00  0.00    +0.000 C 
ATOM     13  C   UNL     1       2.998   2.100  17.669  0.00  0.00    +0.000 C 
ENDBRANCH   1  13
BRANCH   5  14
ATOM     14  S   UNL     1       2.802   8.008  18.071  0.00  0.00    +0.000 S 
ATOM     15  C   UNL     1       1.816   8.235  19.561  0.00  0.00    +0.000 C 
ENDBRANCH   5  14
TORSDOF 3
ENDMDL
MODEL 6
REMARK VINA RESULT:      -5.1      1.299      1.317
REMARK  Name = 
REMARK  7 active torsions:
REMARK  status: ('A' for Active; 'I' for Inactive)
REMARK    1  A    between atoms: C_1  and  C_2
REMARK    2  A    between atoms: C_2  and  N_3
REMARK    3  A    between atoms: C_4  and  C_5
REMARK    4  A    between atoms: C_6  and  C_7
REMARK    5  A    between atoms: C_7  and  C_8
REMARK    6  A    between atoms: C_10  and  S_11
REMARK    7  A    between atoms: S_11  and  C_12
REMARK                            x       y       z     vdW  Elec       q    Type
REMARK                         _______ _______ _______ _____ _____    ______ ____
ROOT
ATOM      1  N   UNL     1       3.966   6.020  17.287  0.00  0.00    +0.000 N 
ATOM      2  C   UNL     1       4.021   4.598  17.318  0.00  0.00    +0.000 A 
ATOM      3  C   UNL     1       5.028   3.953  16.392  0.00  0.00    +0.000 C 
ATOM      4  C   UNL     1       3.200   3.857  18.122  0.00  0.00    +0.000 A 
ATOM      5  C   UNL     1       2.261   4.742  18.918  0.00  0.00    +0.000 A 
ATOM      6  N   UNL     1       2.168   6.017  18.834  0.00  0.00    +0.000 NA
ATOM      7  C   UNL     1       2.971   6.726  18.001  0.00  0.00    +0.000 A 
ATOM      8  S   UNL     1       2.704   8.402  17.920  0.00  0.00    +0.000 S 
ENDROOT
BRANCH   4   9
ATOM      9  C   UNL     1       3.153   2.330  18.263  0.00  0.00    +0.000 C 
ATOM     10  C   UNL     1       4.032   1.494  19.162  0.00  0.00    +0.000 C 
ATOM     11  O   UNL     1       2.348   1.654  17.614  0.00  0.00    +0.000 OA
ENDBRANCH   4   9
BRANCH   1  13
ATOM     12  C   UNL     1       6.257   7.075  17.284  0.00  0.00    +0.000 C 
ATOM     13  C   UNL     1       4.969   6.803  16.513  0.00  0.00    +0.000 C 
ENDBRANCH   1  13
BRANCH   5  14
ATOM     14  S   UNL     1       1.172   4.018  20.108  0.00  0.00    +0.000 S 
ATOM     15  C   UNL     1       2.228   3.778  21.547  0.00  0.00    +0.000 C 
ENDBRANCH   5  14
TORSDOF 3
ENDMDL
MODEL 7
REMARK VINA RESULT:      -5.0      2.000      4.465
REMARK  Name = 
REMARK  7 active torsions:
REMARK  status: ('A' for Active; 'I' for Inactive)
REMARK    1  A    between atoms: C_1  and  C_2
REMARK    2  A    between atoms: C_2  and  N_3
REMARK    3  A    between atoms: C_4  and  C_5
REMARK    4  A    between atoms: C_6  and  C_7
REMARK    5  A    between atoms: C_7  and  C_8
REMARK    6  A    between atoms: C_10  and  S_11
REMARK    7  A    between atoms: S_11  and  C_12
REMARK                            x       y       z     vdW  Elec       q    Type
REMARK                         _______ _______ _______ _____ _____    ______ ____
ROOT
ATOM      1  N   UNL     1       3.818   4.088  19.109  0.00  0.00    +0.000 N 
ATOM      2  C   UNL     1       4.757   4.740  18.260  0.00  0.00    +0.000 A 
ATOM      3  C   UNL     1       6.000   3.950  17.917  0.00  0.00    +0.000 C 
ATOM      4  C   UNL     1       4.557   6.011  17.798  0.00  0.00    +0.000 A 
ATOM      5  C   UNL     1       3.257   6.591  18.319  0.00  0.00    +0.000 A 
ATOM      6  N   UNL     1       2.451   6.025  19.139  0.00  0.00    +0.000 NA
ATOM      7  C   UNL     1       2.690   4.776  19.612  0.00  0.00    +0.000 A 
ATOM      8  S   UNL     1       1.590   4.161  20.750  0.00  0.00    +0.000 S 
ENDROOT
BRANCH   4   9
ATOM      9  C   UNL     1       5.472   6.830  16.878  0.00  0.00    +0.000 C 
ATOM     10  C   UNL     1       6.727   7.560  17.294  0.00  0.00    +0.000 C 
ATOM     11  O   UNL     1       5.224   6.947  15.673  0.00  0.00    +0.000 OA
ENDBRANCH   4   9
BRANCH   1  13
ATOM     12  C   UNL     1       3.333   1.690  18.496  0.00  0.00    +0.000 C 
ATOM     13  C   UNL     1       3.993   2.656  19.476  0.00  0.00    +0.000 C 
ENDBRANCH   1  13
BRANCH   5  14
ATOM     14  S   UNL     1       2.728   8.188  17.775  0.00  0.00    +0.000 S 
ATOM     15  C   UNL     1       1.658   8.749  19.112  0.00  0.00    +0.000 C 
ENDBRANCH   5  14
TORSDOF 3
ENDMDL
MODEL 8
REMARK VINA RESULT:      -5.0      2.249      3.436
REMARK  Name = 
REMARK  7 active torsions:
REMARK  status: ('A' for Active; 'I' for Inactive)
REMARK    1  A    between atoms: C_1  and  C_2
REMARK    2  A    between atoms: C_2  and  N_3
REMARK    3  A    between atoms: C_4  and  C_5
REMARK    4  A    between atoms: C_6  and  C_7
REMARK    5  A    between atoms: C_7  and  C_8
REMARK    6  A    between atoms: C_10  and  S_11
REMARK    7  A    between atoms: S_11  and  C_12
REMARK                            x       y       z     vdW  Elec       q    Type
REMARK                         _______ _______ _______ _____ _____    ______ ____
ROOT
ATOM      1  N   UNL     1       3.164   6.501  18.364  0.00  0.00    +0.000 N 
ATOM      2  C   UNL     1       2.409   5.800  19.347  0.00  0.00    +0.000 A 
ATOM      3  C   UNL     1       1.753   6.651  20.410  0.00  0.00    +0.000 C 
ATOM      4  C   UNL     1       2.301   4.437  19.343  0.00  0.00    +0.000 A 
ATOM      5  C   UNL     1       3.083   3.823  18.198  0.00  0.00    +0.000 A 
ATOM      6  N   UNL     1       3.817   4.455  17.358  0.00  0.00    +0.000 NA
ATOM      7  C   UNL     1       3.937   5.805  17.406  0.00  0.00    +0.000 A 
ATOM      8  S   UNL     1       4.996   6.522  16.288  0.00  0.00    +0.000 S 
ENDROOT
BRANCH   4   9
ATOM      9  C   UNL     1       1.522   3.554  20.327  0.00  0.00    +0.000 C 
ATOM     10  C   UNL     1       2.001   3.103  21.686  0.00  0.00    +0.000 C 
ATOM     11  O   UNL     1       0.392   3.137  20.053  0.00  0.00    +0.000 OA
ENDBRANCH   4   9
BRANCH   1  13
ATOM     12  C   UNL     1       1.894   8.557  17.644  0.00  0.00    +0.000 C 
ATOM     13  C   UNL     1       3.144   7.988  18.309  0.00  0.00    +0.000 C 
ENDBRANCH   1  13
BRANCH   5  14
ATOM     14  S   UNL     1       3.011   2.078  17.922  0.00  0.00    +0.000 S 
ATOM     15  C   UNL     1       4.187   1.419  19.116  0.00  0.00    +0.000 C 
ENDBRANCH   5  14
TORSDOF 3
ENDMDL
MODEL 9
REMARK VINA RESULT:      -4.9      1.955      2.872
REMARK  Name = 
REMARK  7 active torsions:
REMARK  status: ('A' for Active; 'I' for Inactive)
REMARK    1  A    between atoms: C_1  and  C_2
REMARK    2  A    between atoms: C_2  and  N_3
REMARK    3  A    between atoms: C_4  and  C_5
REMARK    4  A    between atoms: C_6  and  C_7
REMARK    5  A    between atoms: C_7  and  C_8
REMARK    6  A    between atoms: C_10  and  S_11
REMARK    7  A    between atoms: S_11  and  C_12
REMARK                            x       y       z     vdW  Elec       q    Type
REMARK                         _______ _______ _______ _____ _____    ______ ____
ROOT
ATOM      1  N   UNL     1       4.418   4.387  17.695  0.00  0.00    +0.000 N 
ATOM      2  C   UNL     1       3.489   3.502  18.312  0.00  0.00    +0.000 A 
ATOM      3  C   UNL     1       3.572   2.053  17.889  0.00  0.00    +0.000 C 
ATOM      4  C   UNL     1       2.561   3.940  19.216  0.00  0.00    +0.000 A 
ATOM      5  C   UNL     1       2.663   5.437  19.434  0.00  0.00    +0.000 A 
ATOM      6  N   UNL     1       3.456   6.238  18.824  0.00  0.00    +0.000 NA
ATOM      7  C   UNL     1       4.343   5.783  17.903  0.00  0.00    +0.000 A 
ATOM      8  S   UNL     1       5.289   6.949  17.108  0.00  0.00    +0.000 S 
ENDROOT
BRANCH   4   9
ATOM      9  C   UNL     1       1.509   3.106  19.959  0.00  0.00    +0.000 C 
ATOM     10  C   UNL     1       1.610   2.613  21.383  0.00  0.00    +0.000 C 
ATOM     11  O   UNL     1       0.456   2.769  19.407  0.00  0.00    +0.000 OA
ENDBRANCH   4   9
BRANCH   1  13
ATOM     12  C   UNL     1       5.264   4.084  15.339  0.00  0.00    +0.000 C 
ATOM     13  C   UNL     1       5.508   3.860  16.828  0.00  0.00    +0.000 C 
ENDBRANCH   1  13
BRANCH   5  14
ATOM     14  S   UNL     1       1.635   6.221  20.640  0.00  0.00    +0.000 S 
ATOM     15  C   UNL     1       1.769   7.969  20.227  0.00  0.00    +0.000 C 
ENDBRANCH   5  14
TORSDOF 3
ENDMDL
