MODEL 1
REMARK VINA RESULT:      -7.6      0.000      0.000
REMARK  Name = 
REMARK  3 active torsions:
REMARK  status: ('A' for Active; 'I' for Inactive)
REMARK    1  A    between atoms: N_1  and  C_2
REMARK    2  A    between atoms: C_8  and  O_9
REMARK    3  A    between atoms: O_9  and  C_10
REMARK                            x       y       z     vdW  Elec       q    Type
REMARK                         _______ _______ _______ _____ _____    ______ ____
ROOT
ATOM      1  C   UNL     1       4.641   5.869  18.453  0.00  0.00    +0.000 C 
ATOM      2  C   UNL     1       3.562   6.651  18.617  0.00  0.00    +0.000 C 
ATOM      3 CL   UNL     1       3.427   8.175  17.802  0.00  0.00    +0.000 Cl
ATOM      4  C   UNL     1       2.408   6.266  19.466  0.00  0.00    +0.000 C 
ATOM      5  O   UNL     1       1.466   7.018  19.690  0.00  0.00    +0.000 OA
ATOM      6  C   UNL     1       2.393   4.894  19.999  0.00  0.00    +0.000 A 
ATOM      7  C   UNL     1       1.233   4.399  20.611  0.00  0.00    +0.000 A 
ATOM      8  C   UNL     1       1.206   3.089  21.092  0.00  0.00    +0.000 A 
ATOM      9  C   UNL     1       2.332   2.275  20.964  0.00  0.00    +0.000 A 
ATOM     10  C   UNL     1       3.492   2.774  20.365  0.00  0.00    +0.000 A 
ATOM     11  C   UNL     1       3.521   4.090  19.885  0.00  0.00    +0.000 A 
ATOM     12  C   UNL     1       4.752   4.618  19.268  0.00  0.00    +0.000 C 
ATOM     13  O   UNL     1       5.809   4.022  19.431  0.00  0.00    +0.000 OA
ENDROOT
BRANCH   1  14
ATOM     14  O   UNL     1       5.651   6.288  17.588  0.00  0.00    +0.000 OA
BRANCH  14  21
ATOM     15  C   UNL     1       7.072   4.747  16.253  0.00  0.00    +0.000 A 
ATOM     16  C   UNL     1       7.187   4.080  15.021  0.00  0.00    +0.000 A 
ATOM     17  C   UNL     1       6.259   4.281  13.998  0.00  0.00    +0.000 A 
ATOM     18 CL   UNL     1       6.430   3.432  12.510  0.00  0.00    +0.000 Cl
ATOM     19  C   UNL     1       5.176   5.129  14.188  0.00  0.00    +0.000 A 
ATOM     20  C   UNL     1       5.038   5.794  15.404  0.00  0.00    +0.000 A 
ATOM     21  C   UNL     1       5.981   5.619  16.432  0.00  0.00    +0.000 A 
BRANCH  15  22
ATOM     22  N   UNL     1       7.903   4.305  17.297  0.00  0.00    +0.000 N 
ATOM     23  H   UNL     1       7.537   4.528  18.220  0.00  0.00    +0.000 HD
ATOM     24  H   UNL     1       8.238   3.359  17.238  0.00  0.00    +0.000 HD
ENDBRANCH  15  22
ENDBRANCH  14  21
ENDBRANCH   1  14
TORSDOF 3
ENDMDL
MODEL 2
REMARK VINA RESULT:      -7.0      2.769      3.768
REMARK  Name = 
REMARK  3 active torsions:
REMARK  status: ('A' for Active; 'I' for Inactive)
REMARK    1  A    between atoms: N_1  and  C_2
REMARK    2  A    between atoms: C_8  and  O_9
REMARK    3  A    between atoms: O_9  and  C_10
REMARK                            x       y       z     vdW  Elec       q    Type
REMARK                         _______ _______ _______ _____ _____    ______ ____
ROOT
ATOM      1  C   UNL     1       5.164   4.296  18.021  0.00  0.00    +0.000 C 
ATOM      2  C   UNL     1       4.469   3.792  16.988  0.00  0.00    +0.000 C 
ATOM      3 CL   UNL     1       5.224   3.506  15.454  0.00  0.00    +0.000 Cl
ATOM      4  C   UNL     1       3.037   3.417  17.085  0.00  0.00    +0.000 C 
ATOM      5  O   UNL     1       2.380   3.045  16.120  0.00  0.00    +0.000 OA
ATOM      6  C   UNL     1       2.424   3.444  18.423  0.00  0.00    +0.000 A 
ATOM      7  C   UNL     1       1.152   2.886  18.617  0.00  0.00    +0.000 A 
ATOM      8  C   UNL     1       0.580   2.886  19.889  0.00  0.00    +0.000 A 
ATOM      9  C   UNL     1       1.273   3.440  20.967  0.00  0.00    +0.000 A 
ATOM     10  C   UNL     1       2.534   4.007  20.770  0.00  0.00    +0.000 A 
ATOM     11  C   UNL     1       3.109   4.012  19.492  0.00  0.00    +0.000 A 
ATOM     12  C   UNL     1       4.434   4.625  19.285  0.00  0.00    +0.000 C 
ATOM     13  O   UNL     1       4.893   5.367  20.145  0.00  0.00    +0.000 OA
ENDROOT
BRANCH   1  14
ATOM     14  O   UNL     1       6.522   4.564  17.852  0.00  0.00    +0.000 OA
BRANCH  14  21
ATOM     15  C   UNL     1       7.957   6.153  19.113  0.00  0.00    +0.000 A 
ATOM     16  C   UNL     1       8.500   7.450  19.111  0.00  0.00    +0.000 A 
ATOM     17  C   UNL     1       8.175   8.370  18.113  0.00  0.00    +0.000 A 
ATOM     18 CL   UNL     1       8.875   9.942  18.140  0.00  0.00    +0.000 Cl
ATOM     19  C   UNL     1       7.323   8.012  17.077  0.00  0.00    +0.000 A 
ATOM     20  C   UNL     1       6.780   6.729  17.056  0.00  0.00    +0.000 A 
ATOM     21  C   UNL     1       7.080   5.803  18.069  0.00  0.00    +0.000 A 
BRANCH  15  22
ATOM     22  N   UNL     1       8.522   5.227  20.008  0.00  0.00    +0.000 N 
ATOM     23  H   UNL     1       7.904   4.447  20.217  0.00  0.00    +0.000 HD
ATOM     24  H   UNL     1       9.462   4.928  19.815  0.00  0.00    +0.000 HD
ENDBRANCH  15  22
ENDBRANCH  14  21
ENDBRANCH   1  14
TORSDOF 3
ENDMDL
MODEL 3
REMARK VINA RESULT:      -6.7      2.789      3.933
REMARK  Name = 
REMARK  3 active torsions:
REMARK  status: ('A' for Active; 'I' for Inactive)
REMARK    1  A    between atoms: N_1  and  C_2
REMARK    2  A    between atoms: C_8  and  O_9
REMARK    3  A    between atoms: O_9  and  C_10
REMARK                            x       y       z     vdW  Elec       q    Type
REMARK                         _______ _______ _______ _____ _____    ______ ____
ROOT
ATOM      1  C   UNL     1       5.178   4.265  17.990  0.00  0.00    +0.000 C 
ATOM      2  C   UNL     1       4.477   3.717  16.985  0.00  0.00    +0.000 C 
ATOM      3 CL   UNL     1       5.223   3.364  15.460  0.00  0.00    +0.000 Cl
ATOM      4  C   UNL     1       3.046   3.347  17.107  0.00  0.00    +0.000 C 
ATOM      5  O   UNL     1       2.383   2.934  16.163  0.00  0.00    +0.000 OA
ATOM      6  C   UNL     1       2.441   3.433  18.445  0.00  0.00    +0.000 A 
ATOM      7  C   UNL     1       1.170   2.884  18.671  0.00  0.00    +0.000 A 
ATOM      8  C   UNL     1       0.606   2.939  19.945  0.00  0.00    +0.000 A 
ATOM      9  C   UNL     1       1.304   3.539  20.994  0.00  0.00    +0.000 A 
ATOM     10  C   UNL     1       2.565   4.097  20.765  0.00  0.00    +0.000 A 
ATOM     11  C   UNL     1       3.132   4.046  19.485  0.00  0.00    +0.000 A 
ATOM     12  C   UNL     1       4.456   4.649  19.244  0.00  0.00    +0.000 C 
ATOM     13  O   UNL     1       4.920   5.427  20.068  0.00  0.00    +0.000 OA
ENDROOT
BRANCH   1  14
ATOM     14  O   UNL     1       6.535   4.524  17.802  0.00  0.00    +0.000 OA
BRANCH  14  21
ATOM     15  C   UNL     1       6.763   6.841  16.931  0.00  0.00    +0.000 A 
ATOM     16  C   UNL     1       7.346   8.098  17.170  0.00  0.00    +0.000 A 
ATOM     17  C   UNL     1       8.211   8.303  18.246  0.00  0.00    +0.000 A 
ATOM     18 CL   UNL     1       8.890   9.863  18.510  0.00  0.00    +0.000 Cl
ATOM     19  C   UNL     1       8.497   7.269  19.126  0.00  0.00    +0.000 A 
ATOM     20  C   UNL     1       7.924   6.017  18.912  0.00  0.00    +0.000 A 
ATOM     21  C   UNL     1       7.071   5.792  17.818  0.00  0.00    +0.000 A 
BRANCH  15  22
ATOM     22  N   UNL     1       5.727   6.788  15.982  0.00  0.00    +0.000 N 
ATOM     23  H   UNL     1       5.122   7.605  16.009  0.00  0.00    +0.000 HD
ATOM     24  H   UNL     1       5.987   6.535  15.044  0.00  0.00    +0.000 HD
ENDBRANCH  15  22
ENDBRANCH  14  21
ENDBRANCH   1  14
TORSDOF 3
ENDMDL
MODEL 4
REMARK VINA RESULT:      -6.6      2.651      4.030
REMARK  Name = 
REMARK  3 active torsions:
REMARK  status: ('A' for Active; 'I' for Inactive)
REMARK    1  A    between atoms: N_1  and  C_2
REMARK    2  A    between atoms: C_8  and  O_9
REMARK    3  A    between atoms: O_9  and  C_10
REMARK                            x       y       z     vdW  Elec       q    Type
REMARK                         _______ _______ _______ _____ _____    ______ ____
ROOT
ATOM      1  C   UNL     1       4.579   5.060  17.256  0.00  0.00    +0.000 C 
ATOM      2  C   UNL     1       4.594   3.731  17.063  0.00  0.00    +0.000 C 
ATOM      3 CL   UNL     1       5.777   2.988  16.037  0.00  0.00    +0.000 Cl
ATOM      4  C   UNL     1       3.637   2.810  17.724  0.00  0.00    +0.000 C 
ATOM      5  O   UNL     1       3.591   1.610  17.476  0.00  0.00    +0.000 OA
ATOM      6  C   UNL     1       2.762   3.378  18.761  0.00  0.00    +0.000 A 
ATOM      7  C   UNL     1       2.005   2.526  19.577  0.00  0.00    +0.000 A 
ATOM      8  C   UNL     1       1.196   3.061  20.579  0.00  0.00    +0.000 A 
ATOM      9  C   UNL     1       1.140   4.442  20.769  0.00  0.00    +0.000 A 
ATOM     10  C   UNL     1       1.884   5.292  19.948  0.00  0.00    +0.000 A 
ATOM     11  C   UNL     1       2.695   4.756  18.938  0.00  0.00    +0.000 A 
ATOM     12  C   UNL     1       3.468   5.657  18.062  0.00  0.00    +0.000 C 
ATOM     13  O   UNL     1       3.187   6.848  18.028  0.00  0.00    +0.000 OA
ENDROOT
BRANCH   1  14
ATOM     14  O   UNL     1       5.555   5.841  16.638  0.00  0.00    +0.000 OA
BRANCH  14  21
ATOM     15  C   UNL     1       7.434   6.144  18.236  0.00  0.00    +0.000 A 
ATOM     16  C   UNL     1       8.333   7.081  18.777  0.00  0.00    +0.000 A 
ATOM     17  C   UNL     1       8.260   8.434  18.441  0.00  0.00    +0.000 A 
ATOM     18 CL   UNL     1       9.391   9.543  19.114  0.00  0.00    +0.000 Cl
ATOM     19  C   UNL     1       7.307   8.883  17.538  0.00  0.00    +0.000 A 
ATOM     20  C   UNL     1       6.411   7.971  16.984  0.00  0.00    +0.000 A 
ATOM     21  C   UNL     1       6.459   6.611  17.334  0.00  0.00    +0.000 A 
BRANCH  15  22
ATOM     22  N   UNL     1       7.732   4.785  18.438  0.00  0.00    +0.000 N 
ATOM     23  H   UNL     1       7.149   4.351  19.150  0.00  0.00    +0.000 HD
ATOM     24  H   UNL     1       7.818   4.215  17.614  0.00  0.00    +0.000 HD
ENDBRANCH  15  22
ENDBRANCH  14  21
ENDBRANCH   1  14
TORSDOF 3
ENDMDL
MODEL 5
REMARK VINA RESULT:      -6.5      2.316      3.149
REMARK  Name = 
REMARK  3 active torsions:
REMARK  status: ('A' for Active; 'I' for Inactive)
REMARK    1  A    between atoms: N_1  and  C_2
REMARK    2  A    between atoms: C_8  and  O_9
REMARK    3  A    between atoms: O_9  and  C_10
REMARK                            x       y       z     vdW  Elec       q    Type
REMARK                         _______ _______ _______ _____ _____    ______ ____
ROOT
ATOM      1  C   UNL     1       3.954   3.651  17.768  0.00  0.00    +0.000 C 
ATOM      2  C   UNL     1       3.214   2.872  18.574  0.00  0.00    +0.000 C 
ATOM      3 CL   UNL     1       3.434   1.152  18.608  0.00  0.00    +0.000 Cl
ATOM      4  C   UNL     1       2.192   3.413  19.504  0.00  0.00    +0.000 C 
ATOM      5  O   UNL     1       1.453   2.697  20.170  0.00  0.00    +0.000 OA
ATOM      6  C   UNL     1       2.128   4.875  19.656  0.00  0.00    +0.000 A 
ATOM      7  C   UNL     1       1.350   5.434  20.679  0.00  0.00    +0.000 A 
ATOM      8  C   UNL     1       1.310   6.819  20.844  0.00  0.00    +0.000 A 
ATOM      9  C   UNL     1       2.043   7.645  19.992  0.00  0.00    +0.000 A 
ATOM     10  C   UNL     1       2.808   7.088  18.964  0.00  0.00    +0.000 A 
ATOM     11  C   UNL     1       2.847   5.697  18.795  0.00  0.00    +0.000 A 
ATOM     12  C   UNL     1       3.642   5.113  17.700  0.00  0.00    +0.000 C 
ATOM     13  O   UNL     1       4.027   5.833  16.787  0.00  0.00    +0.000 OA
ENDROOT
BRANCH   1  14
ATOM     14  O   UNL     1       4.932   3.058  16.971  0.00  0.00    +0.000 OA
BRANCH  14  21
ATOM     15  C   UNL     1       6.911   4.464  16.441  0.00  0.00    +0.000 A 
ATOM     16  C   UNL     1       7.648   5.049  15.396  0.00  0.00    +0.000 A 
ATOM     17  C   UNL     1       7.226   4.954  14.069  0.00  0.00    +0.000 A 
ATOM     18 CL   UNL     1       8.168   5.673  12.820  0.00  0.00    +0.000 Cl
ATOM     19  C   UNL     1       6.074   4.251  13.746  0.00  0.00    +0.000 A 
ATOM     20  C   UNL     1       5.332   3.657  14.764  0.00  0.00    +0.000 A 
ATOM     21  C   UNL     1       5.734   3.767  16.107  0.00  0.00    +0.000 A 
BRANCH  15  22
ATOM     22  N   UNL     1       7.530   4.401  17.701  0.00  0.00    +0.000 N 
ATOM     23  H   UNL     1       7.766   3.452  17.982  0.00  0.00    +0.000 HD
ATOM     24  H   UNL     1       8.284   5.046  17.866  0.00  0.00    +0.000 HD
ENDBRANCH  15  22
ENDBRANCH  14  21
ENDBRANCH   1  14
TORSDOF 3
ENDMDL
MODEL 6
REMARK VINA RESULT:      -6.5      1.166      1.279
REMARK  Name = 
REMARK  3 active torsions:
REMARK  status: ('A' for Active; 'I' for Inactive)
REMARK    1  A    between atoms: N_1  and  C_2
REMARK    2  A    between atoms: C_8  and  O_9
REMARK    3  A    between atoms: O_9  and  C_10
REMARK                            x       y       z     vdW  Elec       q    Type
REMARK                         _______ _______ _______ _____ _____    ______ ____
ROOT
ATOM      1  C   UNL     1       4.984   4.841  18.571  0.00  0.00    +0.000 C 
ATOM      2  C   UNL     1       4.207   5.935  18.512  0.00  0.00    +0.000 C 
ATOM      3 CL   UNL     1       4.711   7.345  17.637  0.00  0.00    +0.000 Cl
ATOM      4  C   UNL     1       2.870   6.011  19.150  0.00  0.00    +0.000 C 
ATOM      5  O   UNL     1       2.203   7.039  19.176  0.00  0.00    +0.000 OA
ATOM      6  C   UNL     1       2.323   4.768  19.715  0.00  0.00    +0.000 A 
ATOM      7  C   UNL     1       0.982   4.721  20.123  0.00  0.00    +0.000 A 
ATOM      8  C   UNL     1       0.453   3.535  20.633  0.00  0.00    +0.000 A 
ATOM      9  C   UNL     1       1.256   2.399  20.737  0.00  0.00    +0.000 A 
ATOM     10  C   UNL     1       2.595   2.450  20.343  0.00  0.00    +0.000 A 
ATOM     11  C   UNL     1       3.130   3.642  19.833  0.00  0.00    +0.000 A 
ATOM     12  C   UNL     1       4.548   3.697  19.432  0.00  0.00    +0.000 C 
ATOM     13  O   UNL     1       5.311   2.814  19.803  0.00  0.00    +0.000 OA
ENDROOT
BRANCH   1  14
ATOM     14  O   UNL     1       6.200   4.841  17.890  0.00  0.00    +0.000 OA
BRANCH  14  21
ATOM     15  C   UNL     1       6.997   5.598  15.661  0.00  0.00    +0.000 A 
ATOM     16  C   UNL     1       7.064   5.261  14.298  0.00  0.00    +0.000 A 
ATOM     17  C   UNL     1       6.452   4.107  13.805  0.00  0.00    +0.000 A 
ATOM     18 CL   UNL     1       6.573   3.724  12.131  0.00  0.00    +0.000 Cl
ATOM     19  C   UNL     1       5.780   3.247  14.663  0.00  0.00    +0.000 A 
ATOM     20  C   UNL     1       5.709   3.558  16.019  0.00  0.00    +0.000 A 
ATOM     21  C   UNL     1       6.300   4.729  16.522  0.00  0.00    +0.000 A 
BRANCH  15  22
ATOM     22  N   UNL     1       7.838   6.634  16.103  0.00  0.00    +0.000 N 
ATOM     23  H   UNL     1       8.807   6.343  16.211  0.00  0.00    +0.000 HD
ATOM     24  H   UNL     1       7.755   7.517  15.628  0.00  0.00    +0.000 HD
ENDBRANCH  15  22
ENDBRANCH  14  21
ENDBRANCH   1  14
TORSDOF 3
ENDMDL
MODEL 7
REMARK VINA RESULT:      -6.5      3.261      6.229
REMARK  Name = 
REMARK  3 active torsions:
REMARK  status: ('A' for Active; 'I' for Inactive)
REMARK    1  A    between atoms: N_1  and  C_2
REMARK    2  A    between atoms: C_8  and  O_9
REMARK    3  A    between atoms: O_9  and  C_10
REMARK                            x       y       z     vdW  Elec       q    Type
REMARK                         _______ _______ _______ _____ _____    ______ ____
ROOT
ATOM      1  C   UNL     1       3.598   5.548  18.713  0.00  0.00    +0.000 C 
ATOM      2  C   UNL     1       2.860   4.576  18.152  0.00  0.00    +0.000 C 
ATOM      3 CL   UNL     1       1.250   4.244  18.703  0.00  0.00    +0.000 Cl
ATOM      4  C   UNL     1       3.341   3.748  17.020  0.00  0.00    +0.000 C 
ATOM      5  O   UNL     1       2.705   2.802  16.570  0.00  0.00    +0.000 OA
ATOM      6  C   UNL     1       4.611   4.143  16.390  0.00  0.00    +0.000 A 
ATOM      7  C   UNL     1       5.003   3.549  15.182  0.00  0.00    +0.000 A 
ATOM      8  C   UNL     1       6.193   3.941  14.568  0.00  0.00    +0.000 A 
ATOM      9  C   UNL     1       6.992   4.922  15.156  0.00  0.00    +0.000 A 
ATOM     10  C   UNL     1       6.607   5.504  16.367  0.00  0.00    +0.000 A 
ATOM     11  C   UNL     1       5.414   5.109  16.986  0.00  0.00    +0.000 A 
ATOM     12  C   UNL     1       5.019   5.715  18.272  0.00  0.00    +0.000 C 
ATOM     13  O   UNL     1       5.850   6.334  18.924  0.00  0.00    +0.000 OA
ENDROOT
BRANCH   1  14
ATOM     14  O   UNL     1       3.039   6.314  19.735  0.00  0.00    +0.000 OA
BRANCH  14  21
ATOM     15  C   UNL     1       1.568   8.176  20.472  0.00  0.00    +0.000 A 
ATOM     16  C   UNL     1       0.928   9.358  20.058  0.00  0.00    +0.000 A 
ATOM     17  C   UNL     1       0.983   9.785  18.730  0.00  0.00    +0.000 A 
ATOM     18 CL   UNL     1       0.197  11.246  18.270  0.00  0.00    +0.000 Cl
ATOM     19  C   UNL     1       1.701   9.062  17.788  0.00  0.00    +0.000 A 
ATOM     20  C   UNL     1       2.350   7.893  18.178  0.00  0.00    +0.000 A 
ATOM     21  C   UNL     1       2.280   7.439  19.507  0.00  0.00    +0.000 A 
BRANCH  15  22
ATOM     22  N   UNL     1       1.663   7.955  21.857  0.00  0.00    +0.000 N 
ATOM     23  H   UNL     1       0.906   7.381  22.221  0.00  0.00    +0.000 HD
ATOM     24  H   UNL     1       2.561   7.669  22.208  0.00  0.00    +0.000 HD
ENDBRANCH  15  22
ENDBRANCH  14  21
ENDBRANCH   1  14
TORSDOF 3
ENDMDL
MODEL 8
REMARK VINA RESULT:      -6.5      2.738      6.528
REMARK  Name = 
REMARK  3 active torsions:
REMARK  status: ('A' for Active; 'I' for Inactive)
REMARK    1  A    between atoms: N_1  and  C_2
REMARK    2  A    between atoms: C_8  and  O_9
REMARK    3  A    between atoms: O_9  and  C_10
REMARK                            x       y       z     vdW  Elec       q    Type
REMARK                         _______ _______ _______ _____ _____    ______ ____
ROOT
ATOM      1  C   UNL     1       5.301   4.446  17.664  0.00  0.00    +0.000 C 
ATOM      2  C   UNL     1       6.355   5.279  17.657  0.00  0.00    +0.000 C 
ATOM      3 CL   UNL     1       7.005   5.914  19.134  0.00  0.00    +0.000 Cl
ATOM      4  C   UNL     1       7.052   5.687  16.413  0.00  0.00    +0.000 C 
ATOM      5  O   UNL     1       7.953   6.518  16.397  0.00  0.00    +0.000 OA
ATOM      6  C   UNL     1       6.665   5.002  15.169  0.00  0.00    +0.000 A 
ATOM      7  C   UNL     1       7.437   5.176  14.011  0.00  0.00    +0.000 A 
ATOM      8  C   UNL     1       7.088   4.506  12.838  0.00  0.00    +0.000 A 
ATOM      9  C   UNL     1       5.974   3.666  12.817  0.00  0.00    +0.000 A 
ATOM     10  C   UNL     1       5.199   3.504  13.968  0.00  0.00    +0.000 A 
ATOM     11  C   UNL     1       5.545   4.179  15.146  0.00  0.00    +0.000 A 
ATOM     12  C   UNL     1       4.715   4.018  16.355  0.00  0.00    +0.000 C 
ATOM     13  O   UNL     1       3.593   3.539  16.253  0.00  0.00    +0.000 OA
ENDROOT
BRANCH   1  14
ATOM     14  O   UNL     1       4.748   4.071  18.887  0.00  0.00    +0.000 OA
BRANCH  14  21
ATOM     15  C   UNL     1       2.767   4.153  20.386  0.00  0.00    +0.000 A 
ATOM     16  C   UNL     1       1.774   4.993  20.921  0.00  0.00    +0.000 A 
ATOM     17  C   UNL     1       1.670   6.330  20.535  0.00  0.00    +0.000 A 
ATOM     18 CL   UNL     1       0.450   7.327  21.228  0.00  0.00    +0.000 Cl
ATOM     19  C   UNL     1       2.569   6.871  19.626  0.00  0.00    +0.000 A 
ATOM     20  C   UNL     1       3.565   6.059  19.089  0.00  0.00    +0.000 A 
ATOM     21  C   UNL     1       3.664   4.705  19.451  0.00  0.00    +0.000 A 
BRANCH  15  22
ATOM     22  N   UNL     1       2.947   2.905  21.006  0.00  0.00    +0.000 N 
ATOM     23  H   UNL     1       2.507   2.847  21.922  0.00  0.00    +0.000 HD
ATOM     24  H   UNL     1       2.767   2.090  20.444  0.00  0.00    +0.000 HD
ENDBRANCH  15  22
ENDBRANCH  14  21
ENDBRANCH   1  14
TORSDOF 3
ENDMDL
MODEL 9
REMARK VINA RESULT:      -6.4      2.075      3.209
REMARK  Name = 
REMARK  3 active torsions:
REMARK  status: ('A' for Active; 'I' for Inactive)
REMARK    1  A    between atoms: N_1  and  C_2
REMARK    2  A    between atoms: C_8  and  O_9
REMARK    3  A    between atoms: O_9  and  C_10
REMARK                            x       y       z     vdW  Elec       q    Type
REMARK                         _______ _______ _______ _____ _____    ______ ____
ROOT
ATOM      1  C   UNL     1       4.121   4.487  18.487  0.00  0.00    +0.000 C 
ATOM      2  C   UNL     1       3.576   3.980  19.605  0.00  0.00    +0.000 C 
ATOM      3 CL   UNL     1       4.075   2.440  20.227  0.00  0.00    +0.000 Cl
ATOM      4  C   UNL     1       2.549   4.698  20.399  0.00  0.00    +0.000 C 
ATOM      5  O   UNL     1       1.985   4.198  21.365  0.00  0.00    +0.000 OA
ATOM      6  C   UNL     1       2.260   6.091  20.022  0.00  0.00    +0.000 A 
ATOM      7  C   UNL     1       1.476   6.891  20.865  0.00  0.00    +0.000 A 
ATOM      8  C   UNL     1       1.224   8.221  20.525  0.00  0.00    +0.000 A 
ATOM      9  C   UNL     1       1.751   8.752  19.347  0.00  0.00    +0.000 A 
ATOM     10  C   UNL     1       2.521   7.950  18.501  0.00  0.00    +0.000 A 
ATOM     11  C   UNL     1       2.773   6.614  18.840  0.00  0.00    +0.000 A 
ATOM     12  C   UNL     1       3.573   5.766  17.937  0.00  0.00    +0.000 C 
ATOM     13  O   UNL     1       3.769   6.134  16.785  0.00  0.00    +0.000 OA
ENDROOT
BRANCH   1  14
ATOM     14  O   UNL     1       5.123   3.765  17.840  0.00  0.00    +0.000 OA
BRANCH  14  21
ATOM     15  C   UNL     1       6.940   5.023  16.703  0.00  0.00    +0.000 A 
ATOM     16  C   UNL     1       7.524   5.309  15.456  0.00  0.00    +0.000 A 
ATOM     17  C   UNL     1       6.970   4.826  14.269  0.00  0.00    +0.000 A 
ATOM     18 CL   UNL     1       7.727   5.187  12.765  0.00  0.00    +0.000 Cl
ATOM     19  C   UNL     1       5.838   4.024  14.296  0.00  0.00    +0.000 A 
ATOM     20  C   UNL     1       5.248   3.721  15.522  0.00  0.00    +0.000 A 
ATOM     21  C   UNL     1       5.782   4.223  16.722  0.00  0.00    +0.000 A 
BRANCH  15  22
ATOM     22  N   UNL     1       7.692   5.342  17.847  0.00  0.00    +0.000 N 
ATOM     23  H   UNL     1       8.678   5.495  17.645  0.00  0.00    +0.000 HD
ATOM     24  H   UNL     1       7.313   6.048  18.455  0.00  0.00    +0.000 HD
ENDBRANCH  15  22
ENDBRANCH  14  21
ENDBRANCH   1  14
TORSDOF 3
ENDMDL
