MODEL 1
REMARK VINA RESULT:      -7.8      0.000      0.000
REMARK  Name = 
REMARK  9 active torsions:
REMARK  status: ('A' for Active; 'I' for Inactive)
REMARK    1  A    between atoms: C_1  and  O_2
REMARK    2  A    between atoms: O_2  and  C_3
REMARK    3  A    between atoms: C_3  and  C_5
REMARK    4  A    between atoms: C_7  and  O_8
REMARK    5  A    between atoms: O_8  and  C_9
REMARK    6  A    between atoms: C_9  and  C_11
REMARK    7  A    between atoms: C_19  and  C_20
REMARK    8  A    between atoms: C_27  and  C_28
REMARK    9  A    between atoms: C_34  and  C_35
REMARK                            x       y       z     vdW  Elec       q    Type
REMARK                         _______ _______ _______ _____ _____    ______ ____
ROOT
ATOM      1  C   UNL     1       6.319   6.306  18.367  0.00  0.00    +0.000 C 
ATOM      2  C   UNL     1       6.731   5.090  19.222  0.00  0.00    +0.000 C 
ATOM      3  C   UNL     1       5.554   4.300  19.813  0.00  0.00    +0.000 C 
ATOM      4  C   UNL     1       4.288   5.136  19.818  0.00  0.00    +0.000 C 
ATOM      5  C   UNL     1       3.969   6.046  18.862  0.00  0.00    +0.000 C 
ATOM      6  C   UNL     1       4.933   6.187  17.662  0.00  0.00    +0.000 C 
ATOM      7  C   UNL     1       4.734   4.953  16.743  0.00  0.00    +0.000 C 
ATOM      8  C   UNL     1       4.714   7.425  16.745  0.00  0.00    +0.000 C 
ATOM      9  C   UNL     1       3.257   7.851  16.617  0.00  0.00    +0.000 C 
ATOM     10  C   UNL     1       2.735   8.134  18.021  0.00  0.00    +0.000 C 
ATOM     11  C   UNL     1       1.414   8.877  18.026  0.00  0.00    +0.000 C 
ATOM     12  O   UNL     1       0.885   9.328  17.017  0.00  0.00    +0.000 OA
ATOM     13  O   UNL     1       0.914   9.137  19.260  0.00  0.00    +0.000 OA
ATOM     14  C   UNL     1       1.029   8.162  20.318  0.00  0.00    +0.000 C 
ATOM     15  C   UNL     1       2.365   7.416  20.305  0.00  0.00    +0.000 C 
ATOM     16  C   UNL     1       2.665   6.862  18.890  0.00  0.00    +0.000 C 
ATOM     17  C   UNL     1       1.556   5.899  18.401  0.00  0.00    +0.000 C 
ENDROOT
BRANCH  14  18
ATOM     18  C   UNL     1       0.754   8.785  21.651  0.00  0.00    +0.000 A 
ATOM     19  C   UNL     1      -0.505   9.117  22.229  0.00  0.00    +0.000 A 
ATOM     20  C   UNL     1      -0.241   9.629  23.476  0.00  0.00    +0.000 A 
ATOM     21  O   UNL     1       1.096   9.647  23.707  0.00  0.00    +0.000 OA
ATOM     22  C   UNL     1       1.692   9.134  22.603  0.00  0.00    +0.000 A 
ENDBRANCH  14  18
BRANCH   1  23
ATOM     23  C   UNL     1       7.475   6.807  17.528  0.00  0.00    +0.000 C 
ATOM     24  O   UNL     1       7.661   6.455  16.370  0.00  0.00    +0.000 OA
BRANCH  23  26
ATOM     25  C   UNL     1       7.981   9.051  17.843  0.00  0.00    +0.000 C 
ATOM     26  O   UNL     1       8.246   7.696  18.202  0.00  0.00    +0.000 OA
ENDBRANCH  23  26
ENDBRANCH   1  23
BRANCH   3  27
ATOM     27  O   UNL     1       5.220   3.093  19.088  0.00  0.00    +0.000 OA
BRANCH  27  28
ATOM     28  C   UNL     1       4.618   2.052  19.711  0.00  0.00    +0.000 C 
ATOM     29  O   UNL     1       5.195   1.081  20.190  0.00  0.00    +0.000 OA
BRANCH  28  30
ATOM     30  C   UNL     1       3.136   2.251  19.760  0.00  0.00    +0.000 A 
ATOM     31  C   UNL     1       2.539   2.610  20.977  0.00  0.00    +0.000 A 
ATOM     32  C   UNL     1       1.166   2.898  21.049  0.00  0.00    +0.000 A 
ATOM     33  C   UNL     1       0.376   2.824  19.902  0.00  0.00    +0.000 A 
ATOM     34  C   UNL     1       0.948   2.436  18.693  0.00  0.00    +0.000 A 
ATOM     35  C   UNL     1       2.320   2.143  18.619  0.00  0.00    +0.000 A 
ENDBRANCH  28  30
ENDBRANCH  27  28
ENDBRANCH   3  27
TORSDOF 6
ENDMDL
MODEL 2
REMARK VINA RESULT:      -6.9      5.395     11.084
REMARK  Name = 
REMARK  9 active torsions:
REMARK  status: ('A' for Active; 'I' for Inactive)
REMARK    1  A    between atoms: C_1  and  O_2
REMARK    2  A    between atoms: O_2  and  C_3
REMARK    3  A    between atoms: C_3  and  C_5
REMARK    4  A    between atoms: C_7  and  O_8
REMARK    5  A    between atoms: O_8  and  C_9
REMARK    6  A    between atoms: C_9  and  C_11
REMARK    7  A    between atoms: C_19  and  C_20
REMARK    8  A    between atoms: C_27  and  C_28
REMARK    9  A    between atoms: C_34  and  C_35
REMARK                            x       y       z     vdW  Elec       q    Type
REMARK                         _______ _______ _______ _____ _____    ______ ____
ROOT
ATOM      1  C   UNL     1      -2.834  13.154  22.785  0.00  0.00    +0.000 C 
ATOM      2  C   UNL     1      -1.825  13.860  23.713  0.00  0.00    +0.000 C 
ATOM      3  C   UNL     1      -0.499  14.241  23.040  0.00  0.00    +0.000 C 
ATOM      4  C   UNL     1      -0.287  13.443  21.767  0.00  0.00    +0.000 C 
ATOM      5  C   UNL     1      -1.287  13.058  20.931  0.00  0.00    +0.000 C 
ATOM      6  C   UNL     1      -2.721  13.523  21.273  0.00  0.00    +0.000 C 
ATOM      7  C   UNL     1      -2.829  15.032  20.926  0.00  0.00    +0.000 C 
ATOM      8  C   UNL     1      -3.873  12.835  20.488  0.00  0.00    +0.000 C 
ATOM      9  C   UNL     1      -3.508  12.454  19.059  0.00  0.00    +0.000 C 
ATOM     10  C   UNL     1      -2.291  11.536  19.125  0.00  0.00    +0.000 C 
ATOM     11  C   UNL     1      -2.016  10.819  17.819  0.00  0.00    +0.000 C 
ATOM     12  O   UNL     1      -2.767  10.858  16.851  0.00  0.00    +0.000 OA
ATOM     13  O   UNL     1      -0.934  10.001  17.837  0.00  0.00    +0.000 OA
ATOM     14  C   UNL     1       0.264  10.388  18.544  0.00  0.00    +0.000 C 
ATOM     15  C   UNL     1      -0.022  11.113  19.860  0.00  0.00    +0.000 C 
ATOM     16  C   UNL     1      -1.033  12.265  19.638  0.00  0.00    +0.000 C 
ATOM     17  C   UNL     1      -0.512  13.297  18.608  0.00  0.00    +0.000 C 
ENDROOT
BRANCH  14  18
ATOM     18  C   UNL     1       1.170   9.213  18.743  0.00  0.00    +0.000 A 
ATOM     19  C   UNL     1       1.974   8.542  17.777  0.00  0.00    +0.000 A 
ATOM     20  C   UNL     1       2.652   7.554  18.450  0.00  0.00    +0.000 A 
ATOM     21  O   UNL     1       2.315   7.558  19.763  0.00  0.00    +0.000 OA
ATOM     22  C   UNL     1       1.421   8.563  19.937  0.00  0.00    +0.000 A 
ENDBRANCH  14  18
BRANCH   1  23
ATOM     23  C   UNL     1      -4.223  13.143  23.386  0.00  0.00    +0.000 C 
ATOM     24  O   UNL     1      -4.837  12.111  23.629  0.00  0.00    +0.000 OA
BRANCH  23  26
ATOM     25  C   UNL     1      -6.041  14.579  23.257  0.00  0.00    +0.000 C 
ATOM     26  O   UNL     1      -4.679  14.394  23.638  0.00  0.00    +0.000 OA
ENDBRANCH  23  26
ENDBRANCH   1  23
BRANCH   3  27
ATOM     27  O   UNL     1      -0.405  15.630  22.647  0.00  0.00    +0.000 OA
BRANCH  27  28
ATOM     28  C   UNL     1       0.800  16.222  22.467  0.00  0.00    +0.000 C 
ATOM     29  O   UNL     1       1.600  16.490  23.358  0.00  0.00    +0.000 OA
BRANCH  28  30
ATOM     30  C   UNL     1       1.044  16.492  21.016  0.00  0.00    +0.000 A 
ATOM     31  C   UNL     1       2.302  16.194  20.472  0.00  0.00    +0.000 A 
ATOM     32  C   UNL     1       2.546  16.343  19.096  0.00  0.00    +0.000 A 
ATOM     33  C   UNL     1       1.534  16.799  18.253  0.00  0.00    +0.000 A 
ATOM     34  C   UNL     1       0.290  17.132  18.784  0.00  0.00    +0.000 A 
ATOM     35  C   UNL     1       0.044  16.988  20.159  0.00  0.00    +0.000 A 
ENDBRANCH  28  30
ENDBRANCH  27  28
ENDBRANCH   3  27
TORSDOF 6
ENDMDL
MODEL 3
REMARK VINA RESULT:      -6.8      5.256     10.861
REMARK  Name = 
REMARK  9 active torsions:
REMARK  status: ('A' for Active; 'I' for Inactive)
REMARK    1  A    between atoms: C_1  and  O_2
REMARK    2  A    between atoms: O_2  and  C_3
REMARK    3  A    between atoms: C_3  and  C_5
REMARK    4  A    between atoms: C_7  and  O_8
REMARK    5  A    between atoms: O_8  and  C_9
REMARK    6  A    between atoms: C_9  and  C_11
REMARK    7  A    between atoms: C_19  and  C_20
REMARK    8  A    between atoms: C_27  and  C_28
REMARK    9  A    between atoms: C_34  and  C_35
REMARK                            x       y       z     vdW  Elec       q    Type
REMARK                         _______ _______ _______ _____ _____    ______ ____
ROOT
ATOM      1  C   UNL     1      -2.627  13.037  22.446  0.00  0.00    +0.000 C 
ATOM      2  C   UNL     1      -1.644  13.737  23.406  0.00  0.00    +0.000 C 
ATOM      3  C   UNL     1      -0.275  14.061  22.790  0.00  0.00    +0.000 C 
ATOM      4  C   UNL     1      -0.026  13.223  21.550  0.00  0.00    +0.000 C 
ATOM      5  C   UNL     1      -0.994  12.847  20.675  0.00  0.00    +0.000 C 
ATOM      6  C   UNL     1      -2.428  13.362  20.933  0.00  0.00    +0.000 C 
ATOM      7  C   UNL     1      -2.473  14.864  20.543  0.00  0.00    +0.000 C 
ATOM      8  C   UNL     1      -3.561  12.688  20.108  0.00  0.00    +0.000 C 
ATOM      9  C   UNL     1      -3.138  12.258  18.709  0.00  0.00    +0.000 C 
ATOM     10  C   UNL     1      -1.955  11.308  18.859  0.00  0.00    +0.000 C 
ATOM     11  C   UNL     1      -1.638  10.548  17.586  0.00  0.00    +0.000 C 
ATOM     12  O   UNL     1      -2.339  10.584  16.582  0.00  0.00    +0.000 OA
ATOM     13  O   UNL     1      -0.583   9.700  17.679  0.00  0.00    +0.000 OA
ATOM     14  C   UNL     1       0.589  10.070  18.435  0.00  0.00    +0.000 C 
ATOM     15  C   UNL     1       0.261  10.838  19.717  0.00  0.00    +0.000 C 
ATOM     16  C   UNL     1      -0.701  12.012  19.416  0.00  0.00    +0.000 C 
ATOM     17  C   UNL     1      -0.099  13.001  18.388  0.00  0.00    +0.000 C 
ENDROOT
BRANCH  14  18
ATOM     18  C   UNL     1       1.448   8.874  18.709  0.00  0.00    +0.000 A 
ATOM     19  C   UNL     1       2.295   8.168  17.807  0.00  0.00    +0.000 A 
ATOM     20  C   UNL     1       2.900   7.172  18.535  0.00  0.00    +0.000 A 
ATOM     21  O   UNL     1       2.478   7.205  19.824  0.00  0.00    +0.000 OA
ATOM     22  C   UNL     1       1.603   8.236  19.925  0.00  0.00    +0.000 A 
ENDBRANCH  14  18
BRANCH   1  23
ATOM     23  C   UNL     1      -4.044  13.082  22.977  0.00  0.00    +0.000 C 
ATOM     24  O   UNL     1      -4.820  13.997  22.731  0.00  0.00    +0.000 OA
BRANCH  23  26
ATOM     25  C   UNL     1      -4.837  12.319  25.020  0.00  0.00    +0.000 C 
ATOM     26  O   UNL     1      -4.343  11.990  23.723  0.00  0.00    +0.000 OA
ENDBRANCH  23  26
ENDBRANCH   1  23
BRANCH   3  27
ATOM     27  O   UNL     1      -0.119  15.436  22.368  0.00  0.00    +0.000 OA
BRANCH  27  28
ATOM     28  C   UNL     1       1.103  15.938  22.071  0.00  0.00    +0.000 C 
ATOM     29  O   UNL     1       2.045  16.023  22.852  0.00  0.00    +0.000 OA
BRANCH  28  30
ATOM     30  C   UNL     1       1.166  16.362  20.638  0.00  0.00    +0.000 A 
ATOM     31  C   UNL     1       0.376  17.441  20.213  0.00  0.00    +0.000 A 
ATOM     32  C   UNL     1       0.473  17.932  18.901  0.00  0.00    +0.000 A 
ATOM     33  C   UNL     1       1.357  17.344  17.998  0.00  0.00    +0.000 A 
ATOM     34  C   UNL     1       2.124  16.250  18.394  0.00  0.00    +0.000 A 
ATOM     35  C   UNL     1       2.026  15.753  19.705  0.00  0.00    +0.000 A 
ENDBRANCH  28  30
ENDBRANCH  27  28
ENDBRANCH   3  27
TORSDOF 6
ENDMDL
MODEL 4
REMARK VINA RESULT:      -6.7      5.374     11.082
REMARK  Name = 
REMARK  9 active torsions:
REMARK  status: ('A' for Active; 'I' for Inactive)
REMARK    1  A    between atoms: C_1  and  O_2
REMARK    2  A    between atoms: O_2  and  C_3
REMARK    3  A    between atoms: C_3  and  C_5
REMARK    4  A    between atoms: C_7  and  O_8
REMARK    5  A    between atoms: O_8  and  C_9
REMARK    6  A    between atoms: C_9  and  C_11
REMARK    7  A    between atoms: C_19  and  C_20
REMARK    8  A    between atoms: C_27  and  C_28
REMARK    9  A    between atoms: C_34  and  C_35
REMARK                            x       y       z     vdW  Elec       q    Type
REMARK                         _______ _______ _______ _____ _____    ______ ____
ROOT
ATOM      1  C   UNL     1      -2.828  13.103  22.855  0.00  0.00    +0.000 C 
ATOM      2  C   UNL     1      -1.825  13.814  23.785  0.00  0.00    +0.000 C 
ATOM      3  C   UNL     1      -0.503  14.212  23.111  0.00  0.00    +0.000 C 
ATOM      4  C   UNL     1      -0.287  13.422  21.833  0.00  0.00    +0.000 C 
ATOM      5  C   UNL     1      -1.284  13.033  20.997  0.00  0.00    +0.000 C 
ATOM      6  C   UNL     1      -2.722  13.481  21.345  0.00  0.00    +0.000 C 
ATOM      7  C   UNL     1      -2.845  14.991  21.006  0.00  0.00    +0.000 C 
ATOM      8  C   UNL     1      -3.869  12.786  20.557  0.00  0.00    +0.000 C 
ATOM      9  C   UNL     1      -3.503  12.416  19.126  0.00  0.00    +0.000 C 
ATOM     10  C   UNL     1      -2.277  11.511  19.184  0.00  0.00    +0.000 C 
ATOM     11  C   UNL     1      -1.998  10.803  17.873  0.00  0.00    +0.000 C 
ATOM     12  O   UNL     1      -2.751  10.840  16.908  0.00  0.00    +0.000 OA
ATOM     13  O   UNL     1      -0.907   9.996  17.885  0.00  0.00    +0.000 OA
ATOM     14  C   UNL     1       0.288  10.391  18.592  0.00  0.00    +0.000 C 
ATOM     15  C   UNL     1      -0.002  11.106  19.913  0.00  0.00    +0.000 C 
ATOM     16  C   UNL     1      -1.025  12.249  19.699  0.00  0.00    +0.000 C 
ATOM     17  C   UNL     1      -0.517  13.292  18.673  0.00  0.00    +0.000 C 
ENDROOT
BRANCH  14  18
ATOM     18  C   UNL     1       1.206   9.224  18.782  0.00  0.00    +0.000 A 
ATOM     19  C   UNL     1       1.409   8.440  19.954  0.00  0.00    +0.000 A 
ATOM     20  C   UNL     1       2.318   7.466  19.621  0.00  0.00    +0.000 A 
ATOM     21  O   UNL     1       2.702   7.597  18.327  0.00  0.00    +0.000 OA
ATOM     22  C   UNL     1       2.025   8.659  17.823  0.00  0.00    +0.000 A 
ENDBRANCH  14  18
BRANCH   1  23
ATOM     23  C   UNL     1      -4.216  13.074  23.459  0.00  0.00    +0.000 C 
ATOM     24  O   UNL     1      -4.759  12.043  23.836  0.00  0.00    +0.000 OA
BRANCH  23  26
ATOM     25  C   UNL     1      -6.147  14.340  23.225  0.00  0.00    +0.000 C 
ATOM     26  O   UNL     1      -4.758  14.313  23.548  0.00  0.00    +0.000 OA
ENDBRANCH  23  26
ENDBRANCH   1  23
BRANCH   3  27
ATOM     27  O   UNL     1      -0.424  15.604  22.725  0.00  0.00    +0.000 OA
BRANCH  27  28
ATOM     28  C   UNL     1       0.769  16.182  22.450  0.00  0.00    +0.000 C 
ATOM     29  O   UNL     1       1.616  16.494  23.281  0.00  0.00    +0.000 OA
BRANCH  28  30
ATOM     30  C   UNL     1       0.935  16.375  20.976  0.00  0.00    +0.000 A 
ATOM     31  C   UNL     1      -0.031  17.113  20.275  0.00  0.00    +0.000 A 
ATOM     32  C   UNL     1       0.133  17.399  18.909  0.00  0.00    +0.000 A 
ATOM     33  C   UNL     1       1.261  16.942  18.230  0.00  0.00    +0.000 A 
ATOM     34  C   UNL     1       2.212  16.179  18.904  0.00  0.00    +0.000 A 
ATOM     35  C   UNL     1       2.050  15.888  20.269  0.00  0.00    +0.000 A 
ENDBRANCH  28  30
ENDBRANCH  27  28
ENDBRANCH   3  27
TORSDOF 6
ENDMDL
MODEL 5
REMARK VINA RESULT:      -6.6      4.628      7.686
REMARK  Name = 
REMARK  9 active torsions:
REMARK  status: ('A' for Active; 'I' for Inactive)
REMARK    1  A    between atoms: C_1  and  O_2
REMARK    2  A    between atoms: O_2  and  C_3
REMARK    3  A    between atoms: C_3  and  C_5
REMARK    4  A    between atoms: C_7  and  O_8
REMARK    5  A    between atoms: O_8  and  C_9
REMARK    6  A    between atoms: C_9  and  C_11
REMARK    7  A    between atoms: C_19  and  C_20
REMARK    8  A    between atoms: C_27  and  C_28
REMARK    9  A    between atoms: C_34  and  C_35
REMARK                            x       y       z     vdW  Elec       q    Type
REMARK                         _______ _______ _______ _____ _____    ______ ____
ROOT
ATOM      1  C   UNL     1      -1.204  10.073  17.698  0.00  0.00    +0.000 C 
ATOM      2  C   UNL     1      -0.127   9.115  17.150  0.00  0.00    +0.000 C 
ATOM      3  C   UNL     1       1.283   9.355  17.707  0.00  0.00    +0.000 C 
ATOM      4  C   UNL     1       1.401  10.746  18.303  0.00  0.00    +0.000 C 
ATOM      5  C   UNL     1       0.392  11.390  18.946  0.00  0.00    +0.000 C 
ATOM      6  C   UNL     1      -0.937  10.624  19.133  0.00  0.00    +0.000 C 
ATOM      7  C   UNL     1      -0.724   9.564  20.247  0.00  0.00    +0.000 C 
ATOM      8  C   UNL     1      -2.159  11.468  19.595  0.00  0.00    +0.000 C 
ATOM      9  C   UNL     1      -1.799  12.624  20.520  0.00  0.00    +0.000 C 
ATOM     10  C   UNL     1      -0.794  13.505  19.786  0.00  0.00    +0.000 C 
ATOM     11  C   UNL     1      -0.596  14.856  20.443  0.00  0.00    +0.000 C 
ATOM     12  O   UNL     1      -1.271  15.259  21.383  0.00  0.00    +0.000 OA
ATOM     13  O   UNL     1       0.300  15.664  19.822  0.00  0.00    +0.000 OA
ATOM     14  C   UNL     1       1.510  15.116  19.257  0.00  0.00    +0.000 C 
ATOM     15  C   UNL     1       1.302  13.752  18.597  0.00  0.00    +0.000 C 
ATOM     16  C   UNL     1       0.554  12.793  19.555  0.00  0.00    +0.000 C 
ATOM     17  C   UNL     1       1.325  12.588  20.882  0.00  0.00    +0.000 C 
ENDROOT
BRANCH  14  18
ATOM     18  C   UNL     1       2.152  16.094  18.321  0.00  0.00    +0.000 A 
ATOM     19  C   UNL     1       3.329  15.925  17.537  0.00  0.00    +0.000 A 
ATOM     20  C   UNL     1       3.490  17.084  16.818  0.00  0.00    +0.000 A 
ATOM     21  O   UNL     1       2.501  17.965  17.111  0.00  0.00    +0.000 OA
ATOM     22  C   UNL     1       1.693  17.362  18.017  0.00  0.00    +0.000 A 
ENDBRANCH  14  18
BRANCH   1  23
ATOM     23  C   UNL     1      -2.598   9.560  17.408  0.00  0.00    +0.000 C 
ATOM     24  O   UNL     1      -3.367   9.183  18.284  0.00  0.00    +0.000 OA
BRANCH  23  26
ATOM     25  C   UNL     1      -3.070  10.918  15.587  0.00  0.00    +0.000 C 
ATOM     26  O   UNL     1      -2.888   9.594  16.084  0.00  0.00    +0.000 OA
ENDBRANCH  23  26
ENDBRANCH   1  23
BRANCH   3  27
ATOM     27  O   UNL     1       1.673   8.446  18.763  0.00  0.00    +0.000 OA
BRANCH  27  28
ATOM     28  C   UNL     1       2.592   7.476  18.541  0.00  0.00    +0.000 C 
ATOM     29  O   UNL     1       3.705   7.651  18.057  0.00  0.00    +0.000 OA
BRANCH  28  30
ATOM     30  C   UNL     1       2.075   6.146  18.990  0.00  0.00    +0.000 A 
ATOM     31  C   UNL     1       1.877   5.137  18.037  0.00  0.00    +0.000 A 
ATOM     32  C   UNL     1       1.483   3.846  18.425  0.00  0.00    +0.000 A 
ATOM     33  C   UNL     1       1.277   3.554  19.773  0.00  0.00    +0.000 A 
ATOM     34  C   UNL     1       1.437   4.554  20.729  0.00  0.00    +0.000 A 
ATOM     35  C   UNL     1       1.826   5.848  20.343  0.00  0.00    +0.000 A 
ENDBRANCH  28  30
ENDBRANCH  27  28
ENDBRANCH   3  27
TORSDOF 6
ENDMDL
MODEL 6
REMARK VINA RESULT:      -6.5      4.440      7.448
REMARK  Name = 
REMARK  9 active torsions:
REMARK  status: ('A' for Active; 'I' for Inactive)
REMARK    1  A    between atoms: C_1  and  O_2
REMARK    2  A    between atoms: O_2  and  C_3
REMARK    3  A    between atoms: C_3  and  C_5
REMARK    4  A    between atoms: C_7  and  O_8
REMARK    5  A    between atoms: O_8  and  C_9
REMARK    6  A    between atoms: C_9  and  C_11
REMARK    7  A    between atoms: C_19  and  C_20
REMARK    8  A    between atoms: C_27  and  C_28
REMARK    9  A    between atoms: C_34  and  C_35
REMARK                            x       y       z     vdW  Elec       q    Type
REMARK                         _______ _______ _______ _____ _____    ______ ____
ROOT
ATOM      1  C   UNL     1      -0.935  10.460  17.967  0.00  0.00    +0.000 C 
ATOM      2  C   UNL     1      -0.031   9.439  17.248  0.00  0.00    +0.000 C 
ATOM      3  C   UNL     1       1.396   9.347  17.806  0.00  0.00    +0.000 C 
ATOM      4  C   UNL     1       1.742  10.582  18.616  0.00  0.00    +0.000 C 
ATOM      5  C   UNL     1       0.852  11.272  19.377  0.00  0.00    +0.000 C 
ATOM      6  C   UNL     1      -0.588  10.718  19.467  0.00  0.00    +0.000 C 
ATOM      7  C   UNL     1      -0.563   9.470  20.389  0.00  0.00    +0.000 C 
ATOM      8  C   UNL     1      -1.653  11.668  20.086  0.00  0.00    +0.000 C 
ATOM      9  C   UNL     1      -1.110  12.581  21.177  0.00  0.00    +0.000 C 
ATOM     10  C   UNL     1       0.033  13.390  20.573  0.00  0.00    +0.000 C 
ATOM     11  C   UNL     1       0.451  14.564  21.436  0.00  0.00    +0.000 C 
ATOM     12  O   UNL     1      -0.151  14.915  22.443  0.00  0.00    +0.000 OA
ATOM     13  O   UNL     1       1.474  15.301  20.934  0.00  0.00    +0.000 OA
ATOM     14  C   UNL     1       2.578  14.659  20.262  0.00  0.00    +0.000 C 
ATOM     15  C   UNL     1       2.148  13.474  19.395  0.00  0.00    +0.000 C 
ATOM     16  C   UNL     1       1.244  12.510  20.201  0.00  0.00    +0.000 C 
ATOM     17  C   UNL     1       1.961  11.966  21.461  0.00  0.00    +0.000 C 
ENDROOT
BRANCH  14  18
ATOM     18  C   UNL     1       3.381  15.655  19.483  0.00  0.00    +0.000 A 
ATOM     19  C   UNL     1       4.774  15.935  19.577  0.00  0.00    +0.000 A 
ATOM     20  C   UNL     1       5.045  16.897  18.634  0.00  0.00    +0.000 A 
ATOM     21  O   UNL     1       3.914  17.241  17.970  0.00  0.00    +0.000 OA
ATOM     22  C   UNL     1       2.911  16.486  18.484  0.00  0.00    +0.000 A 
ENDBRANCH  14  18
BRANCH   1  23
ATOM     23  C   UNL     1      -2.394  10.241  17.629  0.00  0.00    +0.000 C 
ATOM     24  O   UNL     1      -3.039   9.285  18.040  0.00  0.00    +0.000 OA
BRANCH  23  26
ATOM     25  C   UNL     1      -3.032  10.850  15.482  0.00  0.00    +0.000 C 
ATOM     26  O   UNL     1      -2.890  11.233  16.848  0.00  0.00    +0.000 OA
ENDBRANCH  23  26
ENDBRANCH   1  23
BRANCH   3  27
ATOM     27  O   UNL     1       1.621   8.226  18.693  0.00  0.00    +0.000 OA
BRANCH  27  28
ATOM     28  C   UNL     1       2.571   7.301  18.416  0.00  0.00    +0.000 C 
ATOM     29  O   UNL     1       3.655   7.532  17.892  0.00  0.00    +0.000 OA
BRANCH  28  30
ATOM     30  C   UNL     1       2.130   5.942  18.860  0.00  0.00    +0.000 A 
ATOM     31  C   UNL     1       1.883   5.719  20.222  0.00  0.00    +0.000 A 
ATOM     32  C   UNL     1       1.378   4.487  20.671  0.00  0.00    +0.000 A 
ATOM     33  C   UNL     1       1.122   3.464  19.759  0.00  0.00    +0.000 A 
ATOM     34  C   UNL     1       1.394   3.658  18.407  0.00  0.00    +0.000 A 
ATOM     35  C   UNL     1       1.904   4.887  17.956  0.00  0.00    +0.000 A 
ENDBRANCH  28  30
ENDBRANCH  27  28
ENDBRANCH   3  27
TORSDOF 6
ENDMDL
MODEL 7
REMARK VINA RESULT:      -6.4      6.797     10.790
REMARK  Name = 
REMARK  9 active torsions:
REMARK  status: ('A' for Active; 'I' for Inactive)
REMARK    1  A    between atoms: C_1  and  O_2
REMARK    2  A    between atoms: O_2  and  C_3
REMARK    3  A    between atoms: C_3  and  C_5
REMARK    4  A    between atoms: C_7  and  O_8
REMARK    5  A    between atoms: O_8  and  C_9
REMARK    6  A    between atoms: C_9  and  C_11
REMARK    7  A    between atoms: C_19  and  C_20
REMARK    8  A    between atoms: C_27  and  C_28
REMARK    9  A    between atoms: C_34  and  C_35
REMARK                            x       y       z     vdW  Elec       q    Type
REMARK                         _______ _______ _______ _____ _____    ______ ____
ROOT
ATOM      1  C   UNL     1       2.401  15.178  18.836  0.00  0.00    +0.000 C 
ATOM      2  C   UNL     1       1.880  16.560  18.393  0.00  0.00    +0.000 C 
ATOM      3  C   UNL     1       0.369  16.761  18.584  0.00  0.00    +0.000 C 
ATOM      4  C   UNL     1      -0.342  15.429  18.724  0.00  0.00    +0.000 C 
ATOM      5  C   UNL     1       0.191  14.337  19.333  0.00  0.00    +0.000 C 
ATOM      6  C   UNL     1       1.588  14.492  19.977  0.00  0.00    +0.000 C 
ATOM      7  C   UNL     1       1.421  15.307  21.287  0.00  0.00    +0.000 C 
ATOM      8  C   UNL     1       2.301  13.175  20.398  0.00  0.00    +0.000 C 
ATOM      9  C   UNL     1       1.353  12.080  20.869  0.00  0.00    +0.000 C 
ATOM     10  C   UNL     1       0.365  11.809  19.739  0.00  0.00    +0.000 C 
ATOM     11  C   UNL     1      -0.423  10.529  19.932  0.00  0.00    +0.000 C 
ATOM     12  O   UNL     1      -0.200   9.722  20.827  0.00  0.00    +0.000 OA
ATOM     13  O   UNL     1      -1.320  10.261  18.950  0.00  0.00    +0.000 OA
ATOM     14  C   UNL     1      -2.088  11.325  18.349  0.00  0.00    +0.000 C 
ATOM     15  C   UNL     1      -1.285  12.614  18.159  0.00  0.00    +0.000 C 
ATOM     16  C   UNL     1      -0.568  13.007  19.473  0.00  0.00    +0.000 C 
ATOM     17  C   UNL     1      -1.570  13.216  20.635  0.00  0.00    +0.000 C 
ENDROOT
BRANCH  14  18
ATOM     18  C   UNL     1      -2.721  10.871  17.070  0.00  0.00    +0.000 A 
ATOM     19  C   UNL     1      -2.247   9.896  16.146  0.00  0.00    +0.000 A 
ATOM     20  C   UNL     1      -3.193   9.805  15.154  0.00  0.00    +0.000 A 
ATOM     21  O   UNL     1      -4.214  10.664  15.392  0.00  0.00    +0.000 OA
ATOM     22  C   UNL     1      -3.927  11.304  16.552  0.00  0.00    +0.000 A 
ENDBRANCH  14  18
BRANCH   1  23
ATOM     23  C   UNL     1       3.909  15.174  18.971  0.00  0.00    +0.000 C 
ATOM     24  O   UNL     1       4.502  15.788  19.850  0.00  0.00    +0.000 OA
BRANCH  23  26
ATOM     25  C   UNL     1       5.894  14.677  17.876  0.00  0.00    +0.000 C 
ATOM     26  O   UNL     1       4.503  14.401  18.029  0.00  0.00    +0.000 OA
ENDBRANCH  23  26
ENDBRANCH   1  23
BRANCH   3  27
ATOM     27  O   UNL     1       0.012  17.518  19.764  0.00  0.00    +0.000 OA
BRANCH  27  28
ATOM     28  C   UNL     1      -1.269  17.902  19.982  0.00  0.00    +0.000 C 
ATOM     29  O   UNL     1      -1.927  18.631  19.247  0.00  0.00    +0.000 OA
BRANCH  28  30
ATOM     30  C   UNL     1      -1.794  17.296  21.245  0.00  0.00    +0.000 A 
ATOM     31  C   UNL     1      -1.161  17.600  22.459  0.00  0.00    +0.000 A 
ATOM     32  C   UNL     1      -1.676  17.129  23.678  0.00  0.00    +0.000 A 
ATOM     33  C   UNL     1      -2.828  16.343  23.692  0.00  0.00    +0.000 A 
ATOM     34  C   UNL     1      -3.448  16.004  22.493  0.00  0.00    +0.000 A 
ATOM     35  C   UNL     1      -2.933  16.469  21.271  0.00  0.00    +0.000 A 
ENDBRANCH  28  30
ENDBRANCH  27  28
ENDBRANCH   3  27
TORSDOF 6
ENDMDL
MODEL 8
REMARK VINA RESULT:      -6.4      5.093     10.640
REMARK  Name = 
REMARK  9 active torsions:
REMARK  status: ('A' for Active; 'I' for Inactive)
REMARK    1  A    between atoms: C_1  and  O_2
REMARK    2  A    between atoms: O_2  and  C_3
REMARK    3  A    between atoms: C_3  and  C_5
REMARK    4  A    between atoms: C_7  and  O_8
REMARK    5  A    between atoms: O_8  and  C_9
REMARK    6  A    between atoms: C_9  and  C_11
REMARK    7  A    between atoms: C_19  and  C_20
REMARK    8  A    between atoms: C_27  and  C_28
REMARK    9  A    between atoms: C_34  and  C_35
REMARK                            x       y       z     vdW  Elec       q    Type
REMARK                         _______ _______ _______ _____ _____    ______ ____
ROOT
ATOM      1  C   UNL     1      -2.212  13.097  22.441  0.00  0.00    +0.000 C 
ATOM      2  C   UNL     1      -1.163  13.855  23.279  0.00  0.00    +0.000 C 
ATOM      3  C   UNL     1       0.143  14.168  22.533  0.00  0.00    +0.000 C 
ATOM      4  C   UNL     1       0.299  13.276  21.316  0.00  0.00    +0.000 C 
ATOM      5  C   UNL     1      -0.735  12.846  20.546  0.00  0.00    +0.000 C 
ATOM      6  C   UNL     1      -2.150  13.354  20.904  0.00  0.00    +0.000 C 
ATOM      7  C   UNL     1      -2.253  14.834  20.450  0.00  0.00    +0.000 C 
ATOM      8  C   UNL     1      -3.338  12.626  20.211  0.00  0.00    +0.000 C 
ATOM      9  C   UNL     1      -3.029  12.137  18.803  0.00  0.00    +0.000 C 
ATOM     10  C   UNL     1      -1.820  11.210  18.892  0.00  0.00    +0.000 C 
ATOM     11  C   UNL     1      -1.601  10.396  17.633  0.00  0.00    +0.000 C 
ATOM     12  O   UNL     1      -2.386  10.374  16.693  0.00  0.00    +0.000 OA
ATOM     13  O   UNL     1      -0.528   9.567  17.674  0.00  0.00    +0.000 OA
ATOM     14  C   UNL     1       0.699   9.987  18.307  0.00  0.00    +0.000 C 
ATOM     15  C   UNL     1       0.469  10.811  19.576  0.00  0.00    +0.000 C 
ATOM     16  C   UNL     1      -0.536  11.957  19.306  0.00  0.00    +0.000 C 
ATOM     17  C   UNL     1      -0.042  12.904  18.185  0.00  0.00    +0.000 C 
ENDROOT
BRANCH  14  18
ATOM     18  C   UNL     1       1.598   8.817  18.560  0.00  0.00    +0.000 A 
ATOM     19  C   UNL     1       2.505   8.188  17.659  0.00  0.00    +0.000 A 
ATOM     20  C   UNL     1       3.127   7.187  18.365  0.00  0.00    +0.000 A 
ATOM     21  O   UNL     1       2.661   7.144  19.638  0.00  0.00    +0.000 OA
ATOM     22  C   UNL     1       1.739   8.132  19.752  0.00  0.00    +0.000 A 
ENDBRANCH  14  18
BRANCH   1  23
ATOM     23  C   UNL     1      -3.578  13.149  23.090  0.00  0.00    +0.000 C 
ATOM     24  O   UNL     1      -4.114  12.171  23.598  0.00  0.00    +0.000 OA
BRANCH  23  26
ATOM     25  C   UNL     1      -4.803  14.736  24.259  0.00  0.00    +0.000 C 
ATOM     26  O   UNL     1      -4.110  14.395  23.060  0.00  0.00    +0.000 OA
ENDBRANCH  23  26
ENDBRANCH   1  23
BRANCH   3  27
ATOM     27  O   UNL     1       0.238  15.523  22.036  0.00  0.00    +0.000 OA
BRANCH  27  28
ATOM     28  C   UNL     1       1.439  16.140  21.922  0.00  0.00    +0.000 C 
ATOM     29  O   UNL     1       2.021  16.732  22.825  0.00  0.00    +0.000 OA
BRANCH  28  30
ATOM     30  C   UNL     1       1.983  15.984  20.538  0.00  0.00    +0.000 A 
ATOM     31  C   UNL     1       1.305  16.589  19.470  0.00  0.00    +0.000 A 
ATOM     32  C   UNL     1       1.830  16.548  18.167  0.00  0.00    +0.000 A 
ATOM     33  C   UNL     1       3.037  15.895  17.921  0.00  0.00    +0.000 A 
ATOM     34  C   UNL     1       3.705  15.260  18.966  0.00  0.00    +0.000 A 
ATOM     35  C   UNL     1       3.180  15.295  20.268  0.00  0.00    +0.000 A 
ENDBRANCH  28  30
ENDBRANCH  27  28
ENDBRANCH   3  27
TORSDOF 6
ENDMDL
MODEL 9
REMARK VINA RESULT:      -6.3      5.743     11.325
REMARK  Name = 
REMARK  9 active torsions:
REMARK  status: ('A' for Active; 'I' for Inactive)
REMARK    1  A    between atoms: C_1  and  O_2
REMARK    2  A    between atoms: O_2  and  C_3
REMARK    3  A    between atoms: C_3  and  C_5
REMARK    4  A    between atoms: C_7  and  O_8
REMARK    5  A    between atoms: O_8  and  C_9
REMARK    6  A    between atoms: C_9  and  C_11
REMARK    7  A    between atoms: C_19  and  C_20
REMARK    8  A    between atoms: C_27  and  C_28
REMARK    9  A    between atoms: C_34  and  C_35
REMARK                            x       y       z     vdW  Elec       q    Type
REMARK                         _______ _______ _______ _____ _____    ______ ____
ROOT
ATOM      1  C   UNL     1      -2.153  13.828  22.955  0.00  0.00    +0.000 C 
ATOM      2  C   UNL     1      -1.011  14.663  23.568  0.00  0.00    +0.000 C 
ATOM      3  C   UNL     1       0.148  14.961  22.605  0.00  0.00    +0.000 C 
ATOM      4  C   UNL     1       0.140  14.000  21.432  0.00  0.00    +0.000 C 
ATOM      5  C   UNL     1      -0.987  13.497  20.864  0.00  0.00    +0.000 C 
ATOM      6  C   UNL     1      -2.344  13.990  21.415  0.00  0.00    +0.000 C 
ATOM      7  C   UNL     1      -2.570  15.436  20.900  0.00  0.00    +0.000 C 
ATOM      8  C   UNL     1      -3.601  13.191  20.965  0.00  0.00    +0.000 C 
ATOM      9  C   UNL     1      -3.503  12.623  19.556  0.00  0.00    +0.000 C 
ATOM     10  C   UNL     1      -2.264  11.735  19.503  0.00  0.00    +0.000 C 
ATOM     11  C   UNL     1      -2.220  10.849  18.274  0.00  0.00    +0.000 C 
ATOM     12  O   UNL     1      -3.143  10.750  17.475  0.00  0.00    +0.000 OA
ATOM     13  O   UNL     1      -1.125  10.052  18.189  0.00  0.00    +0.000 OA
ATOM     14  C   UNL     1       0.171  10.542  18.592  0.00  0.00    +0.000 C 
ATOM     15  C   UNL     1       0.117  11.436  19.832  0.00  0.00    +0.000 C 
ATOM     16  C   UNL     1      -0.958  12.538  19.662  0.00  0.00    +0.000 C 
ATOM     17  C   UNL     1      -0.681  13.425  18.423  0.00  0.00    +0.000 C 
ENDROOT
BRANCH  14  18
ATOM     18  C   UNL     1       1.139   9.413  18.763  0.00  0.00    +0.000 A 
ATOM     19  C   UNL     1       1.342   8.587  19.906  0.00  0.00    +0.000 A 
ATOM     20  C   UNL     1       2.309   7.674  19.562  0.00  0.00    +0.000 A 
ATOM     21  O   UNL     1       2.729   7.883  18.289  0.00  0.00    +0.000 OA
ATOM     22  C   UNL     1       2.017   8.933  17.809  0.00  0.00    +0.000 A 
ENDBRANCH  14  18
BRANCH   1  23
ATOM     23  C   UNL     1      -3.400  13.885  23.811  0.00  0.00    +0.000 C 
ATOM     24  O   UNL     1      -4.069  14.902  23.949  0.00  0.00    +0.000 OA
BRANCH  23  26
ATOM     25  C   UNL     1      -5.074  12.523  24.665  0.00  0.00    +0.000 C 
ATOM     26  O   UNL     1      -3.687  12.685  24.373  0.00  0.00    +0.000 OA
ENDBRANCH  23  26
ENDBRANCH   1  23
BRANCH   3  27
ATOM     27  O   UNL     1       0.115  16.285  22.023  0.00  0.00    +0.000 OA
BRANCH  27  28
ATOM     28  C   UNL     1       1.233  16.842  21.498  0.00  0.00    +0.000 C 
ATOM     29  O   UNL     1       2.281  17.038  22.105  0.00  0.00    +0.000 OA
BRANCH  28  30
ATOM     30  C   UNL     1       1.030  17.172  20.053  0.00  0.00    +0.000 A 
ATOM     31  C   UNL     1      -0.149  17.825  19.665  0.00  0.00    +0.000 A 
ATOM     32  C   UNL     1      -0.340  18.237  18.336  0.00  0.00    +0.000 A 
ATOM     33  C   UNL     1       0.647  17.994  17.381  0.00  0.00    +0.000 A 
ATOM     34  C   UNL     1       1.808  17.317  17.743  0.00  0.00    +0.000 A 
ATOM     35  C   UNL     1       2.000  16.899  19.071  0.00  0.00    +0.000 A 
ENDBRANCH  28  30
ENDBRANCH  27  28
ENDBRANCH   3  27
TORSDOF 6
ENDMDL
