MODEL 1
REMARK VINA RESULT:      -7.8      0.000      0.000
REMARK  Name = 
REMARK  9 active torsions:
REMARK  status: ('A' for Active; 'I' for Inactive)
REMARK    1  A    between atoms: C_1  and  N_2
REMARK    2  A    between atoms: N_2  and  C_3
REMARK    3  A    between atoms: N_2  and  C_4
REMARK    4  A    between atoms: C_4  and  C_5
REMARK    5  A    between atoms: C_5  and  N_6
REMARK    6  A    between atoms: N_6  and  C_7
REMARK    7  A    between atoms: C_7  and  C_8
REMARK    8  A    between atoms: C_11  and  C_12
REMARK    9  A    between atoms: C_15  and  C_16
REMARK                            x       y       z     vdW  Elec       q    Type
REMARK                         _______ _______ _______ _____ _____    ______ ____
ROOT
ATOM      1  C   UNL     1       0.644   9.605  20.156  0.00  0.00    +0.000 A 
ATOM      2  C   UNL     1       0.873   9.812  18.782  0.00  0.00    +0.000 A 
ATOM      3  C   UNL     1       1.660   8.924  18.023  0.00  0.00    +0.000 A 
ATOM      4  C   UNL     1       2.252   7.814  18.632  0.00  0.00    +0.000 A 
ATOM      5  C   UNL     1       2.003   7.585  19.985  0.00  0.00    +0.000 A 
ATOM      6  C   UNL     1       1.203   8.450  20.725  0.00  0.00    +0.000 A 
ENDROOT
BRANCH   4   7
ATOM      7  C   UNL     1       3.190   6.913  17.971  0.00  0.00    +0.000 A 
ATOM      8  N   UNL     1       4.302   7.323  17.389  0.00  0.00    +0.000 NA
ATOM      9  C   UNL     1       4.893   6.211  16.868  0.00  0.00    +0.000 A 
ATOM     10  C   UNL     1       6.077   6.114  16.131  0.00  0.00    +0.000 A 
ATOM     11  C   UNL     1       6.459   4.852  15.691  0.00  0.00    +0.000 A 
ATOM     12  F   UNL     1       7.580   4.726  14.972  0.00  0.00    +0.000 F 
ATOM     13  C   UNL     1       5.704   3.711  15.980  0.00  0.00    +0.000 A 
ATOM     14  C   UNL     1       4.524   3.794  16.730  0.00  0.00    +0.000 A 
ATOM     15  C   UNL     1       4.148   5.071  17.153  0.00  0.00    +0.000 A 
ATOM     16  N   UNL     1       3.081   5.545  17.881  0.00  0.00    +0.000 N 
ATOM     17  H   UNL     1       2.350   4.986  18.295  0.00  0.00    +0.000 HD
ENDBRANCH   4   7
BRANCH   1  21
ATOM     18  C   UNL     1      -1.518  12.447  22.598  0.00  0.00    +0.000 A 
ATOM     19  C   UNL     1      -1.164  11.194  23.117  0.00  0.00    +0.000 A 
ATOM     20  C   UNL     1      -0.464  10.265  22.335  0.00  0.00    +0.000 A 
ATOM     21  C   UNL     1      -0.114  10.551  21.007  0.00  0.00    +0.000 A 
ATOM     22  C   UNL     1      -0.509  11.805  20.497  0.00  0.00    +0.000 A 
ATOM     23  C   UNL     1      -1.179  12.744  21.279  0.00  0.00    +0.000 A 
BRANCH  18  24
ATOM     24  C   UNL     1      -2.318  13.437  23.402  0.00  0.00    +0.000 C 
BRANCH  24  25
ATOM     25  N   UNL     1      -3.499  13.915  22.684  0.00  0.00    +0.000 NA
ATOM     26  H   UNL     1      -3.832  14.753  23.167  0.00  0.00    +0.000 HD
BRANCH  25  27
ATOM     27  C   UNL     1      -4.589  12.930  22.755  0.00  0.00    +0.000 C 
BRANCH  27  28
ATOM     28  C   UNL     1      -5.256  12.628  21.389  0.00  0.00    +0.000 C 
BRANCH  28  30
ATOM     29  C   UNL     1      -7.515  12.478  22.263  0.00  0.00    +0.000 C 
ATOM     30  N   UNL     1      -6.472  11.791  21.496  0.00  0.00    +0.000 NA
ATOM     31  C   UNL     1      -6.971  11.472  20.155  0.00  0.00    +0.000 C 
ENDBRANCH  28  30
ENDBRANCH  27  28
ENDBRANCH  25  27
ENDBRANCH  24  25
ENDBRANCH  18  24
ENDBRANCH   1  21
TORSDOF 7
ENDMDL
MODEL 2
REMARK VINA RESULT:      -7.8      0.901      1.361
REMARK  Name = 
REMARK  9 active torsions:
REMARK  status: ('A' for Active; 'I' for Inactive)
REMARK    1  A    between atoms: C_1  and  N_2
REMARK    2  A    between atoms: N_2  and  C_3
REMARK    3  A    between atoms: N_2  and  C_4
REMARK    4  A    between atoms: C_4  and  C_5
REMARK    5  A    between atoms: C_5  and  N_6
REMARK    6  A    between atoms: N_6  and  C_7
REMARK    7  A    between atoms: C_7  and  C_8
REMARK    8  A    between atoms: C_11  and  C_12
REMARK    9  A    between atoms: C_15  and  C_16
REMARK                            x       y       z     vdW  Elec       q    Type
REMARK                         _______ _______ _______ _____ _____    ______ ____
ROOT
ATOM      1  C   UNL     1       0.609   9.381  20.056  0.00  0.00    +0.000 A 
ATOM      2  C   UNL     1       0.869   9.631  18.695  0.00  0.00    +0.000 A 
ATOM      3  C   UNL     1       1.700   8.784  17.935  0.00  0.00    +0.000 A 
ATOM      4  C   UNL     1       2.305   7.675  18.532  0.00  0.00    +0.000 A 
ATOM      5  C   UNL     1       2.027   7.404  19.871  0.00  0.00    +0.000 A 
ATOM      6  C   UNL     1       1.184   8.228  20.611  0.00  0.00    +0.000 A 
ENDROOT
BRANCH   4   7
ATOM      7  C   UNL     1       3.285   6.817  17.874  0.00  0.00    +0.000 A 
ATOM      8  N   UNL     1       4.332   7.282  17.217  0.00  0.00    +0.000 NA
ATOM      9  C   UNL     1       4.990   6.194  16.727  0.00  0.00    +0.000 A 
ATOM     10  C   UNL     1       6.143   6.151  15.938  0.00  0.00    +0.000 A 
ATOM     11  C   UNL     1       6.609   4.902  15.548  0.00  0.00    +0.000 A 
ATOM     12  F   UNL     1       7.704   4.826  14.782  0.00  0.00    +0.000 F 
ATOM     13  C   UNL     1       5.968   3.721  15.934  0.00  0.00    +0.000 A 
ATOM     14  C   UNL     1       4.819   3.751  16.736  0.00  0.00    +0.000 A 
ATOM     15  C   UNL     1       4.357   5.015  17.109  0.00  0.00    +0.000 A 
ATOM     16  N   UNL     1       3.288   5.442  17.863  0.00  0.00    +0.000 N 
ATOM     17  H   UNL     1       2.626   4.850  18.342  0.00  0.00    +0.000 HD
ENDBRANCH   4   7
BRANCH   1  21
ATOM     18  C   UNL     1      -1.778  11.938  22.602  0.00  0.00    +0.000 A 
ATOM     19  C   UNL     1      -1.637  12.231  21.239  0.00  0.00    +0.000 A 
ATOM     20  C   UNL     1      -0.866  11.410  20.405  0.00  0.00    +0.000 A 
ATOM     21  C   UNL     1      -0.197  10.285  20.910  0.00  0.00    +0.000 A 
ATOM     22  C   UNL     1      -0.329  10.028  22.289  0.00  0.00    +0.000 A 
ATOM     23  C   UNL     1      -1.118  10.824  23.119  0.00  0.00    +0.000 A 
BRANCH  18  24
ATOM     24  C   UNL     1      -2.557  12.836  23.526  0.00  0.00    +0.000 C 
BRANCH  24  25
ATOM     25  N   UNL     1      -3.827  12.243  23.942  0.00  0.00    +0.000 NA
ATOM     26  H   UNL     1      -4.015  11.455  23.317  0.00  0.00    +0.000 HD
BRANCH  25  27
ATOM     27  C   UNL     1      -4.934  13.195  23.759  0.00  0.00    +0.000 C 
BRANCH  27  28
ATOM     28  C   UNL     1      -6.314  12.651  24.207  0.00  0.00    +0.000 C 
BRANCH  28  30
ATOM     29  C   UNL     1      -7.885  14.274  23.321  0.00  0.00    +0.000 C 
ATOM     30  N   UNL     1      -7.394  12.897  23.226  0.00  0.00    +0.000 NA
ATOM     31  C   UNL     1      -6.899  12.640  21.870  0.00  0.00    +0.000 C 
ENDBRANCH  28  30
ENDBRANCH  27  28
ENDBRANCH  25  27
ENDBRANCH  24  25
ENDBRANCH  18  24
ENDBRANCH   1  21
TORSDOF 7
ENDMDL
MODEL 3
REMARK VINA RESULT:      -7.8      4.080     11.654
REMARK  Name = 
REMARK  9 active torsions:
REMARK  status: ('A' for Active; 'I' for Inactive)
REMARK    1  A    between atoms: C_1  and  N_2
REMARK    2  A    between atoms: N_2  and  C_3
REMARK    3  A    between atoms: N_2  and  C_4
REMARK    4  A    between atoms: C_4  and  C_5
REMARK    5  A    between atoms: C_5  and  N_6
REMARK    6  A    between atoms: N_6  and  C_7
REMARK    7  A    between atoms: C_7  and  C_8
REMARK    8  A    between atoms: C_11  and  C_12
REMARK    9  A    between atoms: C_15  and  C_16
REMARK                            x       y       z     vdW  Elec       q    Type
REMARK                         _______ _______ _______ _____ _____    ______ ____
ROOT
ATOM      1  C   UNL     1       2.652   7.731  18.448  0.00  0.00    +0.000 A 
ATOM      2  C   UNL     1       2.187   8.886  17.788  0.00  0.00    +0.000 A 
ATOM      3  C   UNL     1       1.321   9.799  18.422  0.00  0.00    +0.000 A 
ATOM      4  C   UNL     1       0.885   9.562  19.728  0.00  0.00    +0.000 A 
ATOM      5  C   UNL     1       1.367   8.437  20.398  0.00  0.00    +0.000 A 
ATOM      6  C   UNL     1       2.244   7.553  19.778  0.00  0.00    +0.000 A 
ENDROOT
BRANCH   4   7
ATOM      7  C   UNL     1      -0.114  10.368  20.423  0.00  0.00    +0.000 A 
ATOM      8  N   UNL     1      -0.261  10.370  21.735  0.00  0.00    +0.000 NA
ATOM      9  C   UNL     1      -1.296  11.214  22.002  0.00  0.00    +0.000 A 
ATOM     10  C   UNL     1      -1.863  11.538  23.238  0.00  0.00    +0.000 A 
ATOM     11  C   UNL     1      -2.937  12.420  23.241  0.00  0.00    +0.000 A 
ATOM     12  F   UNL     1      -3.511  12.743  24.407  0.00  0.00    +0.000 F 
ATOM     13  C   UNL     1      -3.434  12.982  22.061  0.00  0.00    +0.000 A 
ATOM     14  C   UNL     1      -2.865  12.675  20.818  0.00  0.00    +0.000 A 
ATOM     15  C   UNL     1      -1.795  11.777  20.832  0.00  0.00    +0.000 A 
ATOM     16  N   UNL     1      -1.003  11.241  19.842  0.00  0.00    +0.000 N 
ATOM     17  H   UNL     1      -1.053  11.461  18.859  0.00  0.00    +0.000 HD
ENDBRANCH   4   7
BRANCH   1  21
ATOM     18  C   UNL     1       5.118   4.682  16.622  0.00  0.00    +0.000 A 
ATOM     19  C   UNL     1       5.482   6.032  16.532  0.00  0.00    +0.000 A 
ATOM     20  C   UNL     1       4.690   7.029  17.120  0.00  0.00    +0.000 A 
ATOM     21  C   UNL     1       3.503   6.709  17.796  0.00  0.00    +0.000 A 
ATOM     22  C   UNL     1       3.142   5.347  17.846  0.00  0.00    +0.000 A 
ATOM     23  C   UNL     1       3.940   4.349  17.289  0.00  0.00    +0.000 A 
BRANCH  18  24
ATOM     24  C   UNL     1       5.925   3.601  15.952  0.00  0.00    +0.000 C 
BRANCH  24  25
ATOM     25  N   UNL     1       5.566   3.429  14.544  0.00  0.00    +0.000 NA
ATOM     26  H   UNL     1       5.484   2.425  14.371  0.00  0.00    +0.000 HD
BRANCH  25  27
ATOM     27  C   UNL     1       6.641   3.919  13.667  0.00  0.00    +0.000 C 
BRANCH  27  28
ATOM     28  C   UNL     1       6.403   3.636  12.162  0.00  0.00    +0.000 C 
BRANCH  28  30
ATOM     29  C   UNL     1       4.265   3.079  11.158  0.00  0.00    +0.000 C 
ATOM     30  N   UNL     1       5.413   2.565  11.910  0.00  0.00    +0.000 NA
ATOM     31  C   UNL     1       6.046   1.473  11.163  0.00  0.00    +0.000 C 
ENDBRANCH  28  30
ENDBRANCH  27  28
ENDBRANCH  25  27
ENDBRANCH  24  25
ENDBRANCH  18  24
ENDBRANCH   1  21
TORSDOF 7
ENDMDL
MODEL 4
REMARK VINA RESULT:      -7.8      3.978     11.347
REMARK  Name = 
REMARK  9 active torsions:
REMARK  status: ('A' for Active; 'I' for Inactive)
REMARK    1  A    between atoms: C_1  and  N_2
REMARK    2  A    between atoms: N_2  and  C_3
REMARK    3  A    between atoms: N_2  and  C_4
REMARK    4  A    between atoms: C_4  and  C_5
REMARK    5  A    between atoms: C_5  and  N_6
REMARK    6  A    between atoms: N_6  and  C_7
REMARK    7  A    between atoms: C_7  and  C_8
REMARK    8  A    between atoms: C_11  and  C_12
REMARK    9  A    between atoms: C_15  and  C_16
REMARK                            x       y       z     vdW  Elec       q    Type
REMARK                         _______ _______ _______ _____ _____    ______ ____
ROOT
ATOM      1  C   UNL     1       1.426   8.659  20.163  0.00  0.00    +0.000 A 
ATOM      2  C   UNL     1       0.956   9.724  19.370  0.00  0.00    +0.000 A 
ATOM      3  C   UNL     1       0.230  10.795  19.928  0.00  0.00    +0.000 A 
ATOM      4  C   UNL     1      -0.059  10.810  21.295  0.00  0.00    +0.000 A 
ATOM      5  C   UNL     1       0.431   9.774  22.091  0.00  0.00    +0.000 A 
ATOM      6  C   UNL     1       1.171   8.733  21.541  0.00  0.00    +0.000 A 
ENDROOT
BRANCH   4   7
ATOM      7  C   UNL     1      -0.916  11.796  21.946  0.00  0.00    +0.000 A 
ATOM      8  N   UNL     1      -0.500  12.594  22.911  0.00  0.00    +0.000 NA
ATOM      9  C   UNL     1      -1.577  13.344  23.277  0.00  0.00    +0.000 A 
ATOM     10  C   UNL     1      -1.666  14.318  24.277  0.00  0.00    +0.000 A 
ATOM     11  C   UNL     1      -2.898  14.932  24.467  0.00  0.00    +0.000 A 
ATOM     12  F   UNL     1      -3.021  15.860  25.424  0.00  0.00    +0.000 F 
ATOM     13  C   UNL     1      -4.012  14.610  23.687  0.00  0.00    +0.000 A 
ATOM     14  C   UNL     1      -3.931  13.646  22.673  0.00  0.00    +0.000 A 
ATOM     15  C   UNL     1      -2.689  13.030  22.504  0.00  0.00    +0.000 A 
ATOM     16  N   UNL     1      -2.231  12.058  21.643  0.00  0.00    +0.000 N 
ATOM     17  H   UNL     1      -2.762  11.621  20.904  0.00  0.00    +0.000 HD
ENDBRANCH   4   7
BRANCH   1  21
ATOM     18  C   UNL     1       3.515   5.193  18.634  0.00  0.00    +0.000 A 
ATOM     19  C   UNL     1       3.400   6.350  17.852  0.00  0.00    +0.000 A 
ATOM     20  C   UNL     1       2.725   7.479  18.337  0.00  0.00    +0.000 A 
ATOM     21  C   UNL     1       2.129   7.479  19.607  0.00  0.00    +0.000 A 
ATOM     22  C   UNL     1       2.231   6.293  20.361  0.00  0.00    +0.000 A 
ATOM     23  C   UNL     1       2.926   5.177  19.897  0.00  0.00    +0.000 A 
BRANCH  18  24
ATOM     24  C   UNL     1       4.188   3.951  18.111  0.00  0.00    +0.000 C 
BRANCH  24  25
ATOM     25  N   UNL     1       5.424   3.643  18.829  0.00  0.00    +0.000 NA
ATOM     26  H   UNL     1       5.182   3.520  19.815  0.00  0.00    +0.000 HD
BRANCH  25  27
ATOM     27  C   UNL     1       6.362   4.775  18.766  0.00  0.00    +0.000 C 
BRANCH  27  28
ATOM     28  C   UNL     1       7.500   4.594  17.729  0.00  0.00    +0.000 C 
BRANCH  28  30
ATOM     29  C   UNL     1       6.521   5.242  15.606  0.00  0.00    +0.000 C 
ATOM     30  N   UNL     1       7.483   5.606  16.649  0.00  0.00    +0.000 NA
ATOM     31  C   UNL     1       7.140   6.917  17.206  0.00  0.00    +0.000 C 
ENDBRANCH  28  30
ENDBRANCH  27  28
ENDBRANCH  25  27
ENDBRANCH  24  25
ENDBRANCH  18  24
ENDBRANCH   1  21
TORSDOF 7
ENDMDL
MODEL 5
REMARK VINA RESULT:      -7.7      4.084     11.644
REMARK  Name = 
REMARK  9 active torsions:
REMARK  status: ('A' for Active; 'I' for Inactive)
REMARK    1  A    between atoms: C_1  and  N_2
REMARK    2  A    between atoms: N_2  and  C_3
REMARK    3  A    between atoms: N_2  and  C_4
REMARK    4  A    between atoms: C_4  and  C_5
REMARK    5  A    between atoms: C_5  and  N_6
REMARK    6  A    between atoms: N_6  and  C_7
REMARK    7  A    between atoms: C_7  and  C_8
REMARK    8  A    between atoms: C_11  and  C_12
REMARK    9  A    between atoms: C_15  and  C_16
REMARK                            x       y       z     vdW  Elec       q    Type
REMARK                         _______ _______ _______ _____ _____    ______ ____
ROOT
ATOM      1  C   UNL     1       2.589   7.506  18.525  0.00  0.00    +0.000 A 
ATOM      2  C   UNL     1       2.195   7.343  19.867  0.00  0.00    +0.000 A 
ATOM      3  C   UNL     1       1.283   8.225  20.481  0.00  0.00    +0.000 A 
ATOM      4  C   UNL     1       0.760   9.305  19.763  0.00  0.00    +0.000 A 
ATOM      5  C   UNL     1       1.122   9.453  18.424  0.00  0.00    +0.000 A 
ATOM      6  C   UNL     1       2.001   8.564  17.815  0.00  0.00    +0.000 A 
ENDROOT
BRANCH   4   7
ATOM      7  C   UNL     1      -0.079  10.349  20.341  0.00  0.00    +0.000 A 
ATOM      8  N   UNL     1      -0.123  10.613  21.634  0.00  0.00    +0.000 NA
ATOM      9  C   UNL     1      -1.027  11.620  21.788  0.00  0.00    +0.000 A 
ATOM     10  C   UNL     1      -1.455  12.239  22.967  0.00  0.00    +0.000 A 
ATOM     11  C   UNL     1      -2.412  13.240  22.857  0.00  0.00    +0.000 A 
ATOM     12  F   UNL     1      -2.852  13.845  23.966  0.00  0.00    +0.000 F 
ATOM     13  C   UNL     1      -2.929  13.633  21.619  0.00  0.00    +0.000 A 
ATOM     14  C   UNL     1      -2.498  13.030  20.430  0.00  0.00    +0.000 A 
ATOM     15  C   UNL     1      -1.545  12.018  20.560  0.00  0.00    +0.000 A 
ATOM     16  N   UNL     1      -0.901  11.209  19.651  0.00  0.00    +0.000 N 
ATOM     17  H   UNL     1      -1.001  11.247  18.648  0.00  0.00    +0.000 HD
ENDBRANCH   4   7
BRANCH   1  21
ATOM     18  C   UNL     1       5.518   4.925  16.661  0.00  0.00    +0.000 A 
ATOM     19  C   UNL     1       5.744   6.305  16.744  0.00  0.00    +0.000 A 
ATOM     20  C   UNL     1       4.802   7.151  17.346  0.00  0.00    +0.000 A 
ATOM     21  C   UNL     1       3.599   6.647  17.863  0.00  0.00    +0.000 A 
ATOM     22  C   UNL     1       3.381   5.261  17.740  0.00  0.00    +0.000 A 
ATOM     23  C   UNL     1       4.326   4.410  17.170  0.00  0.00    +0.000 A 
BRANCH  18  24
ATOM     24  C   UNL     1       6.491   4.006  15.971  0.00  0.00    +0.000 C 
BRANCH  24  25
ATOM     25  N   UNL     1       6.825   4.460  14.621  0.00  0.00    +0.000 NA
ATOM     26  H   UNL     1       6.893   5.480  14.650  0.00  0.00    +0.000 HD
BRANCH  25  27
ATOM     27  C   UNL     1       5.742   4.139  13.679  0.00  0.00    +0.000 C 
BRANCH  27  28
ATOM     28  C   UNL     1       6.224   3.460  12.372  0.00  0.00    +0.000 C 
BRANCH  28  30
ATOM     29  C   UNL     1       4.225   2.988  11.081  0.00  0.00    +0.000 C 
ATOM     30  N   UNL     1       5.308   2.407  11.879  0.00  0.00    +0.000 NA
ATOM     31  C   UNL     1       6.056   1.440  11.070  0.00  0.00    +0.000 C 
ENDBRANCH  28  30
ENDBRANCH  27  28
ENDBRANCH  25  27
ENDBRANCH  24  25
ENDBRANCH  18  24
ENDBRANCH   1  21
TORSDOF 7
ENDMDL
MODEL 6
REMARK VINA RESULT:      -7.7      0.897      1.095
REMARK  Name = 
REMARK  9 active torsions:
REMARK  status: ('A' for Active; 'I' for Inactive)
REMARK    1  A    between atoms: C_1  and  N_2
REMARK    2  A    between atoms: N_2  and  C_3
REMARK    3  A    between atoms: N_2  and  C_4
REMARK    4  A    between atoms: C_4  and  C_5
REMARK    5  A    between atoms: C_5  and  N_6
REMARK    6  A    between atoms: N_6  and  C_7
REMARK    7  A    between atoms: C_7  and  C_8
REMARK    8  A    between atoms: C_11  and  C_12
REMARK    9  A    between atoms: C_15  and  C_16
REMARK                            x       y       z     vdW  Elec       q    Type
REMARK                         _______ _______ _______ _____ _____    ______ ____
ROOT
ATOM      1  C   UNL     1       0.711   9.364  20.150  0.00  0.00    +0.000 A 
ATOM      2  C   UNL     1       0.888   9.580  18.770  0.00  0.00    +0.000 A 
ATOM      3  C   UNL     1       1.690   8.727  17.986  0.00  0.00    +0.000 A 
ATOM      4  C   UNL     1       2.350   7.645  18.577  0.00  0.00    +0.000 A 
ATOM      5  C   UNL     1       2.153   7.408  19.937  0.00  0.00    +0.000 A 
ATOM      6  C   UNL     1       1.339   8.237  20.701  0.00  0.00    +0.000 A 
ENDROOT
BRANCH   4   7
ATOM      7  C   UNL     1       3.306   6.787  17.887  0.00  0.00    +0.000 A 
ATOM      8  N   UNL     1       4.375   7.246  17.262  0.00  0.00    +0.000 NA
ATOM      9  C   UNL     1       5.000   6.161  16.726  0.00  0.00    +0.000 A 
ATOM     10  C   UNL     1       6.160   6.116  15.946  0.00  0.00    +0.000 A 
ATOM     11  C   UNL     1       6.587   4.872  15.500  0.00  0.00    +0.000 A 
ATOM     12  F   UNL     1       7.687   4.795  14.741  0.00  0.00    +0.000 F 
ATOM     13  C   UNL     1       5.902   3.697  15.824  0.00  0.00    +0.000 A 
ATOM     14  C   UNL     1       4.747   3.728  16.617  0.00  0.00    +0.000 A 
ATOM     15  C   UNL     1       4.324   4.988  17.045  0.00  0.00    +0.000 A 
ATOM     16  N   UNL     1       3.263   5.415  17.810  0.00  0.00    +0.000 N 
ATOM     17  H   UNL     1       2.576   4.824  18.254  0.00  0.00    +0.000 HD
ENDBRANCH   4   7
BRANCH   1  21
ATOM     18  C   UNL     1      -1.499  12.110  22.658  0.00  0.00    +0.000 A 
ATOM     19  C   UNL     1      -1.085  10.869  23.162  0.00  0.00    +0.000 A 
ATOM     20  C   UNL     1      -0.368   9.972  22.359  0.00  0.00    +0.000 A 
ATOM     21  C   UNL     1      -0.062  10.277  21.024  0.00  0.00    +0.000 A 
ATOM     22  C   UNL     1      -0.516  11.517  20.531  0.00  0.00    +0.000 A 
ATOM     23  C   UNL     1      -1.203  12.426  21.333  0.00  0.00    +0.000 A 
BRANCH  18  24
ATOM     24  C   UNL     1      -2.317  13.065  23.487  0.00  0.00    +0.000 C 
BRANCH  24  25
ATOM     25  N   UNL     1      -3.340  13.752  22.700  0.00  0.00    +0.000 NA
ATOM     26  H   UNL     1      -3.530  14.646  23.159  0.00  0.00    +0.000 HD
BRANCH  25  27
ATOM     27  C   UNL     1      -4.603  12.998  22.712  0.00  0.00    +0.000 C 
BRANCH  27  28
ATOM     28  C   UNL     1      -5.260  12.893  24.112  0.00  0.00    +0.000 C 
BRANCH  28  30
ATOM     29  C   UNL     1      -6.961  14.593  23.789  0.00  0.00    +0.000 C 
ATOM     30  N   UNL     1      -6.711  13.185  24.109  0.00  0.00    +0.000 NA
ATOM     31  C   UNL     1      -7.385  12.327  23.131  0.00  0.00    +0.000 C 
ENDBRANCH  28  30
ENDBRANCH  27  28
ENDBRANCH  25  27
ENDBRANCH  24  25
ENDBRANCH  18  24
ENDBRANCH   1  21
TORSDOF 7
ENDMDL
MODEL 7
REMARK VINA RESULT:      -7.7      4.183     11.614
REMARK  Name = 
REMARK  9 active torsions:
REMARK  status: ('A' for Active; 'I' for Inactive)
REMARK    1  A    between atoms: C_1  and  N_2
REMARK    2  A    between atoms: N_2  and  C_3
REMARK    3  A    between atoms: N_2  and  C_4
REMARK    4  A    between atoms: C_4  and  C_5
REMARK    5  A    between atoms: C_5  and  N_6
REMARK    6  A    between atoms: N_6  and  C_7
REMARK    7  A    between atoms: C_7  and  C_8
REMARK    8  A    between atoms: C_11  and  C_12
REMARK    9  A    between atoms: C_15  and  C_16
REMARK                            x       y       z     vdW  Elec       q    Type
REMARK                         _______ _______ _______ _____ _____    ______ ____
ROOT
ATOM      1  C   UNL     1       0.552   9.424  20.845  0.00  0.00    +0.000 A 
ATOM      2  C   UNL     1       0.232   9.278  22.209  0.00  0.00    +0.000 A 
ATOM      3  C   UNL     1      -0.472  10.277  22.911  0.00  0.00    +0.000 A 
ATOM      4  C   UNL     1      -0.853  11.455  22.264  0.00  0.00    +0.000 A 
ATOM      5  C   UNL     1      -0.566  11.591  20.905  0.00  0.00    +0.000 A 
ATOM      6  C   UNL     1       0.104  10.591  20.209  0.00  0.00    +0.000 A 
ENDROOT
BRANCH   4   7
ATOM      7  C   UNL     1      -1.460  12.602  22.930  0.00  0.00    +0.000 A 
ATOM      8  N   UNL     1      -0.761  13.548  23.528  0.00  0.00    +0.000 NA
ATOM      9  C   UNL     1      -1.667  14.423  24.048  0.00  0.00    +0.000 A 
ATOM     10  C   UNL     1      -1.435  15.579  24.800  0.00  0.00    +0.000 A 
ATOM     11  C   UNL     1      -2.543  16.296  25.234  0.00  0.00    +0.000 A 
ATOM     12  F   UNL     1      -2.357  17.401  25.966  0.00  0.00    +0.000 F 
ATOM     13  C   UNL     1      -3.847  15.897  24.927  0.00  0.00    +0.000 A 
ATOM     14  C   UNL     1      -4.091  14.748  24.163  0.00  0.00    +0.000 A 
ATOM     15  C   UNL     1      -2.967  14.033  23.745  0.00  0.00    +0.000 A 
ATOM     16  N   UNL     1      -2.804  12.882  23.007  0.00  0.00    +0.000 N 
ATOM     17  H   UNL     1      -3.542  12.343  22.579  0.00  0.00    +0.000 HD
ENDBRANCH   4   7
BRANCH   1  21
ATOM     18  C   UNL     1       2.842   6.563  18.546  0.00  0.00    +0.000 A 
ATOM     19  C   UNL     1       2.423   6.250  19.847  0.00  0.00    +0.000 A 
ATOM     20  C   UNL     1       1.680   7.170  20.601  0.00  0.00    +0.000 A 
ATOM     21  C   UNL     1       1.353   8.434  20.087  0.00  0.00    +0.000 A 
ATOM     22  C   UNL     1       1.813   8.736  18.790  0.00  0.00    +0.000 A 
ATOM     23  C   UNL     1       2.526   7.815  18.024  0.00  0.00    +0.000 A 
BRANCH  18  24
ATOM     24  C   UNL     1       3.687   5.611  17.740  0.00  0.00    +0.000 C 
BRANCH  24  25
ATOM     25  N   UNL     1       4.497   4.732  18.584  0.00  0.00    +0.000 NA
ATOM     26  H   UNL     1       4.024   4.656  19.487  0.00  0.00    +0.000 HD
BRANCH  25  27
ATOM     27  C   UNL     1       5.814   5.332  18.851  0.00  0.00    +0.000 C 
BRANCH  27  28
ATOM     28  C   UNL     1       6.976   4.675  18.064  0.00  0.00    +0.000 C 
BRANCH  28  30
ATOM     29  C   UNL     1       6.820   5.162  15.692  0.00  0.00    +0.000 C 
ATOM     30  N   UNL     1       7.483   5.509  16.952  0.00  0.00    +0.000 NA
ATOM     31  C   UNL     1       7.261   6.926  17.255  0.00  0.00    +0.000 C 
ENDBRANCH  28  30
ENDBRANCH  27  28
ENDBRANCH  25  27
ENDBRANCH  24  25
ENDBRANCH  18  24
ENDBRANCH   1  21
TORSDOF 7
ENDMDL
MODEL 8
REMARK VINA RESULT:      -7.7      4.028     11.596
REMARK  Name = 
REMARK  9 active torsions:
REMARK  status: ('A' for Active; 'I' for Inactive)
REMARK    1  A    between atoms: C_1  and  N_2
REMARK    2  A    between atoms: N_2  and  C_3
REMARK    3  A    between atoms: N_2  and  C_4
REMARK    4  A    between atoms: C_4  and  C_5
REMARK    5  A    between atoms: C_5  and  N_6
REMARK    6  A    between atoms: N_6  and  C_7
REMARK    7  A    between atoms: C_7  and  C_8
REMARK    8  A    between atoms: C_11  and  C_12
REMARK    9  A    between atoms: C_15  and  C_16
REMARK                            x       y       z     vdW  Elec       q    Type
REMARK                         _______ _______ _______ _____ _____    ______ ____
ROOT
ATOM      1  C   UNL     1       2.551   7.394  18.572  0.00  0.00    +0.000 A 
ATOM      2  C   UNL     1       2.176   7.275  19.925  0.00  0.00    +0.000 A 
ATOM      3  C   UNL     1       1.343   8.227  20.546  0.00  0.00    +0.000 A 
ATOM      4  C   UNL     1       0.882   9.333  19.826  0.00  0.00    +0.000 A 
ATOM      5  C   UNL     1       1.224   9.439  18.478  0.00  0.00    +0.000 A 
ATOM      6  C   UNL     1       2.024   8.483  17.861  0.00  0.00    +0.000 A 
ENDROOT
BRANCH   4   7
ATOM      7  C   UNL     1       0.132  10.441  20.408  0.00  0.00    +0.000 A 
ATOM      8  N   UNL     1      -0.462  11.373  19.686  0.00  0.00    +0.000 NA
ATOM      9  C   UNL     1      -1.030  12.238  20.573  0.00  0.00    +0.000 A 
ATOM     10  C   UNL     1      -1.749  13.409  20.314  0.00  0.00    +0.000 A 
ATOM     11  C   UNL     1      -2.211  14.134  21.405  0.00  0.00    +0.000 A 
ATOM     12  F   UNL     1      -2.893  15.266  21.193  0.00  0.00    +0.000 F 
ATOM     13  C   UNL     1      -1.987  13.713  22.719  0.00  0.00    +0.000 A 
ATOM     14  C   UNL     1      -1.280  12.534  22.991  0.00  0.00    +0.000 A 
ATOM     15  C   UNL     1      -0.811  11.825  21.883  0.00  0.00    +0.000 A 
ATOM     16  N   UNL     1      -0.091  10.660  21.747  0.00  0.00    +0.000 N 
ATOM     17  H   UNL     1       0.210  10.058  22.498  0.00  0.00    +0.000 HD
ENDBRANCH   4   7
BRANCH   1  21
ATOM     18  C   UNL     1       5.293   4.734  16.543  0.00  0.00    +0.000 A 
ATOM     19  C   UNL     1       4.109   4.235  17.103  0.00  0.00    +0.000 A 
ATOM     20  C   UNL     1       3.213   5.088  17.763  0.00  0.00    +0.000 A 
ATOM     21  C   UNL     1       3.483   6.458  17.901  0.00  0.00    +0.000 A 
ATOM     22  C   UNL     1       4.694   6.930  17.357  0.00  0.00    +0.000 A 
ATOM     23  C   UNL     1       5.575   6.093  16.674  0.00  0.00    +0.000 A 
BRANCH  18  24
ATOM     24  C   UNL     1       6.295   3.827  15.878  0.00  0.00    +0.000 C 
BRANCH  24  25
ATOM     25  N   UNL     1       6.795   4.377  14.619  0.00  0.00    +0.000 NA
ATOM     26  H   UNL     1       6.931   5.381  14.757  0.00  0.00    +0.000 HD
BRANCH  25  27
ATOM     27  C   UNL     1       5.794   4.233  13.550  0.00  0.00    +0.000 C 
BRANCH  27  28
ATOM     28  C   UNL     1       6.297   3.438  12.319  0.00  0.00    +0.000 C 
BRANCH  28  30
ATOM     29  C   UNL     1       4.263   2.948  11.090  0.00  0.00    +0.000 C 
ATOM     30  N   UNL     1       5.363   2.380  11.875  0.00  0.00    +0.000 NA
ATOM     31  C   UNL     1       6.084   1.389  11.071  0.00  0.00    +0.000 C 
ENDBRANCH  28  30
ENDBRANCH  27  28
ENDBRANCH  25  27
ENDBRANCH  24  25
ENDBRANCH  18  24
ENDBRANCH   1  21
TORSDOF 7
ENDMDL
MODEL 9
REMARK VINA RESULT:      -7.7      4.061     11.479
REMARK  Name = 
REMARK  9 active torsions:
REMARK  status: ('A' for Active; 'I' for Inactive)
REMARK    1  A    between atoms: C_1  and  N_2
REMARK    2  A    between atoms: N_2  and  C_3
REMARK    3  A    between atoms: N_2  and  C_4
REMARK    4  A    between atoms: C_4  and  C_5
REMARK    5  A    between atoms: C_5  and  N_6
REMARK    6  A    between atoms: N_6  and  C_7
REMARK    7  A    between atoms: C_7  and  C_8
REMARK    8  A    between atoms: C_11  and  C_12
REMARK    9  A    between atoms: C_15  and  C_16
REMARK                            x       y       z     vdW  Elec       q    Type
REMARK                         _______ _______ _______ _____ _____    ______ ____
ROOT
ATOM      1  C   UNL     1       2.669   7.638  18.381  0.00  0.00    +0.000 A 
ATOM      2  C   UNL     1       2.282   8.850  17.777  0.00  0.00    +0.000 A 
ATOM      3  C   UNL     1       1.454   9.775  18.444  0.00  0.00    +0.000 A 
ATOM      4  C   UNL     1       0.980   9.495  19.728  0.00  0.00    +0.000 A 
ATOM      5  C   UNL     1       1.385   8.310  20.344  0.00  0.00    +0.000 A 
ATOM      6  C   UNL     1       2.224   7.412  19.692  0.00  0.00    +0.000 A 
ENDROOT
BRANCH   4   7
ATOM      7  C   UNL     1       0.013  10.317  20.447  0.00  0.00    +0.000 A 
ATOM      8  N   UNL     1      -0.843  11.124  19.848  0.00  0.00    +0.000 NA
ATOM      9  C   UNL     1      -1.553  11.733  20.838  0.00  0.00    +0.000 A 
ATOM     10  C   UNL     1      -2.559  12.697  20.727  0.00  0.00    +0.000 A 
ATOM     11  C   UNL     1      -3.119  13.180  21.904  0.00  0.00    +0.000 A 
ATOM     12  F   UNL     1      -4.077  14.112  21.833  0.00  0.00    +0.000 F 
ATOM     13  C   UNL     1      -2.711  12.719  23.159  0.00  0.00    +0.000 A 
ATOM     14  C   UNL     1      -1.713  11.743  23.282  0.00  0.00    +0.000 A 
ATOM     15  C   UNL     1      -1.153  11.278  22.090  0.00  0.00    +0.000 A 
ATOM     16  N   UNL     1      -0.171  10.354  21.810  0.00  0.00    +0.000 N 
ATOM     17  H   UNL     1       0.320   9.787  22.484  0.00  0.00    +0.000 HD
ENDBRANCH   4   7
BRANCH   1  21
ATOM     18  C   UNL     1       5.026   4.682  16.277  0.00  0.00    +0.000 A 
ATOM     19  C   UNL     1       4.046   4.282  17.196  0.00  0.00    +0.000 A 
ATOM     20  C   UNL     1       3.276   5.231  17.883  0.00  0.00    +0.000 A 
ATOM     21  C   UNL     1       3.476   6.605  17.689  0.00  0.00    +0.000 A 
ATOM     22  C   UNL     1       4.488   6.984  16.784  0.00  0.00    +0.000 A 
ATOM     23  C   UNL     1       5.236   6.046  16.075  0.00  0.00    +0.000 A 
BRANCH  18  24
ATOM     24  C   UNL     1       5.900   3.681  15.569  0.00  0.00    +0.000 C 
BRANCH  24  25
ATOM     25  N   UNL     1       6.745   4.302  14.550  0.00  0.00    +0.000 NA
ATOM     26  H   UNL     1       6.480   5.287  14.492  0.00  0.00    +0.000 HD
BRANCH  25  27
ATOM     27  C   UNL     1       6.481   3.718  13.225  0.00  0.00    +0.000 C 
BRANCH  27  28
ATOM     28  C   UNL     1       5.039   3.953  12.710  0.00  0.00    +0.000 C 
BRANCH  28  30
ATOM     29  C   UNL     1       3.838   3.443  10.664  0.00  0.00    +0.000 C 
ATOM     30  N   UNL     1       4.547   2.880  11.817  0.00  0.00    +0.000 NA
ATOM     31  C   UNL     1       5.675   2.066  11.355  0.00  0.00    +0.000 C 
ENDBRANCH  28  30
ENDBRANCH  27  28
ENDBRANCH  25  27
ENDBRANCH  24  25
ENDBRANCH  18  24
ENDBRANCH   1  21
TORSDOF 7
ENDMDL
