MODEL 1
REMARK VINA RESULT:      -7.6      0.000      0.000
REMARK  Name = 
REMARK  4 active torsions:
REMARK  status: ('A' for Active; 'I' for Inactive)
REMARK    1  A    between atoms: C_1  and  O_2
REMARK    2  A    between atoms: O_2  and  C_3
REMARK    3  A    between atoms: C_7  and  N_8
REMARK    4  A    between atoms: C_9  and  C_10
REMARK                            x       y       z     vdW  Elec       q    Type
REMARK                         _______ _______ _______ _____ _____    ______ ____
ROOT
ATOM      1  C   UNL     1       4.220   4.288  17.650  0.00  0.00    +0.000 A 
ATOM      2  C   UNL     1       3.031   4.881  17.487  0.00  0.00    +0.000 A 
ATOM      3  O   UNL     1       2.110   5.104  18.488  0.00  0.00    +0.000 OA
ATOM      4  C   UNL     1       2.227   4.306  19.601  0.00  0.00    +0.000 A 
ATOM      5  C   UNL     1       1.112   4.168  20.421  0.00  0.00    +0.000 A 
ATOM      6  C   UNL     1       1.130   3.220  21.446  0.00  0.00    +0.000 A 
ATOM      7  C   UNL     1       2.265   2.432  21.660  0.00  0.00    +0.000 A 
ATOM      8  C   UNL     1       3.415   2.636  20.896  0.00  0.00    +0.000 A 
ATOM      9  C   UNL     1       3.391   3.586  19.876  0.00  0.00    +0.000 A 
ATOM     10  C   UNL     1       4.555   3.794  18.999  0.00  0.00    +0.000 A 
ATOM     11  O   UNL     1       5.695   3.509  19.338  0.00  0.00    +0.000 OA
ENDROOT
BRANCH   1  13
ATOM     12  N   UNL     1       5.187   4.879  15.511  0.00  0.00    +0.000 NA
ATOM     13  C   UNL     1       5.106   4.044  16.499  0.00  0.00    +0.000 C 
BRANCH  12  18
ATOM     14  C   UNL     1       6.110   3.314  12.247  0.00  0.00    +0.000 A 
ATOM     15  C   UNL     1       7.267   4.045  11.953  0.00  0.00    +0.000 A 
ATOM     16  C   UNL     1       7.735   5.005  12.851  0.00  0.00    +0.000 A 
ATOM     17  C   UNL     1       7.054   5.242  14.045  0.00  0.00    +0.000 A 
ATOM     18  C   UNL     1       5.899   4.516  14.358  0.00  0.00    +0.000 A 
ATOM     19  C   UNL     1       5.428   3.567  13.437  0.00  0.00    +0.000 A 
BRANCH  14  21
ATOM     20  C   UNL     1       6.546   1.238  11.181  0.00  0.00    +0.000 C 
ATOM     21  O   UNL     1       5.737   2.403  11.294  0.00  0.00    +0.000 OA
ENDBRANCH  14  21
ENDBRANCH  12  18
ENDBRANCH   1  13
TORSDOF 3
ENDMDL
MODEL 2
REMARK VINA RESULT:      -7.5      6.155      7.739
REMARK  Name = 
REMARK  4 active torsions:
REMARK  status: ('A' for Active; 'I' for Inactive)
REMARK    1  A    between atoms: C_1  and  O_2
REMARK    2  A    between atoms: O_2  and  C_3
REMARK    3  A    between atoms: C_7  and  N_8
REMARK    4  A    between atoms: C_9  and  C_10
REMARK                            x       y       z     vdW  Elec       q    Type
REMARK                         _______ _______ _______ _____ _____    ______ ____
ROOT
ATOM      1  C   UNL     1       7.388   7.075  18.027  0.00  0.00    +0.000 A 
ATOM      2  C   UNL     1       7.779   6.093  18.848  0.00  0.00    +0.000 A 
ATOM      3  O   UNL     1       7.189   4.850  18.940  0.00  0.00    +0.000 OA
ATOM      4  C   UNL     1       5.893   4.766  18.490  0.00  0.00    +0.000 A 
ATOM      5  C   UNL     1       5.116   3.706  18.945  0.00  0.00    +0.000 A 
ATOM      6  C   UNL     1       3.747   3.692  18.667  0.00  0.00    +0.000 A 
ATOM      7  C   UNL     1       3.168   4.723  17.920  0.00  0.00    +0.000 A 
ATOM      8  C   UNL     1       3.965   5.737  17.386  0.00  0.00    +0.000 A 
ATOM      9  C   UNL     1       5.332   5.742  17.666  0.00  0.00    +0.000 A 
ATOM     10  C   UNL     1       6.205   6.824  17.182  0.00  0.00    +0.000 A 
ATOM     11  O   UNL     1       5.931   7.505  16.203  0.00  0.00    +0.000 OA
ENDROOT
BRANCH   1  13
ATOM     12  N   UNL     1       8.820   8.748  19.031  0.00  0.00    +0.000 NA
ATOM     13  C   UNL     1       8.052   8.389  18.051  0.00  0.00    +0.000 C 
BRANCH  12  18
ATOM     14  C   UNL     1       9.834  12.214  18.075  0.00  0.00    +0.000 A 
ATOM     15  C   UNL     1       9.943  12.788  19.347  0.00  0.00    +0.000 A 
ATOM     16  C   UNL     1       9.720  12.013  20.485  0.00  0.00    +0.000 A 
ATOM     17  C   UNL     1       9.386  10.665  20.364  0.00  0.00    +0.000 A 
ATOM     18  C   UNL     1       9.277  10.073  19.099  0.00  0.00    +0.000 A 
ATOM     19  C   UNL     1       9.486  10.868  17.962  0.00  0.00    +0.000 A 
BRANCH  14  21
ATOM     20  C   UNL     1      11.432  13.332  16.721  0.00  0.00    +0.000 C 
ATOM     21  O   UNL     1      10.069  13.066  17.028  0.00  0.00    +0.000 OA
ENDBRANCH  14  21
ENDBRANCH  12  18
ENDBRANCH   1  13
TORSDOF 3
ENDMDL
MODEL 3
REMARK VINA RESULT:      -7.5      1.261      1.390
REMARK  Name = 
REMARK  4 active torsions:
REMARK  status: ('A' for Active; 'I' for Inactive)
REMARK    1  A    between atoms: C_1  and  O_2
REMARK    2  A    between atoms: O_2  and  C_3
REMARK    3  A    between atoms: C_7  and  N_8
REMARK    4  A    between atoms: C_9  and  C_10
REMARK                            x       y       z     vdW  Elec       q    Type
REMARK                         _______ _______ _______ _____ _____    ______ ____
ROOT
ATOM      1  C   UNL     1       4.819   3.867  17.669  0.00  0.00    +0.000 A 
ATOM      2  C   UNL     1       4.917   5.021  18.339  0.00  0.00    +0.000 A 
ATOM      3  O   UNL     1       4.251   5.322  19.509  0.00  0.00    +0.000 OA
ATOM      4  C   UNL     1       3.121   4.582  19.764  0.00  0.00    +0.000 A 
ATOM      5  C   UNL     1       2.189   5.106  20.652  0.00  0.00    +0.000 A 
ATOM      6  C   UNL     1       0.947   4.483  20.789  0.00  0.00    +0.000 A 
ATOM      7  C   UNL     1       0.651   3.329  20.055  0.00  0.00    +0.000 A 
ATOM      8  C   UNL     1       1.621   2.752  19.234  0.00  0.00    +0.000 A 
ATOM      9  C   UNL     1       2.860   3.379  19.105  0.00  0.00    +0.000 A 
ATOM     10  C   UNL     1       3.894   2.848  18.201  0.00  0.00    +0.000 A 
ATOM     11  O   UNL     1       3.933   1.673  17.862  0.00  0.00    +0.000 OA
ENDROOT
BRANCH   1  13
ATOM     12  N   UNL     1       5.830   4.667  15.621  0.00  0.00    +0.000 NA
ATOM     13  C   UNL     1       5.528   3.671  16.394  0.00  0.00    +0.000 C 
BRANCH  12  18
ATOM     14  C   UNL     1       6.240   3.317  12.162  0.00  0.00    +0.000 A 
ATOM     15  C   UNL     1       7.253   4.163  11.696  0.00  0.00    +0.000 A 
ATOM     16  C   UNL     1       7.802   5.127  12.542  0.00  0.00    +0.000 A 
ATOM     17  C   UNL     1       7.345   5.255  13.853  0.00  0.00    +0.000 A 
ATOM     18  C   UNL     1       6.336   4.414  14.337  0.00  0.00    +0.000 A 
ATOM     19  C   UNL     1       5.779   3.461  13.470  0.00  0.00    +0.000 A 
BRANCH  14  21
ATOM     20  C   UNL     1       6.512   1.206  11.110  0.00  0.00    +0.000 C 
ATOM     21  O   UNL     1       5.769   2.411  11.247  0.00  0.00    +0.000 OA
ENDBRANCH  14  21
ENDBRANCH  12  18
ENDBRANCH   1  13
TORSDOF 3
ENDMDL
MODEL 4
REMARK VINA RESULT:      -7.4      6.224      8.078
REMARK  Name = 
REMARK  4 active torsions:
REMARK  status: ('A' for Active; 'I' for Inactive)
REMARK    1  A    between atoms: C_1  and  O_2
REMARK    2  A    between atoms: O_2  and  C_3
REMARK    3  A    between atoms: C_7  and  N_8
REMARK    4  A    between atoms: C_9  and  C_10
REMARK                            x       y       z     vdW  Elec       q    Type
REMARK                         _______ _______ _______ _____ _____    ______ ____
ROOT
ATOM      1  C   UNL     1       7.322   6.994  17.955  0.00  0.00    +0.000 A 
ATOM      2  C   UNL     1       7.724   6.037  18.800  0.00  0.00    +0.000 A 
ATOM      3  O   UNL     1       7.150   4.788  18.918  0.00  0.00    +0.000 OA
ATOM      4  C   UNL     1       5.858   4.675  18.464  0.00  0.00    +0.000 A 
ATOM      5  C   UNL     1       5.093   3.616  18.940  0.00  0.00    +0.000 A 
ATOM      6  C   UNL     1       3.727   3.576  18.656  0.00  0.00    +0.000 A 
ATOM      7  C   UNL     1       3.137   4.581  17.883  0.00  0.00    +0.000 A 
ATOM      8  C   UNL     1       3.922   5.593  17.329  0.00  0.00    +0.000 A 
ATOM      9  C   UNL     1       5.287   5.625  17.615  0.00  0.00    +0.000 A 
ATOM     10  C   UNL     1       6.147   6.708  17.110  0.00  0.00    +0.000 A 
ATOM     11  O   UNL     1       5.868   7.362  16.116  0.00  0.00    +0.000 OA
ENDROOT
BRANCH   1  13
ATOM     12  N   UNL     1       8.701   8.722  18.941  0.00  0.00    +0.000 NA
ATOM     13  C   UNL     1       7.968   8.318  17.952  0.00  0.00    +0.000 C 
BRANCH  12  18
ATOM     14  C   UNL     1       9.937  12.029  20.162  0.00  0.00    +0.000 A 
ATOM     15  C   UNL     1      10.257  12.629  18.938  0.00  0.00    +0.000 A 
ATOM     16  C   UNL     1      10.022  11.947  17.744  0.00  0.00    +0.000 A 
ATOM     17  C   UNL     1       9.470  10.667  17.761  0.00  0.00    +0.000 A 
ATOM     18  C   UNL     1       9.139  10.055  18.976  0.00  0.00    +0.000 A 
ATOM     19  C   UNL     1       9.398  10.743  20.171  0.00  0.00    +0.000 A 
BRANCH  14  21
ATOM     20  C   UNL     1      10.419  14.175  21.056  0.00  0.00    +0.000 C 
ATOM     21  O   UNL     1      10.213  12.784  21.272  0.00  0.00    +0.000 OA
ENDBRANCH  14  21
ENDBRANCH  12  18
ENDBRANCH   1  13
TORSDOF 3
ENDMDL
MODEL 5
REMARK VINA RESULT:      -7.4      5.596      8.158
REMARK  Name = 
REMARK  4 active torsions:
REMARK  status: ('A' for Active; 'I' for Inactive)
REMARK    1  A    between atoms: C_1  and  O_2
REMARK    2  A    between atoms: O_2  and  C_3
REMARK    3  A    between atoms: C_7  and  N_8
REMARK    4  A    between atoms: C_9  and  C_10
REMARK                            x       y       z     vdW  Elec       q    Type
REMARK                         _______ _______ _______ _____ _____    ______ ____
ROOT
ATOM      1  C   UNL     1       0.863   9.178  20.970  0.00  0.00    +0.000 A 
ATOM      2  C   UNL     1       0.507   9.768  19.823  0.00  0.00    +0.000 A 
ATOM      3  O   UNL     1      -0.124  10.990  19.719  0.00  0.00    +0.000 OA
ATOM      4  C   UNL     1      -0.798  11.414  20.839  0.00  0.00    +0.000 A 
ATOM      5  C   UNL     1      -1.790  12.376  20.674  0.00  0.00    +0.000 A 
ATOM      6  C   UNL     1      -2.624  12.690  21.748  0.00  0.00    +0.000 A 
ATOM      7  C   UNL     1      -2.452  12.059  22.984  0.00  0.00    +0.000 A 
ATOM      8  C   UNL     1      -1.399  11.163  23.174  0.00  0.00    +0.000 A 
ATOM      9  C   UNL     1      -0.568  10.856  22.097  0.00  0.00    +0.000 A 
ATOM     10  C   UNL     1       0.516   9.868  22.227  0.00  0.00    +0.000 A 
ATOM     11  O   UNL     1       1.030   9.591  23.301  0.00  0.00    +0.000 OA
ENDROOT
BRANCH   1  13
ATOM     12  N   UNL     1       2.057   7.354  19.918  0.00  0.00    +0.000 NA
ATOM     13  C   UNL     1       1.480   7.841  20.971  0.00  0.00    +0.000 C 
BRANCH  12  18
ATOM     14  C   UNL     1       4.123   4.264  19.542  0.00  0.00    +0.000 A 
ATOM     15  C   UNL     1       3.287   3.341  20.181  0.00  0.00    +0.000 A 
ATOM     16  C   UNL     1       2.050   3.749  20.683  0.00  0.00    +0.000 A 
ATOM     17  C   UNL     1       1.641   5.076  20.553  0.00  0.00    +0.000 A 
ATOM     18  C   UNL     1       2.463   6.011  19.912  0.00  0.00    +0.000 A 
ATOM     19  C   UNL     1       3.712   5.592  19.429  0.00  0.00    +0.000 A 
BRANCH  14  21
ATOM     20  C   UNL     1       6.086   4.608  18.252  0.00  0.00    +0.000 C 
ATOM     21  O   UNL     1       5.315   3.758  19.093  0.00  0.00    +0.000 OA
ENDBRANCH  14  21
ENDBRANCH  12  18
ENDBRANCH   1  13
TORSDOF 3
ENDMDL
MODEL 6
REMARK VINA RESULT:      -7.3      5.925      7.566
REMARK  Name = 
REMARK  4 active torsions:
REMARK  status: ('A' for Active; 'I' for Inactive)
REMARK    1  A    between atoms: C_1  and  O_2
REMARK    2  A    between atoms: O_2  and  C_3
REMARK    3  A    between atoms: C_7  and  N_8
REMARK    4  A    between atoms: C_9  and  C_10
REMARK                            x       y       z     vdW  Elec       q    Type
REMARK                         _______ _______ _______ _____ _____    ______ ____
ROOT
ATOM      1  C   UNL     1       7.231   6.992  17.758  0.00  0.00    +0.000 A 
ATOM      2  C   UNL     1       7.653   6.196  18.747  0.00  0.00    +0.000 A 
ATOM      3  O   UNL     1       7.129   4.956  19.048  0.00  0.00    +0.000 OA
ATOM      4  C   UNL     1       5.853   4.717  18.597  0.00  0.00    +0.000 A 
ATOM      5  C   UNL     1       5.122   3.711  19.220  0.00  0.00    +0.000 A 
ATOM      6  C   UNL     1       3.765   3.568  18.925  0.00  0.00    +0.000 A 
ATOM      7  C   UNL     1       3.151   4.415  17.997  0.00  0.00    +0.000 A 
ATOM      8  C   UNL     1       3.905   5.364  17.306  0.00  0.00    +0.000 A 
ATOM      9  C   UNL     1       5.261   5.499  17.603  0.00  0.00    +0.000 A 
ATOM     10  C   UNL     1       6.087   6.528  16.950  0.00  0.00    +0.000 A 
ATOM     11  O   UNL     1       5.803   7.009  15.862  0.00  0.00    +0.000 OA
ENDROOT
BRANCH   1  13
ATOM     12  N   UNL     1       8.550   8.893  18.470  0.00  0.00    +0.000 NA
ATOM     13  C   UNL     1       7.821   8.327  17.560  0.00  0.00    +0.000 C 
BRANCH  12  18
ATOM     14  C   UNL     1       8.456  12.556  17.744  0.00  0.00    +0.000 A 
ATOM     15  C   UNL     1       9.695  12.934  18.275  0.00  0.00    +0.000 A 
ATOM     16  C   UNL     1      10.545  11.972  18.821  0.00  0.00    +0.000 A 
ATOM     17  C   UNL     1      10.166  10.630  18.843  0.00  0.00    +0.000 A 
ATOM     18  C   UNL     1       8.933  10.233  18.312  0.00  0.00    +0.000 A 
ATOM     19  C   UNL     1       8.080  11.214  17.782  0.00  0.00    +0.000 A 
BRANCH  14  21
ATOM     20  C   UNL     1       7.773  14.822  17.931  0.00  0.00    +0.000 C 
ATOM     21  O   UNL     1       7.701  13.581  17.239  0.00  0.00    +0.000 OA
ENDBRANCH  14  21
ENDBRANCH  12  18
ENDBRANCH   1  13
TORSDOF 3
ENDMDL
MODEL 7
REMARK VINA RESULT:      -7.3      5.610      8.189
REMARK  Name = 
REMARK  4 active torsions:
REMARK  status: ('A' for Active; 'I' for Inactive)
REMARK    1  A    between atoms: C_1  and  O_2
REMARK    2  A    between atoms: O_2  and  C_3
REMARK    3  A    between atoms: C_7  and  N_8
REMARK    4  A    between atoms: C_9  and  C_10
REMARK                            x       y       z     vdW  Elec       q    Type
REMARK                         _______ _______ _______ _____ _____    ______ ____
ROOT
ATOM      1  C   UNL     1       0.858   9.283  20.656  0.00  0.00    +0.000 A 
ATOM      2  C   UNL     1       0.416   9.946  19.581  0.00  0.00    +0.000 A 
ATOM      3  O   UNL     1      -0.243  11.157  19.609  0.00  0.00    +0.000 OA
ATOM      4  C   UNL     1      -0.850  11.484  20.798  0.00  0.00    +0.000 A 
ATOM      5  C   UNL     1      -1.867  12.432  20.769  0.00  0.00    +0.000 A 
ATOM      6  C   UNL     1      -2.635  12.648  21.915  0.00  0.00    +0.000 A 
ATOM      7  C   UNL     1      -2.369  11.933  23.088  0.00  0.00    +0.000 A 
ATOM      8  C   UNL     1      -1.290  11.050  23.143  0.00  0.00    +0.000 A 
ATOM      9  C   UNL     1      -0.526  10.841  21.994  0.00  0.00    +0.000 A 
ATOM     10  C   UNL     1       0.582   9.872  21.980  0.00  0.00    +0.000 A 
ATOM     11  O   UNL     1       1.171   9.530  22.996  0.00  0.00    +0.000 OA
ENDROOT
BRANCH   1  13
ATOM     12  N   UNL     1       2.188   7.646  19.469  0.00  0.00    +0.000 NA
ATOM     13  C   UNL     1       1.498   7.964  20.519  0.00  0.00    +0.000 C 
BRANCH  12  18
ATOM     14  C   UNL     1       2.861   4.022  20.077  0.00  0.00    +0.000 A 
ATOM     15  C   UNL     1       3.265   3.637  18.793  0.00  0.00    +0.000 A 
ATOM     16  C   UNL     1       3.343   4.585  17.772  0.00  0.00    +0.000 A 
ATOM     17  C   UNL     1       3.019   5.918  18.023  0.00  0.00    +0.000 A 
ATOM     18  C   UNL     1       2.619   6.321  19.302  0.00  0.00    +0.000 A 
ATOM     19  C   UNL     1       2.526   5.354  20.316  0.00  0.00    +0.000 A 
BRANCH  14  21
ATOM     20  C   UNL     1       1.535   2.709  21.544  0.00  0.00    +0.000 C 
ATOM     21  O   UNL     1       2.815   3.011  21.001  0.00  0.00    +0.000 OA
ENDBRANCH  14  21
ENDBRANCH  12  18
ENDBRANCH   1  13
TORSDOF 3
ENDMDL
MODEL 8
REMARK VINA RESULT:      -7.2      6.114      7.957
REMARK  Name = 
REMARK  4 active torsions:
REMARK  status: ('A' for Active; 'I' for Inactive)
REMARK    1  A    between atoms: C_1  and  O_2
REMARK    2  A    between atoms: O_2  and  C_3
REMARK    3  A    between atoms: C_7  and  N_8
REMARK    4  A    between atoms: C_9  and  C_10
REMARK                            x       y       z     vdW  Elec       q    Type
REMARK                         _______ _______ _______ _____ _____    ______ ____
ROOT
ATOM      1  C   UNL     1       7.568   6.787  18.175  0.00  0.00    +0.000 A 
ATOM      2  C   UNL     1       7.365   6.272  19.394  0.00  0.00    +0.000 A 
ATOM      3  O   UNL     1       6.769   5.056  19.654  0.00  0.00    +0.000 OA
ATOM      4  C   UNL     1       5.968   4.554  18.657  0.00  0.00    +0.000 A 
ATOM      5  C   UNL     1       5.018   3.600  19.005  0.00  0.00    +0.000 A 
ATOM      6  C   UNL     1       4.062   3.210  18.066  0.00  0.00    +0.000 A 
ATOM      7  C   UNL     1       4.072   3.759  16.779  0.00  0.00    +0.000 A 
ATOM      8  C   UNL     1       5.080   4.647  16.402  0.00  0.00    +0.000 A 
ATOM      9  C   UNL     1       6.033   5.029  17.346  0.00  0.00    +0.000 A 
ATOM     10  C   UNL     1       7.079   6.013  17.019  0.00  0.00    +0.000 A 
ATOM     11  O   UNL     1       7.453   6.222  15.873  0.00  0.00    +0.000 OA
ENDROOT
BRANCH   1  13
ATOM     12  N   UNL     1       8.717   8.752  18.999  0.00  0.00    +0.000 NA
ATOM     13  C   UNL     1       8.161   8.125  18.010  0.00  0.00    +0.000 C 
BRANCH  12  18
ATOM     14  C   UNL     1      10.605  11.966  19.243  0.00  0.00    +0.000 A 
ATOM     15  C   UNL     1       9.942  12.706  18.257  0.00  0.00    +0.000 A 
ATOM     16  C   UNL     1       8.868  12.144  17.566  0.00  0.00    +0.000 A 
ATOM     17  C   UNL     1       8.450  10.845  17.851  0.00  0.00    +0.000 A 
ATOM     18  C   UNL     1       9.098  10.093  18.839  0.00  0.00    +0.000 A 
ATOM     19  C   UNL     1      10.190  10.663  19.513  0.00  0.00    +0.000 A 
BRANCH  14  21
ATOM     20  C   UNL     1      11.673  14.029  19.733  0.00  0.00    +0.000 C 
ATOM     21  O   UNL     1      11.648  12.612  19.854  0.00  0.00    +0.000 OA
ENDBRANCH  14  21
ENDBRANCH  12  18
ENDBRANCH   1  13
TORSDOF 3
ENDMDL
MODEL 9
REMARK VINA RESULT:      -7.1      5.457      7.297
REMARK  Name = 
REMARK  4 active torsions:
REMARK  status: ('A' for Active; 'I' for Inactive)
REMARK    1  A    between atoms: C_1  and  O_2
REMARK    2  A    between atoms: O_2  and  C_3
REMARK    3  A    between atoms: C_7  and  N_8
REMARK    4  A    between atoms: C_9  and  C_10
REMARK                            x       y       z     vdW  Elec       q    Type
REMARK                         _______ _______ _______ _____ _____    ______ ____
ROOT
ATOM      1  C   UNL     1       1.095   9.380  20.151  0.00  0.00    +0.000 A 
ATOM      2  C   UNL     1       0.507  10.145  19.223  0.00  0.00    +0.000 A 
ATOM      3  O   UNL     1      -0.206  11.298  19.478  0.00  0.00    +0.000 OA
ATOM      4  C   UNL     1      -0.696  11.431  20.755  0.00  0.00    +0.000 A 
ATOM      5  C   UNL     1      -1.758  12.307  20.955  0.00  0.00    +0.000 A 
ATOM      6  C   UNL     1      -2.407  12.326  22.190  0.00  0.00    +0.000 A 
ATOM      7  C   UNL     1      -1.981  11.486  23.225  0.00  0.00    +0.000 A 
ATOM      8  C   UNL     1      -0.859  10.675  23.053  0.00  0.00    +0.000 A 
ATOM      9  C   UNL     1      -0.214  10.663  21.816  0.00  0.00    +0.000 A 
ATOM     10  C   UNL     1       0.934   9.776  21.562  0.00  0.00    +0.000 A 
ATOM     11  O   UNL     1       1.646   9.347  22.459  0.00  0.00    +0.000 OA
ENDROOT
BRANCH   1  13
ATOM     12  N   UNL     1       2.352   7.988  18.620  0.00  0.00    +0.000 NA
ATOM     13  C   UNL     1       1.782   8.133  19.775  0.00  0.00    +0.000 C 
BRANCH  12  18
ATOM     14  C   UNL     1       2.495   4.372  17.693  0.00  0.00    +0.000 A 
ATOM     15  C   UNL     1       3.811   4.301  17.220  0.00  0.00    +0.000 A 
ATOM     16  C   UNL     1       4.628   5.431  17.255  0.00  0.00    +0.000 A 
ATOM     17  C   UNL     1       4.140   6.637  17.758  0.00  0.00    +0.000 A 
ATOM     18  C   UNL     1       2.829   6.724  18.240  0.00  0.00    +0.000 A 
ATOM     19  C   UNL     1       2.011   5.585  18.182  0.00  0.00    +0.000 A 
BRANCH  14  21
ATOM     20  C   UNL     1       2.461   2.017  17.991  0.00  0.00    +0.000 C 
ATOM     21  O   UNL     1       1.780   3.206  17.608  0.00  0.00    +0.000 OA
ENDBRANCH  14  21
ENDBRANCH  12  18
ENDBRANCH   1  13
TORSDOF 3
ENDMDL
