MODEL 1
REMARK VINA RESULT:      -8.0      0.000      0.000
REMARK  Name = 
REMARK  9 active torsions:
REMARK  status: ('A' for Active; 'I' for Inactive)
REMARK    1  A    between atoms: C_1  and  C_2
REMARK    2  A    between atoms: C_5  and  O_6
REMARK    3  A    between atoms: O_6  and  C_7
REMARK    4  A    between atoms: C_7  and  C_9
REMARK    5  A    between atoms: C_10  and  C_11
REMARK    6  A    between atoms: C_14  and  O_15
REMARK    7  A    between atoms: C_18  and  C_19
REMARK    8  A    between atoms: C_19  and  C_20
REMARK    9  A    between atoms: C_19  and  C_21
REMARK                            x       y       z     vdW  Elec       q    Type
REMARK                         _______ _______ _______ _____ _____    ______ ____
ROOT
ATOM      1  C   UNL     1       7.426   7.512  17.665  0.00  0.00    +0.000 C 
ATOM      2  O   UNL     1       7.908   6.552  18.254  0.00  0.00    +0.000 OA
ENDROOT
BRANCH   1   3
ATOM      3  C   UNL     1       7.940   8.899  17.801  0.00  0.00    +0.000 C 
ATOM      4  C   UNL     1       8.773   9.196  18.814  0.00  0.00    +0.000 C 
BRANCH   4   5
ATOM      5  C   UNL     1       9.455  10.483  19.018  0.00  0.00    +0.000 A 
ATOM      6  C   UNL     1       9.617  10.991  20.318  0.00  0.00    +0.000 A 
ATOM      7  C   UNL     1      10.393  12.133  20.552  0.00  0.00    +0.000 A 
ATOM      8  C   UNL     1      11.016  12.767  19.482  0.00  0.00    +0.000 A 
ATOM      9  C   UNL     1      10.855  12.290  18.189  0.00  0.00    +0.000 A 
ATOM     10  C   UNL     1      10.080  11.151  17.958  0.00  0.00    +0.000 A 
BRANCH   8  11
ATOM     11  O   UNL     1      11.815  13.855  19.660  0.00  0.00    +0.000 OA
ATOM     12  H   UNL     1      12.170  13.840  20.564  0.00  0.00    +0.000 HD
ENDBRANCH   8  11
ENDBRANCH   4   5
ENDBRANCH   1   3
BRANCH   1  13
ATOM     13  O   UNL     1       6.339   7.511  16.792  0.00  0.00    +0.000 OA
BRANCH  13  18
ATOM     14  C   UNL     1       1.882   4.083  17.841  0.00  0.00    +0.000 C 
ATOM     15  C   UNL     1       3.059   4.975  17.582  0.00  0.00    +0.000 A 
ATOM     16  C   UNL     1       3.200   6.184  18.259  0.00  0.00    +0.000 A 
ATOM     17  C   UNL     1       4.290   7.009  17.997  0.00  0.00    +0.000 A 
ATOM     18  C   UNL     1       5.270   6.622  17.072  0.00  0.00    +0.000 A 
ATOM     19  C   UNL     1       5.144   5.417  16.348  0.00  0.00    +0.000 A 
ATOM     20  C   UNL     1       4.028   4.603  16.636  0.00  0.00    +0.000 A 
BRANCH  19  21
ATOM     21  C   UNL     1       6.187   4.963  15.335  0.00  0.00    +0.000 C 
ATOM     22  C   UNL     1       7.288   4.159  16.034  0.00  0.00    +0.000 C 
ATOM     23  C   UNL     1       5.620   4.129  14.171  0.00  0.00    +0.000 C 
ENDBRANCH  19  21
ENDBRANCH  13  18
ENDBRANCH   1  13
TORSDOF 6
ENDMDL
MODEL 2
REMARK VINA RESULT:      -7.6      3.995      6.761
REMARK  Name = 
REMARK  9 active torsions:
REMARK  status: ('A' for Active; 'I' for Inactive)
REMARK    1  A    between atoms: C_1  and  C_2
REMARK    2  A    between atoms: C_5  and  O_6
REMARK    3  A    between atoms: O_6  and  C_7
REMARK    4  A    between atoms: C_7  and  C_9
REMARK    5  A    between atoms: C_10  and  C_11
REMARK    6  A    between atoms: C_14  and  O_15
REMARK    7  A    between atoms: C_18  and  C_19
REMARK    8  A    between atoms: C_19  and  C_20
REMARK    9  A    between atoms: C_19  and  C_21
REMARK                            x       y       z     vdW  Elec       q    Type
REMARK                         _______ _______ _______ _____ _____    ______ ____
ROOT
ATOM      1  C   UNL     1       3.858   3.986  19.010  0.00  0.00    +0.000 C 
ATOM      2  O   UNL     1       3.327   2.945  19.375  0.00  0.00    +0.000 OA
ENDROOT
BRANCH   1   3
ATOM      3  C   UNL     1       3.098   5.207  18.637  0.00  0.00    +0.000 C 
ATOM      4  C   UNL     1       2.982   6.207  19.529  0.00  0.00    +0.000 C 
BRANCH   4   5
ATOM      5  C   UNL     1       2.366   7.518  19.275  0.00  0.00    +0.000 A 
ATOM      6  C   UNL     1       2.414   8.075  17.986  0.00  0.00    +0.000 A 
ATOM      7  C   UNL     1       1.706   9.245  17.682  0.00  0.00    +0.000 A 
ATOM      8  C   UNL     1       0.941   9.857  18.670  0.00  0.00    +0.000 A 
ATOM      9  C   UNL     1       0.894   9.331  19.953  0.00  0.00    +0.000 A 
ATOM     10  C   UNL     1       1.601   8.165  20.254  0.00  0.00    +0.000 A 
BRANCH   8  11
ATOM     11  O   UNL     1       0.200  10.972  18.416  0.00  0.00    +0.000 OA
ATOM     12  H   UNL     1       0.532  11.391  17.605  0.00  0.00    +0.000 HD
ENDBRANCH   8  11
ENDBRANCH   4   5
ENDBRANCH   1   3
BRANCH   1  13
ATOM     13  O   UNL     1       5.222   4.234  18.863  0.00  0.00    +0.000 OA
BRANCH  13  18
ATOM     14  C   UNL     1       7.043   4.872  13.478  0.00  0.00    +0.000 C 
ATOM     15  C   UNL     1       6.580   4.691  14.892  0.00  0.00    +0.000 A 
ATOM     16  C   UNL     1       5.748   3.628  15.240  0.00  0.00    +0.000 A 
ATOM     17  C   UNL     1       5.313   3.482  16.554  0.00  0.00    +0.000 A 
ATOM     18  C   UNL     1       5.726   4.384  17.545  0.00  0.00    +0.000 A 
ATOM     19  C   UNL     1       6.545   5.487  17.223  0.00  0.00    +0.000 A 
ATOM     20  C   UNL     1       6.969   5.608  15.882  0.00  0.00    +0.000 A 
BRANCH  19  21
ATOM     21  C   UNL     1       7.015   6.487  18.271  0.00  0.00    +0.000 C 
ATOM     22  C   UNL     1       7.999   5.820  19.235  0.00  0.00    +0.000 C 
ATOM     23  C   UNL     1       7.664   7.757  17.690  0.00  0.00    +0.000 C 
ENDBRANCH  19  21
ENDBRANCH  13  18
ENDBRANCH   1  13
TORSDOF 6
ENDMDL
MODEL 3
REMARK VINA RESULT:      -7.4      3.914      6.576
REMARK  Name = 
REMARK  9 active torsions:
REMARK  status: ('A' for Active; 'I' for Inactive)
REMARK    1  A    between atoms: C_1  and  C_2
REMARK    2  A    between atoms: C_5  and  O_6
REMARK    3  A    between atoms: O_6  and  C_7
REMARK    4  A    between atoms: C_7  and  C_9
REMARK    5  A    between atoms: C_10  and  C_11
REMARK    6  A    between atoms: C_14  and  O_15
REMARK    7  A    between atoms: C_18  and  C_19
REMARK    8  A    between atoms: C_19  and  C_20
REMARK    9  A    between atoms: C_19  and  C_21
REMARK                            x       y       z     vdW  Elec       q    Type
REMARK                         _______ _______ _______ _____ _____    ______ ____
ROOT
ATOM      1  C   UNL     1       4.131   4.152  19.269  0.00  0.00    +0.000 C 
ATOM      2  O   UNL     1       3.530   3.232  19.809  0.00  0.00    +0.000 OA
ENDROOT
BRANCH   1   3
ATOM      3  C   UNL     1       3.466   5.374  18.750  0.00  0.00    +0.000 C 
ATOM      4  C   UNL     1       2.781   6.162  19.599  0.00  0.00    +0.000 C 
BRANCH   4   5
ATOM      5  C   UNL     1       2.168   7.457  19.266  0.00  0.00    +0.000 A 
ATOM      6  C   UNL     1       1.512   8.197  20.263  0.00  0.00    +0.000 A 
ATOM      7  C   UNL     1       1.054   9.497  20.010  0.00  0.00    +0.000 A 
ATOM      8  C   UNL     1       1.262  10.061  18.757  0.00  0.00    +0.000 A 
ATOM      9  C   UNL     1       1.895   9.341  17.754  0.00  0.00    +0.000 A 
ATOM     10  C   UNL     1       2.349   8.045  18.008  0.00  0.00    +0.000 A 
BRANCH   8  11
ATOM     11  O   UNL     1       0.876  11.337  18.472  0.00  0.00    +0.000 OA
ATOM     12  H   UNL     1       1.660  11.856  18.229  0.00  0.00    +0.000 HD
ENDBRANCH   8  11
ENDBRANCH   4   5
ENDBRANCH   1   3
BRANCH   1  13
ATOM     13  O   UNL     1       5.502   4.242  19.029  0.00  0.00    +0.000 OA
BRANCH  13  18
ATOM     14  C   UNL     1       6.997   4.864  13.543  0.00  0.00    +0.000 C 
ATOM     15  C   UNL     1       6.619   4.688  14.983  0.00  0.00    +0.000 A 
ATOM     16  C   UNL     1       5.857   3.596  15.393  0.00  0.00    +0.000 A 
ATOM     17  C   UNL     1       5.501   3.454  16.730  0.00  0.00    +0.000 A 
ATOM     18  C   UNL     1       5.926   4.390  17.683  0.00  0.00    +0.000 A 
ATOM     19  C   UNL     1       6.676   5.522  17.300  0.00  0.00    +0.000 A 
ATOM     20  C   UNL     1       7.020   5.638  15.936  0.00  0.00    +0.000 A 
BRANCH  19  21
ATOM     21  C   UNL     1       7.157   6.560  18.305  0.00  0.00    +0.000 C 
ATOM     22  C   UNL     1       8.144   5.926  19.290  0.00  0.00    +0.000 C 
ATOM     23  C   UNL     1       7.810   7.803  17.672  0.00  0.00    +0.000 C 
ENDBRANCH  19  21
ENDBRANCH  13  18
ENDBRANCH   1  13
TORSDOF 6
ENDMDL
MODEL 4
REMARK VINA RESULT:      -7.3      0.785      1.118
REMARK  Name = 
REMARK  9 active torsions:
REMARK  status: ('A' for Active; 'I' for Inactive)
REMARK    1  A    between atoms: C_1  and  C_2
REMARK    2  A    between atoms: C_5  and  O_6
REMARK    3  A    between atoms: O_6  and  C_7
REMARK    4  A    between atoms: C_7  and  C_9
REMARK    5  A    between atoms: C_10  and  C_11
REMARK    6  A    between atoms: C_14  and  O_15
REMARK    7  A    between atoms: C_18  and  C_19
REMARK    8  A    between atoms: C_19  and  C_20
REMARK    9  A    between atoms: C_19  and  C_21
REMARK                            x       y       z     vdW  Elec       q    Type
REMARK                         _______ _______ _______ _____ _____    ______ ____
ROOT
ATOM      1  C   UNL     1       7.529   7.463  17.752  0.00  0.00    +0.000 C 
ATOM      2  O   UNL     1       7.981   6.678  18.577  0.00  0.00    +0.000 OA
ENDROOT
BRANCH   1   3
ATOM      3  C   UNL     1       7.887   8.904  17.709  0.00  0.00    +0.000 C 
ATOM      4  C   UNL     1       8.704   9.407  18.651  0.00  0.00    +0.000 C 
BRANCH   4   5
ATOM      5  C   UNL     1       9.241  10.776  18.682  0.00  0.00    +0.000 A 
ATOM      6  C   UNL     1      10.321  11.085  19.526  0.00  0.00    +0.000 A 
ATOM      7  C   UNL     1      10.948  12.336  19.462  0.00  0.00    +0.000 A 
ATOM      8  C   UNL     1      10.498  13.279  18.544  0.00  0.00    +0.000 A 
ATOM      9  C   UNL     1       9.424  12.999  17.712  0.00  0.00    +0.000 A 
ATOM     10  C   UNL     1       8.800  11.751  17.778  0.00  0.00    +0.000 A 
BRANCH   8  11
ATOM     11  O   UNL     1      11.100  14.495  18.412  0.00  0.00    +0.000 OA
ATOM     12  H   UNL     1      10.929  15.019  19.212  0.00  0.00    +0.000 HD
ENDBRANCH   8  11
ENDBRANCH   4   5
ENDBRANCH   1   3
BRANCH   1  13
ATOM     13  O   UNL     1       6.620   7.188  16.732  0.00  0.00    +0.000 OA
BRANCH  13  18
ATOM     14  C   UNL     1       1.670   4.623  18.013  0.00  0.00    +0.000 C 
ATOM     15  C   UNL     1       2.974   5.292  17.695  0.00  0.00    +0.000 A 
ATOM     16  C   UNL     1       3.211   6.610  18.080  0.00  0.00    +0.000 A 
ATOM     17  C   UNL     1       4.420   7.222  17.765  0.00  0.00    +0.000 A 
ATOM     18  C   UNL     1       5.420   6.515  17.083  0.00  0.00    +0.000 A 
ATOM     19  C   UNL     1       5.203   5.189  16.654  0.00  0.00    +0.000 A 
ATOM     20  C   UNL     1       3.967   4.595  16.988  0.00  0.00    +0.000 A 
BRANCH  19  21
ATOM     21  C   UNL     1       6.264   4.388  15.911  0.00  0.00    +0.000 C 
ATOM     22  C   UNL     1       6.525   5.005  14.534  0.00  0.00    +0.000 C 
ATOM     23  C   UNL     1       7.602   4.256  16.662  0.00  0.00    +0.000 C 
ENDBRANCH  19  21
ENDBRANCH  13  18
ENDBRANCH   1  13
TORSDOF 6
ENDMDL
MODEL 5
REMARK VINA RESULT:      -7.2      3.970      6.725
REMARK  Name = 
REMARK  9 active torsions:
REMARK  status: ('A' for Active; 'I' for Inactive)
REMARK    1  A    between atoms: C_1  and  C_2
REMARK    2  A    between atoms: C_5  and  O_6
REMARK    3  A    between atoms: O_6  and  C_7
REMARK    4  A    between atoms: C_7  and  C_9
REMARK    5  A    between atoms: C_10  and  C_11
REMARK    6  A    between atoms: C_14  and  O_15
REMARK    7  A    between atoms: C_18  and  C_19
REMARK    8  A    between atoms: C_19  and  C_20
REMARK    9  A    between atoms: C_19  and  C_21
REMARK                            x       y       z     vdW  Elec       q    Type
REMARK                         _______ _______ _______ _____ _____    ______ ____
ROOT
ATOM      1  C   UNL     1       3.692   4.102  17.860  0.00  0.00    +0.000 C 
ATOM      2  O   UNL     1       3.001   3.287  17.262  0.00  0.00    +0.000 OA
ENDROOT
BRANCH   1   3
ATOM      3  C   UNL     1       3.133   5.244  18.627  0.00  0.00    +0.000 C 
ATOM      4  C   UNL     1       2.798   6.373  17.977  0.00  0.00    +0.000 C 
BRANCH   4   5
ATOM      5  C   UNL     1       2.130   7.542  18.570  0.00  0.00    +0.000 A 
ATOM      6  C   UNL     1       1.881   7.578  19.952  0.00  0.00    +0.000 A 
ATOM      7  C   UNL     1       1.388   8.738  20.563  0.00  0.00    +0.000 A 
ATOM      8  C   UNL     1       1.150   9.869  19.790  0.00  0.00    +0.000 A 
ATOM      9  C   UNL     1       1.376   9.848  18.420  0.00  0.00    +0.000 A 
ATOM     10  C   UNL     1       1.867   8.690  17.813  0.00  0.00    +0.000 A 
BRANCH   8  11
ATOM     11  O   UNL     1       0.712  11.035  20.341  0.00  0.00    +0.000 OA
ATOM     12  H   UNL     1       0.592  11.691  19.634  0.00  0.00    +0.000 HD
ENDBRANCH   8  11
ENDBRANCH   4   5
ENDBRANCH   1   3
BRANCH   1  13
ATOM     13  O   UNL     1       5.083   4.137  17.938  0.00  0.00    +0.000 OA
BRANCH  13  18
ATOM     14  C   UNL     1       7.789   5.245  13.022  0.00  0.00    +0.000 C 
ATOM     15  C   UNL     1       7.093   4.940  14.314  0.00  0.00    +0.000 A 
ATOM     16  C   UNL     1       6.226   3.855  14.419  0.00  0.00    +0.000 A 
ATOM     17  C   UNL     1       5.576   3.594  15.621  0.00  0.00    +0.000 A 
ATOM     18  C   UNL     1       5.803   4.401  16.744  0.00  0.00    +0.000 A 
ATOM     19  C   UNL     1       6.653   5.525  16.666  0.00  0.00    +0.000 A 
ATOM     20  C   UNL     1       7.298   5.764  15.434  0.00  0.00    +0.000 A 
BRANCH  19  21
ATOM     21  C   UNL     1       6.926   6.426  17.863  0.00  0.00    +0.000 C 
ATOM     22  C   UNL     1       7.742   5.672  18.917  0.00  0.00    +0.000 C 
ATOM     23  C   UNL     1       7.647   7.742  17.517  0.00  0.00    +0.000 C 
ENDBRANCH  19  21
ENDBRANCH  13  18
ENDBRANCH   1  13
TORSDOF 6
ENDMDL
MODEL 6
REMARK VINA RESULT:      -7.2      1.036      2.616
REMARK  Name = 
REMARK  9 active torsions:
REMARK  status: ('A' for Active; 'I' for Inactive)
REMARK    1  A    between atoms: C_1  and  C_2
REMARK    2  A    between atoms: C_5  and  O_6
REMARK    3  A    between atoms: O_6  and  C_7
REMARK    4  A    between atoms: C_7  and  C_9
REMARK    5  A    between atoms: C_10  and  C_11
REMARK    6  A    between atoms: C_14  and  O_15
REMARK    7  A    between atoms: C_18  and  C_19
REMARK    8  A    between atoms: C_19  and  C_20
REMARK    9  A    between atoms: C_19  and  C_21
REMARK                            x       y       z     vdW  Elec       q    Type
REMARK                         _______ _______ _______ _____ _____    ______ ____
ROOT
ATOM      1  C   UNL     1       7.059   7.200  17.465  0.00  0.00    +0.000 C 
ATOM      2  O   UNL     1       7.667   6.245  17.931  0.00  0.00    +0.000 OA
ENDROOT
BRANCH   1   3
ATOM      3  C   UNL     1       7.513   8.608  17.601  0.00  0.00    +0.000 C 
ATOM      4  C   UNL     1       8.379   8.928  18.579  0.00  0.00    +0.000 C 
BRANCH   4   5
ATOM      5  C   UNL     1       9.009  10.243  18.773  0.00  0.00    +0.000 A 
ATOM      6  C   UNL     1       9.827  10.468  19.893  0.00  0.00    +0.000 A 
ATOM      7  C   UNL     1      10.558  11.656  20.022  0.00  0.00    +0.000 A 
ATOM      8  C   UNL     1      10.477  12.620  19.023  0.00  0.00    +0.000 A 
ATOM      9  C   UNL     1       9.662  12.423  17.916  0.00  0.00    +0.000 A 
ATOM     10  C   UNL     1       8.934  11.238  17.790  0.00  0.00    +0.000 A 
BRANCH   8  11
ATOM     11  O   UNL     1      11.200  13.773  19.078  0.00  0.00    +0.000 OA
ATOM     12  H   UNL     1      10.631  14.485  19.416  0.00  0.00    +0.000 HD
ENDBRANCH   8  11
ENDBRANCH   4   5
ENDBRANCH   1   3
BRANCH   1  13
ATOM     13  O   UNL     1       5.863   7.174  16.749  0.00  0.00    +0.000 OA
BRANCH  13  18
ATOM     14  C   UNL     1       2.731   2.427  17.370  0.00  0.00    +0.000 C 
ATOM     15  C   UNL     1       3.544   3.675  17.190  0.00  0.00    +0.000 A 
ATOM     16  C   UNL     1       4.686   3.673  16.392  0.00  0.00    +0.000 A 
ATOM     17  C   UNL     1       5.438   4.835  16.247  0.00  0.00    +0.000 A 
ATOM     18  C   UNL     1       5.043   6.023  16.878  0.00  0.00    +0.000 A 
ATOM     19  C   UNL     1       3.908   6.053  17.715  0.00  0.00    +0.000 A 
ATOM     20  C   UNL     1       3.166   4.860  17.843  0.00  0.00    +0.000 A 
BRANCH  19  21
ATOM     21  C   UNL     1       3.447   7.324  18.418  0.00  0.00    +0.000 C 
ATOM     22  C   UNL     1       2.698   8.229  17.436  0.00  0.00    +0.000 C 
ATOM     23  C   UNL     1       2.559   7.080  19.652  0.00  0.00    +0.000 C 
ENDBRANCH  19  21
ENDBRANCH  13  18
ENDBRANCH   1  13
TORSDOF 6
ENDMDL
MODEL 7
REMARK VINA RESULT:      -7.1      1.112      3.147
REMARK  Name = 
REMARK  9 active torsions:
REMARK  status: ('A' for Active; 'I' for Inactive)
REMARK    1  A    between atoms: C_1  and  C_2
REMARK    2  A    between atoms: C_5  and  O_6
REMARK    3  A    between atoms: O_6  and  C_7
REMARK    4  A    between atoms: C_7  and  C_9
REMARK    5  A    between atoms: C_10  and  C_11
REMARK    6  A    between atoms: C_14  and  O_15
REMARK    7  A    between atoms: C_18  and  C_19
REMARK    8  A    between atoms: C_19  and  C_20
REMARK    9  A    between atoms: C_19  and  C_21
REMARK                            x       y       z     vdW  Elec       q    Type
REMARK                         _______ _______ _______ _____ _____    ______ ____
ROOT
ATOM      1  C   UNL     1       6.940   7.218  17.481  0.00  0.00    +0.000 C 
ATOM      2  O   UNL     1       5.860   7.741  17.236  0.00  0.00    +0.000 OA
ENDROOT
BRANCH   1   3
ATOM      3  C   UNL     1       8.093   7.950  18.064  0.00  0.00    +0.000 C 
ATOM      4  C   UNL     1       8.186   9.280  17.884  0.00  0.00    +0.000 C 
BRANCH   4   5
ATOM      5  C   UNL     1       9.197  10.160  18.491  0.00  0.00    +0.000 A 
ATOM      6  C   UNL     1      10.031  10.937  17.669  0.00  0.00    +0.000 A 
ATOM      7  C   UNL     1      10.894  11.894  18.220  0.00  0.00    +0.000 A 
ATOM      8  C   UNL     1      10.917  12.079  19.598  0.00  0.00    +0.000 A 
ATOM      9  C   UNL     1      10.112  11.311  20.427  0.00  0.00    +0.000 A 
ATOM     10  C   UNL     1       9.253  10.358  19.876  0.00  0.00    +0.000 A 
BRANCH   8  11
ATOM     11  O   UNL     1      11.705  13.025  20.181  0.00  0.00    +0.000 OA
ATOM     12  H   UNL     1      11.163  13.806  20.382  0.00  0.00    +0.000 HD
ENDBRANCH   8  11
ENDBRANCH   4   5
ENDBRANCH   1   3
BRANCH   1  13
ATOM     13  O   UNL     1       7.304   5.889  17.266  0.00  0.00    +0.000 OA
BRANCH  13  18
ATOM     14  C   UNL     1       5.620   3.231  12.490  0.00  0.00    +0.000 C 
ATOM     15  C   UNL     1       6.053   3.945  13.735  0.00  0.00    +0.000 A 
ATOM     16  C   UNL     1       7.190   4.750  13.737  0.00  0.00    +0.000 A 
ATOM     17  C   UNL     1       7.589   5.393  14.904  0.00  0.00    +0.000 A 
ATOM     18  C   UNL     1       6.839   5.261  16.082  0.00  0.00    +0.000 A 
ATOM     19  C   UNL     1       5.699   4.432  16.123  0.00  0.00    +0.000 A 
ATOM     20  C   UNL     1       5.320   3.792  14.924  0.00  0.00    +0.000 A 
BRANCH  19  21
ATOM     21  C   UNL     1       4.859   4.263  17.383  0.00  0.00    +0.000 C 
ATOM     22  C   UNL     1       3.774   5.342  17.444  0.00  0.00    +0.000 C 
ATOM     23  C   UNL     1       4.197   2.879  17.524  0.00  0.00    +0.000 C 
ENDBRANCH  19  21
ENDBRANCH  13  18
ENDBRANCH   1  13
TORSDOF 6
ENDMDL
MODEL 8
REMARK VINA RESULT:      -7.1      1.278      2.979
REMARK  Name = 
REMARK  9 active torsions:
REMARK  status: ('A' for Active; 'I' for Inactive)
REMARK    1  A    between atoms: C_1  and  C_2
REMARK    2  A    between atoms: C_5  and  O_6
REMARK    3  A    between atoms: O_6  and  C_7
REMARK    4  A    between atoms: C_7  and  C_9
REMARK    5  A    between atoms: C_10  and  C_11
REMARK    6  A    between atoms: C_14  and  O_15
REMARK    7  A    between atoms: C_18  and  C_19
REMARK    8  A    between atoms: C_19  and  C_20
REMARK    9  A    between atoms: C_19  and  C_21
REMARK                            x       y       z     vdW  Elec       q    Type
REMARK                         _______ _______ _______ _____ _____    ______ ____
ROOT
ATOM      1  C   UNL     1       7.068   7.096  17.184  0.00  0.00    +0.000 C 
ATOM      2  O   UNL     1       7.470   6.394  16.265  0.00  0.00    +0.000 OA
ENDROOT
BRANCH   1   3
ATOM      3  C   UNL     1       7.963   7.910  18.046  0.00  0.00    +0.000 C 
ATOM      4  C   UNL     1       8.254   9.173  17.687  0.00  0.00    +0.000 C 
BRANCH   4   5
ATOM      5  C   UNL     1       9.024  10.139  18.485  0.00  0.00    +0.000 A 
ATOM      6  C   UNL     1       9.697  11.194  17.847  0.00  0.00    +0.000 A 
ATOM      7  C   UNL     1      10.309  12.211  18.592  0.00  0.00    +0.000 A 
ATOM      8  C   UNL     1      10.241  12.176  19.980  0.00  0.00    +0.000 A 
ATOM      9  C   UNL     1       9.594  11.133  20.629  0.00  0.00    +0.000 A 
ATOM     10  C   UNL     1       8.986  10.120  19.885  0.00  0.00    +0.000 A 
BRANCH   8  11
ATOM     11  O   UNL     1      10.781  13.161  20.750  0.00  0.00    +0.000 OA
ATOM     12  H   UNL     1      10.482  13.044  21.666  0.00  0.00    +0.000 HD
ENDBRANCH   8  11
ENDBRANCH   4   5
ENDBRANCH   1   3
BRANCH   1  13
ATOM     13  O   UNL     1       5.750   7.267  17.605  0.00  0.00    +0.000 OA
BRANCH  13  18
ATOM     14  C   UNL     1       2.411   2.624  17.486  0.00  0.00    +0.000 C 
ATOM     15  C   UNL     1       3.282   3.845  17.498  0.00  0.00    +0.000 A 
ATOM     16  C   UNL     1       4.576   3.803  16.983  0.00  0.00    +0.000 A 
ATOM     17  C   UNL     1       5.378   4.939  17.015  0.00  0.00    +0.000 A 
ATOM     18  C   UNL     1       4.887   6.143  17.540  0.00  0.00    +0.000 A 
ATOM     19  C   UNL     1       3.592   6.213  18.096  0.00  0.00    +0.000 A 
ATOM     20  C   UNL     1       2.803   5.045  18.049  0.00  0.00    +0.000 A 
BRANCH  19  21
ATOM     21  C   UNL     1       3.023   7.502  18.675  0.00  0.00    +0.000 C 
ATOM     22  C   UNL     1       2.245   8.267  17.600  0.00  0.00    +0.000 C 
ATOM     23  C   UNL     1       2.114   7.300  19.902  0.00  0.00    +0.000 C 
ENDBRANCH  19  21
ENDBRANCH  13  18
ENDBRANCH   1  13
TORSDOF 6
ENDMDL
MODEL 9
REMARK VINA RESULT:      -7.1      1.495      2.025
REMARK  Name = 
REMARK  9 active torsions:
REMARK  status: ('A' for Active; 'I' for Inactive)
REMARK    1  A    between atoms: C_1  and  C_2
REMARK    2  A    between atoms: C_5  and  O_6
REMARK    3  A    between atoms: O_6  and  C_7
REMARK    4  A    between atoms: C_7  and  C_9
REMARK    5  A    between atoms: C_10  and  C_11
REMARK    6  A    between atoms: C_14  and  O_15
REMARK    7  A    between atoms: C_18  and  C_19
REMARK    8  A    between atoms: C_19  and  C_20
REMARK    9  A    between atoms: C_19  and  C_21
REMARK                            x       y       z     vdW  Elec       q    Type
REMARK                         _______ _______ _______ _____ _____    ______ ____
ROOT
ATOM      1  C   UNL     1       7.495   6.030  18.122  0.00  0.00    +0.000 C 
ATOM      2  O   UNL     1       8.038   4.940  17.997  0.00  0.00    +0.000 OA
ENDROOT
BRANCH   1   3
ATOM      3  C   UNL     1       8.203   7.251  18.583  0.00  0.00    +0.000 C 
ATOM      4  C   UNL     1       8.070   8.393  17.885  0.00  0.00    +0.000 C 
BRANCH   4   5
ATOM      5  C   UNL     1       8.608   9.706  18.272  0.00  0.00    +0.000 A 
ATOM      6  C   UNL     1       8.323  10.837  17.490  0.00  0.00    +0.000 A 
ATOM      7  C   UNL     1       8.694  12.119  17.917  0.00  0.00    +0.000 A 
ATOM      8  C   UNL     1       9.345  12.270  19.136  0.00  0.00    +0.000 A 
ATOM      9  C   UNL     1       9.649  11.164  19.917  0.00  0.00    +0.000 A 
ATOM     10  C   UNL     1       9.280   9.887  19.488  0.00  0.00    +0.000 A 
BRANCH   8  11
ATOM     11  O   UNL     1       9.689  13.497  19.618  0.00  0.00    +0.000 OA
ATOM     12  H   UNL     1       9.685  14.135  18.885  0.00  0.00    +0.000 HD
ENDBRANCH   8  11
ENDBRANCH   4   5
ENDBRANCH   1   3
BRANCH   1  13
ATOM     13  O   UNL     1       6.158   6.342  17.878  0.00  0.00    +0.000 OA
BRANCH  13  18
ATOM     14  C   UNL     1       2.161   2.301  18.522  0.00  0.00    +0.000 C 
ATOM     15  C   UNL     1       3.223   3.347  18.357  0.00  0.00    +0.000 A 
ATOM     16  C   UNL     1       3.766   3.992  19.466  0.00  0.00    +0.000 A 
ATOM     17  C   UNL     1       4.739   4.972  19.297  0.00  0.00    +0.000 A 
ATOM     18  C   UNL     1       5.203   5.302  18.016  0.00  0.00    +0.000 A 
ATOM     19  C   UNL     1       4.655   4.689  16.869  0.00  0.00    +0.000 A 
ATOM     20  C   UNL     1       3.669   3.700  17.073  0.00  0.00    +0.000 A 
BRANCH  19  21
ATOM     21  C   UNL     1       5.131   5.020  15.461  0.00  0.00    +0.000 C 
ATOM     22  C   UNL     1       5.235   6.537  15.281  0.00  0.00    +0.000 C 
ATOM     23  C   UNL     1       6.477   4.377  15.078  0.00  0.00    +0.000 C 
ENDBRANCH  19  21
ENDBRANCH  13  18
ENDBRANCH   1  13
TORSDOF 6
ENDMDL
