MODEL 1
REMARK VINA RESULT:      -8.4      0.000      0.000
REMARK  Name = 
REMARK  6 active torsions:
REMARK  status: ('A' for Active; 'I' for Inactive)
REMARK    1  A    between atoms: C_1  and  N_2
REMARK    2  A    between atoms: C_7  and  C_8
REMARK    3  A    between atoms: C_8  and  N_9
REMARK    4  A    between atoms: C_14  and  C_15
REMARK    5  A    between atoms: C_15  and  C_16
REMARK    6  A    between atoms: C_16  and  N_17
REMARK                            x       y       z     vdW  Elec       q    Type
REMARK                         _______ _______ _______ _____ _____    ______ ____
ROOT
ATOM      1  N   UNL     1       1.752   6.115  20.710  0.00  0.00    +0.000 N 
ATOM      2  C   UNL     1       1.903   4.757  20.376  0.00  0.00    +0.000 A 
ATOM      3  C   UNL     1       1.588   3.803  21.333  0.00  0.00    +0.000 A 
ATOM      4  C   UNL     1       1.703   2.452  21.011  0.00  0.00    +0.000 A 
ATOM      5  C   UNL     1       2.071   2.085  19.723  0.00  0.00    +0.000 A 
ATOM      6  C   UNL     1       2.317   3.090  18.797  0.00  0.00    +0.000 A 
ATOM      7  N   UNL     1       2.255   4.406  19.128  0.00  0.00    +0.000 NA
ATOM      8  H   UNL     1       0.760   6.329  20.626  0.00  0.00    +0.000 HD
ENDROOT
BRANCH   1   9
ATOM      9  C   UNL     1       2.539   7.017  19.862  0.00  0.00    +0.000 C 
BRANCH   9  16
ATOM     10  C   UNL     1      -0.359   9.779  22.681  0.00  0.00    +0.000 C 
ATOM     11  N   UNL     1      -0.405  10.525  21.435  0.00  0.00    +0.000 N 
ATOM     12  C   UNL     1       0.361   9.964  20.399  0.00  0.00    +0.000 A 
ATOM     13  C   UNL     1       0.351  10.594  19.158  0.00  0.00    +0.000 A 
ATOM     14  C   UNL     1       1.078  10.048  18.105  0.00  0.00    +0.000 A 
ATOM     15  C   UNL     1       1.799   8.881  18.313  0.00  0.00    +0.000 A 
ATOM     16  C   UNL     1       1.771   8.297  19.576  0.00  0.00    +0.000 A 
ATOM     17  N   UNL     1       1.057   8.827  20.604  0.00  0.00    +0.000 NA
ATOM     18  H   UNL     1      -0.126  11.494  21.558  0.00  0.00    +0.000 HD
ENDBRANCH   9  16
ENDBRANCH   1   9
BRANCH   6  19
ATOM     19  C   UNL     1       2.641   2.741  17.357  0.00  0.00    +0.000 C 
BRANCH  19  20
ATOM     20  C   UNL     1       3.990   3.325  16.934  0.00  0.00    +0.000 C 
BRANCH  20  21
ATOM     21  N   UNL     1       4.863   3.598  18.071  0.00  0.00    +0.000 N 
ATOM     22  C   UNL     1       5.700   4.708  17.948  0.00  0.00    +0.000 A 
ATOM     23  C   UNL     1       5.306   5.889  17.324  0.00  0.00    +0.000 A 
ATOM     24  C   UNL     1       6.189   6.965  17.253  0.00  0.00    +0.000 A 
ATOM     25  C   UNL     1       7.436   6.854  17.842  0.00  0.00    +0.000 A 
ATOM     26  C   UNL     1       7.747   5.658  18.463  0.00  0.00    +0.000 A 
ATOM     27  N   UNL     1       6.919   4.588  18.518  0.00  0.00    +0.000 NA
ATOM     28  H   UNL     1       5.461   2.830  18.373  0.00  0.00    +0.000 HD
ENDBRANCH  20  21
ENDBRANCH  19  20
ENDBRANCH   6  19
TORSDOF 5
ENDMDL
MODEL 2
REMARK VINA RESULT:      -7.8      1.169      1.576
REMARK  Name = 
REMARK  6 active torsions:
REMARK  status: ('A' for Active; 'I' for Inactive)
REMARK    1  A    between atoms: C_1  and  N_2
REMARK    2  A    between atoms: C_7  and  C_8
REMARK    3  A    between atoms: C_8  and  N_9
REMARK    4  A    between atoms: C_14  and  C_15
REMARK    5  A    between atoms: C_15  and  C_16
REMARK    6  A    between atoms: C_16  and  N_17
REMARK                            x       y       z     vdW  Elec       q    Type
REMARK                         _______ _______ _______ _____ _____    ______ ____
ROOT
ATOM      1  N   UNL     1       1.318   5.542  20.414  0.00  0.00    +0.000 N 
ATOM      2  C   UNL     1       1.643   4.439  19.605  0.00  0.00    +0.000 A 
ATOM      3  C   UNL     1       0.967   3.245  19.812  0.00  0.00    +0.000 A 
ATOM      4  C   UNL     1       1.255   2.149  19.002  0.00  0.00    +0.000 A 
ATOM      5  C   UNL     1       2.166   2.289  17.961  0.00  0.00    +0.000 A 
ATOM      6  C   UNL     1       2.764   3.527  17.772  0.00  0.00    +0.000 A 
ATOM      7  N   UNL     1       2.521   4.579  18.597  0.00  0.00    +0.000 NA
ATOM      8  H   UNL     1       0.459   5.939  20.037  0.00  0.00    +0.000 HD
ENDROOT
BRANCH   1   9
ATOM      9  C   UNL     1       2.370   6.564  20.461  0.00  0.00    +0.000 C 
BRANCH   9  16
ATOM     10  C   UNL     1      -0.327  10.339  22.026  0.00  0.00    +0.000 C 
ATOM     11  N   UNL     1      -0.040  10.759  20.664  0.00  0.00    +0.000 N 
ATOM     12  C   UNL     1       0.750   9.852  19.937  0.00  0.00    +0.000 A 
ATOM     13  C   UNL     1       1.048  10.156  18.612  0.00  0.00    +0.000 A 
ATOM     14  C   UNL     1       1.805   9.266  17.857  0.00  0.00    +0.000 A 
ATOM     15  C   UNL     1       2.247   8.087  18.441  0.00  0.00    +0.000 A 
ATOM     16  C   UNL     1       1.916   7.838  19.771  0.00  0.00    +0.000 A 
ATOM     17  N   UNL     1       1.173   8.706  20.507  0.00  0.00    +0.000 NA
ATOM     18  H   UNL     1       0.400  11.674  20.630  0.00  0.00    +0.000 HD
ENDBRANCH   9  16
ENDBRANCH   1   9
BRANCH   6  19
ATOM     19  C   UNL     1       3.701   3.753  16.602  0.00  0.00    +0.000 C 
BRANCH  19  20
ATOM     20  C   UNL     1       5.155   3.861  17.067  0.00  0.00    +0.000 C 
BRANCH  20  21
ATOM     21  N   UNL     1       5.900   4.883  16.339  0.00  0.00    +0.000 N 
ATOM     22  C   UNL     1       6.667   5.752  17.117  0.00  0.00    +0.000 A 
ATOM     23  C   UNL     1       7.359   5.341  18.254  0.00  0.00    +0.000 A 
ATOM     24  C   UNL     1       8.120   6.261  18.974  0.00  0.00    +0.000 A 
ATOM     25  C   UNL     1       8.206   7.565  18.521  0.00  0.00    +0.000 A 
ATOM     26  C   UNL     1       7.510   7.893  17.372  0.00  0.00    +0.000 A 
ATOM     27  N   UNL     1       6.739   7.026  16.674  0.00  0.00    +0.000 NA
ATOM     28  H   UNL     1       5.357   5.476  15.713  0.00  0.00    +0.000 HD
ENDBRANCH  20  21
ENDBRANCH  19  20
ENDBRANCH   6  19
TORSDOF 5
ENDMDL
MODEL 3
REMARK VINA RESULT:      -7.7      1.535      2.310
REMARK  Name = 
REMARK  6 active torsions:
REMARK  status: ('A' for Active; 'I' for Inactive)
REMARK    1  A    between atoms: C_1  and  N_2
REMARK    2  A    between atoms: C_7  and  C_8
REMARK    3  A    between atoms: C_8  and  N_9
REMARK    4  A    between atoms: C_14  and  C_15
REMARK    5  A    between atoms: C_15  and  C_16
REMARK    6  A    between atoms: C_16  and  N_17
REMARK                            x       y       z     vdW  Elec       q    Type
REMARK                         _______ _______ _______ _____ _____    ______ ____
ROOT
ATOM      1  N   UNL     1       1.635   6.313  20.867  0.00  0.00    +0.000 N 
ATOM      2  C   UNL     1       2.344   5.262  20.258  0.00  0.00    +0.000 A 
ATOM      3  C   UNL     1       2.549   4.096  20.982  0.00  0.00    +0.000 A 
ATOM      4  C   UNL     1       3.223   3.033  20.385  0.00  0.00    +0.000 A 
ATOM      5  C   UNL     1       3.622   3.135  19.058  0.00  0.00    +0.000 A 
ATOM      6  C   UNL     1       3.334   4.307  18.372  0.00  0.00    +0.000 A 
ATOM      7  N   UNL     1       2.724   5.363  18.973  0.00  0.00    +0.000 NA
ATOM      8  H   UNL     1       0.647   6.076  20.804  0.00  0.00    +0.000 HD
ENDROOT
BRANCH   1   9
ATOM      9  C   UNL     1       1.883   7.621  20.250  0.00  0.00    +0.000 C 
BRANCH   9  16
ATOM     10  C   UNL     1      -1.009  11.070  18.323  0.00  0.00    +0.000 C 
ATOM     11  N   UNL     1      -1.190  11.328  19.743  0.00  0.00    +0.000 N 
ATOM     12  C   UNL     1      -0.466  10.464  20.582  0.00  0.00    +0.000 A 
ATOM     13  C   UNL     1      -0.553  10.657  21.957  0.00  0.00    +0.000 A 
ATOM     14  C   UNL     1       0.172   9.836  22.813  0.00  0.00    +0.000 A 
ATOM     15  C   UNL     1       0.975   8.838  22.277  0.00  0.00    +0.000 A 
ATOM     16  C   UNL     1       1.021   8.693  20.893  0.00  0.00    +0.000 A 
ATOM     17  N   UNL     1       0.315   9.499  20.056  0.00  0.00    +0.000 NA
ATOM     18  H   UNL     1      -2.169  11.302  20.015  0.00  0.00    +0.000 HD
ENDBRANCH   9  16
ENDBRANCH   1   9
BRANCH   6  19
ATOM     19  C   UNL     1       3.675   4.436  16.900  0.00  0.00    +0.000 C 
BRANCH  19  20
ATOM     20  C   UNL     1       5.037   3.815  16.588  0.00  0.00    +0.000 C 
BRANCH  20  21
ATOM     21  N   UNL     1       5.976   4.779  16.025  0.00  0.00    +0.000 N 
ATOM     22  C   UNL     1       6.682   5.556  16.945  0.00  0.00    +0.000 A 
ATOM     23  C   UNL     1       7.144   5.059  18.161  0.00  0.00    +0.000 A 
ATOM     24  C   UNL     1       7.858   5.889  19.024  0.00  0.00    +0.000 A 
ATOM     25  C   UNL     1       8.130   7.189  18.639  0.00  0.00    +0.000 A 
ATOM     26  C   UNL     1       7.658   7.604  17.407  0.00  0.00    +0.000 A 
ATOM     27  N   UNL     1       6.936   6.828  16.565  0.00  0.00    +0.000 NA
ATOM     28  H   UNL     1       5.594   5.433  15.343  0.00  0.00    +0.000 HD
ENDBRANCH  20  21
ENDBRANCH  19  20
ENDBRANCH   6  19
TORSDOF 5
ENDMDL
MODEL 4
REMARK VINA RESULT:      -7.6      1.534      6.352
REMARK  Name = 
REMARK  6 active torsions:
REMARK  status: ('A' for Active; 'I' for Inactive)
REMARK    1  A    between atoms: C_1  and  N_2
REMARK    2  A    between atoms: C_7  and  C_8
REMARK    3  A    between atoms: C_8  and  N_9
REMARK    4  A    between atoms: C_14  and  C_15
REMARK    5  A    between atoms: C_15  and  C_16
REMARK    6  A    between atoms: C_16  and  N_17
REMARK                            x       y       z     vdW  Elec       q    Type
REMARK                         _______ _______ _______ _____ _____    ______ ____
ROOT
ATOM      1  N   UNL     1       5.438   3.204  18.995  0.00  0.00    +0.000 N 
ATOM      2  C   UNL     1       4.047   3.131  18.802  0.00  0.00    +0.000 A 
ATOM      3  C   UNL     1       3.550   2.174  17.929  0.00  0.00    +0.000 A 
ATOM      4  C   UNL     1       2.174   2.066  17.746  0.00  0.00    +0.000 A 
ATOM      5  C   UNL     1       1.321   2.875  18.487  0.00  0.00    +0.000 A 
ATOM      6  C   UNL     1       1.880   3.772  19.387  0.00  0.00    +0.000 A 
ATOM      7  N   UNL     1       3.225   3.911  19.524  0.00  0.00    +0.000 NA
ATOM      8  H   UNL     1       5.684   2.457  19.642  0.00  0.00    +0.000 HD
ENDROOT
BRANCH   1   9
ATOM      9  C   UNL     1       5.888   4.498  19.521  0.00  0.00    +0.000 C 
BRANCH   9  16
ATOM     10  C   UNL     1       6.023   3.912  14.662  0.00  0.00    +0.000 C 
ATOM     11  N   UNL     1       6.723   5.179  14.800  0.00  0.00    +0.000 N 
ATOM     12  C   UNL     1       6.842   5.628  16.126  0.00  0.00    +0.000 A 
ATOM     13  C   UNL     1       7.527   6.818  16.357  0.00  0.00    +0.000 A 
ATOM     14  C   UNL     1       7.685   7.276  17.661  0.00  0.00    +0.000 A 
ATOM     15  C   UNL     1       7.158   6.534  18.709  0.00  0.00    +0.000 A 
ATOM     16  C   UNL     1       6.484   5.353  18.415  0.00  0.00    +0.000 A 
ATOM     17  N   UNL     1       6.333   4.902  17.141  0.00  0.00    +0.000 NA
ATOM     18  H   UNL     1       6.297   5.914  14.243  0.00  0.00    +0.000 HD
ENDBRANCH   9  16
ENDBRANCH   1   9
BRANCH   6  19
ATOM     19  C   UNL     1       0.991   4.618  20.277  0.00  0.00    +0.000 C 
BRANCH  19  20
ATOM     20  C   UNL     1       1.806   5.652  21.056  0.00  0.00    +0.000 C 
BRANCH  20  21
ATOM     21  N   UNL     1       2.486   6.601  20.181  0.00  0.00    +0.000 N 
ATOM     22  C   UNL     1       1.827   7.811  19.960  0.00  0.00    +0.000 A 
ATOM     23  C   UNL     1       1.103   8.472  20.949  0.00  0.00    +0.000 A 
ATOM     24  C   UNL     1       0.484   9.687  20.661  0.00  0.00    +0.000 A 
ATOM     25  C   UNL     1       0.633  10.239  19.401  0.00  0.00    +0.000 A 
ATOM     26  C   UNL     1       1.386   9.535  18.479  0.00  0.00    +0.000 A 
ATOM     27  N   UNL     1       1.970   8.339  18.724  0.00  0.00    +0.000 NA
ATOM     28  H   UNL     1       2.750   6.255  19.260  0.00  0.00    +0.000 HD
ENDBRANCH  20  21
ENDBRANCH  19  20
ENDBRANCH   6  19
TORSDOF 5
ENDMDL
MODEL 5
REMARK VINA RESULT:      -7.6      1.352      1.659
REMARK  Name = 
REMARK  6 active torsions:
REMARK  status: ('A' for Active; 'I' for Inactive)
REMARK    1  A    between atoms: C_1  and  N_2
REMARK    2  A    between atoms: C_7  and  C_8
REMARK    3  A    between atoms: C_8  and  N_9
REMARK    4  A    between atoms: C_14  and  C_15
REMARK    5  A    between atoms: C_15  and  C_16
REMARK    6  A    between atoms: C_16  and  N_17
REMARK                            x       y       z     vdW  Elec       q    Type
REMARK                         _______ _______ _______ _____ _____    ______ ____
ROOT
ATOM      1  N   UNL     1       1.924   6.629  20.217  0.00  0.00    +0.000 N 
ATOM      2  C   UNL     1       2.549   5.447  19.784  0.00  0.00    +0.000 A 
ATOM      3  C   UNL     1       2.619   4.375  20.663  0.00  0.00    +0.000 A 
ATOM      4  C   UNL     1       3.208   3.186  20.243  0.00  0.00    +0.000 A 
ATOM      5  C   UNL     1       3.659   3.071  18.933  0.00  0.00    +0.000 A 
ATOM      6  C   UNL     1       3.506   4.161  18.087  0.00  0.00    +0.000 A 
ATOM      7  N   UNL     1       2.979   5.338  18.515  0.00  0.00    +0.000 NA
ATOM      8  H   UNL     1       0.920   6.475  20.141  0.00  0.00    +0.000 HD
ENDROOT
BRANCH   1   9
ATOM      9  C   UNL     1       2.315   7.814  19.445  0.00  0.00    +0.000 C 
BRANCH   9  16
ATOM     10  C   UNL     1      -0.112   9.573  23.317  0.00  0.00    +0.000 C 
ATOM     11  N   UNL     1      -0.656  10.406  22.257  0.00  0.00    +0.000 N 
ATOM     12  C   UNL     1      -0.129  10.132  20.983  0.00  0.00    +0.000 A 
ATOM     13  C   UNL     1      -0.616  10.860  19.901  0.00  0.00    +0.000 A 
ATOM     14  C   UNL     1      -0.135  10.594  18.623  0.00  0.00    +0.000 A 
ATOM     15  C   UNL     1       0.822   9.604  18.452  0.00  0.00    +0.000 A 
ATOM     16  C   UNL     1       1.270   8.910  19.572  0.00  0.00    +0.000 A 
ATOM     17  N   UNL     1       0.797   9.166  20.820  0.00  0.00    +0.000 NA
ATOM     18  H   UNL     1      -0.541  11.396  22.451  0.00  0.00    +0.000 HD
ENDBRANCH   9  16
ENDBRANCH   1   9
BRANCH   6  19
ATOM     19  C   UNL     1       3.906   4.059  16.628  0.00  0.00    +0.000 C 
BRANCH  19  20
ATOM     20  C   UNL     1       5.362   3.614  16.480  0.00  0.00    +0.000 C 
BRANCH  20  21
ATOM     21  N   UNL     1       6.217   4.669  15.946  0.00  0.00    +0.000 N 
ATOM     22  C   UNL     1       6.835   5.492  16.889  0.00  0.00    +0.000 A 
ATOM     23  C   UNL     1       7.322   5.019  18.106  0.00  0.00    +0.000 A 
ATOM     24  C   UNL     1       7.944   5.896  18.992  0.00  0.00    +0.000 A 
ATOM     25  C   UNL     1       8.102   7.222  18.630  0.00  0.00    +0.000 A 
ATOM     26  C   UNL     1       7.613   7.612  17.397  0.00  0.00    +0.000 A 
ATOM     27  N   UNL     1       6.978   6.787  16.532  0.00  0.00    +0.000 NA
ATOM     28  H   UNL     1       5.788   5.296  15.268  0.00  0.00    +0.000 HD
ENDBRANCH  20  21
ENDBRANCH  19  20
ENDBRANCH   6  19
TORSDOF 5
ENDMDL
MODEL 6
REMARK VINA RESULT:      -7.6      1.215      1.350
REMARK  Name = 
REMARK  6 active torsions:
REMARK  status: ('A' for Active; 'I' for Inactive)
REMARK    1  A    between atoms: C_1  and  N_2
REMARK    2  A    between atoms: C_7  and  C_8
REMARK    3  A    between atoms: C_8  and  N_9
REMARK    4  A    between atoms: C_14  and  C_15
REMARK    5  A    between atoms: C_15  and  C_16
REMARK    6  A    between atoms: C_16  and  N_17
REMARK                            x       y       z     vdW  Elec       q    Type
REMARK                         _______ _______ _______ _____ _____    ______ ____
ROOT
ATOM      1  N   UNL     1       1.949   6.235  20.729  0.00  0.00    +0.000 N 
ATOM      2  C   UNL     1       2.125   4.846  20.607  0.00  0.00    +0.000 A 
ATOM      3  C   UNL     1       2.175   4.081  21.764  0.00  0.00    +0.000 A 
ATOM      4  C   UNL     1       2.321   2.700  21.662  0.00  0.00    +0.000 A 
ATOM      5  C   UNL     1       2.350   2.105  20.406  0.00  0.00    +0.000 A 
ATOM      6  C   UNL     1       2.237   2.922  19.289  0.00  0.00    +0.000 A 
ATOM      7  N   UNL     1       2.149   4.274  19.390  0.00  0.00    +0.000 NA
ATOM      8  H   UNL     1       0.957   6.391  20.899  0.00  0.00    +0.000 HD
ENDROOT
BRANCH   1   9
ATOM      9  C   UNL     1       2.384   6.987  19.546  0.00  0.00    +0.000 C 
BRANCH   9  16
ATOM     10  C   UNL     1      -0.098   9.514  22.926  0.00  0.00    +0.000 C 
ATOM     11  N   UNL     1      -0.129  10.449  21.813  0.00  0.00    +0.000 N 
ATOM     12  C   UNL     1       0.531   9.992  20.659  0.00  0.00    +0.000 A 
ATOM     13  C   UNL     1       0.524  10.809  19.533  0.00  0.00    +0.000 A 
ATOM     14  C   UNL     1       1.145  10.374  18.366  0.00  0.00    +0.000 A 
ATOM     15  C   UNL     1       1.758   9.129  18.349  0.00  0.00    +0.000 A 
ATOM     16  C   UNL     1       1.732   8.358  19.507  0.00  0.00    +0.000 A 
ATOM     17  N   UNL     1       1.121   8.781  20.645  0.00  0.00    +0.000 NA
ATOM     18  H   UNL     1       0.248  11.358  22.066  0.00  0.00    +0.000 HD
ENDBRANCH   9  16
ENDBRANCH   1   9
BRANCH   6  19
ATOM     19  C   UNL     1       2.181   2.315  17.901  0.00  0.00    +0.000 C 
BRANCH  19  20
ATOM     20  C   UNL     1       3.567   2.274  17.256  0.00  0.00    +0.000 C 
BRANCH  20  21
ATOM     21  N   UNL     1       4.440   3.340  17.737  0.00  0.00    +0.000 N 
ATOM     22  C   UNL     1       5.311   3.891  16.796  0.00  0.00    +0.000 A 
ATOM     23  C   UNL     1       4.958   4.096  15.464  0.00  0.00    +0.000 A 
ATOM     24  C   UNL     1       5.874   4.667  14.583  0.00  0.00    +0.000 A 
ATOM     25  C   UNL     1       7.113   5.058  15.058  0.00  0.00    +0.000 A 
ATOM     26  C   UNL     1       7.383   4.844  16.397  0.00  0.00    +0.000 A 
ATOM     27  N   UNL     1       6.522   4.262  17.266  0.00  0.00    +0.000 NA
ATOM     28  H   UNL     1       5.012   3.120  18.551  0.00  0.00    +0.000 HD
ENDBRANCH  20  21
ENDBRANCH  19  20
ENDBRANCH   6  19
TORSDOF 5
ENDMDL
MODEL 7
REMARK VINA RESULT:      -7.5      0.993      1.177
REMARK  Name = 
REMARK  6 active torsions:
REMARK  status: ('A' for Active; 'I' for Inactive)
REMARK    1  A    between atoms: C_1  and  N_2
REMARK    2  A    between atoms: C_7  and  C_8
REMARK    3  A    between atoms: C_8  and  N_9
REMARK    4  A    between atoms: C_14  and  C_15
REMARK    5  A    between atoms: C_15  and  C_16
REMARK    6  A    between atoms: C_16  and  N_17
REMARK                            x       y       z     vdW  Elec       q    Type
REMARK                         _______ _______ _______ _____ _____    ______ ____
ROOT
ATOM      1  N   UNL     1       1.182   5.487  20.399  0.00  0.00    +0.000 N 
ATOM      2  C   UNL     1       1.455   4.312  19.677  0.00  0.00    +0.000 A 
ATOM      3  C   UNL     1       0.680   3.188  19.926  0.00  0.00    +0.000 A 
ATOM      4  C   UNL     1       0.916   2.023  19.200  0.00  0.00    +0.000 A 
ATOM      5  C   UNL     1       1.880   2.025  18.199  0.00  0.00    +0.000 A 
ATOM      6  C   UNL     1       2.580   3.200  17.962  0.00  0.00    +0.000 A 
ATOM      7  N   UNL     1       2.385   4.319  18.707  0.00  0.00    +0.000 NA
ATOM      8  H   UNL     1       0.374   5.922  19.957  0.00  0.00    +0.000 HD
ENDROOT
BRANCH   1   9
ATOM      9  C   UNL     1       2.308   6.428  20.434  0.00  0.00    +0.000 C 
BRANCH   9  16
ATOM     10  C   UNL     1      -0.033  10.497  21.826  0.00  0.00    +0.000 C 
ATOM     11  N   UNL     1       0.284  10.827  20.446  0.00  0.00    +0.000 N 
ATOM     12  C   UNL     1       0.987   9.821  19.760  0.00  0.00    +0.000 A 
ATOM     13  C   UNL     1       1.305  10.037  18.423  0.00  0.00    +0.000 A 
ATOM     14  C   UNL     1       1.976   9.049  17.709  0.00  0.00    +0.000 A 
ATOM     15  C   UNL     1       2.313   7.863  18.347  0.00  0.00    +0.000 A 
ATOM     16  C   UNL     1       1.967   7.706  19.686  0.00  0.00    +0.000 A 
ATOM     17  N   UNL     1       1.308   8.669  20.382  0.00  0.00    +0.000 NA
ATOM     18  H   UNL     1       0.804  11.697  20.370  0.00  0.00    +0.000 HD
ENDBRANCH   9  16
ENDBRANCH   1   9
BRANCH   6  19
ATOM     19  C   UNL     1       3.583   3.277  16.827  0.00  0.00    +0.000 C 
BRANCH  19  20
ATOM     20  C   UNL     1       4.387   4.577  16.883  0.00  0.00    +0.000 C 
BRANCH  20  21
ATOM     21  N   UNL     1       5.003   4.798  18.187  0.00  0.00    +0.000 N 
ATOM     22  C   UNL     1       6.086   5.679  18.211  0.00  0.00    +0.000 A 
ATOM     23  C   UNL     1       6.147   6.828  17.427  0.00  0.00    +0.000 A 
ATOM     24  C   UNL     1       7.253   7.671  17.516  0.00  0.00    +0.000 A 
ATOM     25  C   UNL     1       8.260   7.370  18.416  0.00  0.00    +0.000 A 
ATOM     26  C   UNL     1       8.118   6.225  19.177  0.00  0.00    +0.000 A 
ATOM     27  N   UNL     1       7.069   5.373  19.086  0.00  0.00    +0.000 NA
ATOM     28  H   UNL     1       5.310   3.965  18.686  0.00  0.00    +0.000 HD
ENDBRANCH  20  21
ENDBRANCH  19  20
ENDBRANCH   6  19
TORSDOF 5
ENDMDL
MODEL 8
REMARK VINA RESULT:      -7.4      3.450      6.719
REMARK  Name = 
REMARK  6 active torsions:
REMARK  status: ('A' for Active; 'I' for Inactive)
REMARK    1  A    between atoms: C_1  and  N_2
REMARK    2  A    between atoms: C_7  and  C_8
REMARK    3  A    between atoms: C_8  and  N_9
REMARK    4  A    between atoms: C_14  and  C_15
REMARK    5  A    between atoms: C_15  and  C_16
REMARK    6  A    between atoms: C_16  and  N_17
REMARK                            x       y       z     vdW  Elec       q    Type
REMARK                         _______ _______ _______ _____ _____    ______ ____
ROOT
ATOM      1  N   UNL     1       3.363   6.008  17.422  0.00  0.00    +0.000 N 
ATOM      2  C   UNL     1       4.722   5.918  17.075  0.00  0.00    +0.000 A 
ATOM      3  C   UNL     1       5.057   5.339  15.859  0.00  0.00    +0.000 A 
ATOM      4  C   UNL     1       6.397   5.268  15.484  0.00  0.00    +0.000 A 
ATOM      5  C   UNL     1       7.367   5.833  16.303  0.00  0.00    +0.000 A 
ATOM      6  C   UNL     1       6.959   6.448  17.479  0.00  0.00    +0.000 A 
ATOM      7  N   UNL     1       5.657   6.470  17.867  0.00  0.00    +0.000 NA
ATOM      8  H   UNL     1       2.982   6.804  16.914  0.00  0.00    +0.000 HD
ENDROOT
BRANCH   1   9
ATOM      9  C   UNL     1       3.136   6.169  18.863  0.00  0.00    +0.000 C 
BRANCH   9  16
ATOM     10  C   UNL     1       3.580   1.436  17.692  0.00  0.00    +0.000 C 
ATOM     11  N   UNL     1       2.659   1.351  18.814  0.00  0.00    +0.000 N 
ATOM     12  C   UNL     1       2.335   2.593  19.387  0.00  0.00    +0.000 A 
ATOM     13  C   UNL     1       1.434   2.611  20.448  0.00  0.00    +0.000 A 
ATOM     14  C   UNL     1       1.072   3.826  21.020  0.00  0.00    +0.000 A 
ATOM     15  C   UNL     1       1.615   5.000  20.517  0.00  0.00    +0.000 A 
ATOM     16  C   UNL     1       2.511   4.918  19.455  0.00  0.00    +0.000 A 
ATOM     17  N   UNL     1       2.862   3.731  18.894  0.00  0.00    +0.000 NA
ATOM     18  H   UNL     1       3.003   0.734  19.545  0.00  0.00    +0.000 HD
ENDBRANCH   9  16
ENDBRANCH   1   9
BRANCH   6  19
ATOM     19  C   UNL     1       7.969   7.151  18.365  0.00  0.00    +0.000 C 
BRANCH  19  20
ATOM     20  C   UNL     1       8.118   8.623  17.980  0.00  0.00    +0.000 C 
BRANCH  20  21
ATOM     21  N   UNL     1       8.931   9.371  18.933  0.00  0.00    +0.000 N 
ATOM     22  C   UNL     1       9.281  10.668  18.554  0.00  0.00    +0.000 A 
ATOM     23  C   UNL     1       8.421  11.514  17.858  0.00  0.00    +0.000 A 
ATOM     24  C   UNL     1       8.832  12.804  17.527  0.00  0.00    +0.000 A 
ATOM     25  C   UNL     1      10.081  13.238  17.932  0.00  0.00    +0.000 A 
ATOM     26  C   UNL     1      10.870  12.350  18.640  0.00  0.00    +0.000 A 
ATOM     27  N   UNL     1      10.507  11.082  18.946  0.00  0.00    +0.000 NA
ATOM     28  H   UNL     1       9.797   8.925  19.233  0.00  0.00    +0.000 HD
ENDBRANCH  20  21
ENDBRANCH  19  20
ENDBRANCH   6  19
TORSDOF 5
ENDMDL
MODEL 9
REMARK VINA RESULT:      -7.4      2.589      8.242
REMARK  Name = 
REMARK  6 active torsions:
REMARK  status: ('A' for Active; 'I' for Inactive)
REMARK    1  A    between atoms: C_1  and  N_2
REMARK    2  A    between atoms: C_7  and  C_8
REMARK    3  A    between atoms: C_8  and  N_9
REMARK    4  A    between atoms: C_14  and  C_15
REMARK    5  A    between atoms: C_15  and  C_16
REMARK    6  A    between atoms: C_16  and  N_17
REMARK                            x       y       z     vdW  Elec       q    Type
REMARK                         _______ _______ _______ _____ _____    ______ ____
ROOT
ATOM      1  N   UNL     1       2.276   7.190  20.095  0.00  0.00    +0.000 N 
ATOM      2  C   UNL     1       1.368   8.214  20.416  0.00  0.00    +0.000 A 
ATOM      3  C   UNL     1       0.631   8.101  21.586  0.00  0.00    +0.000 A 
ATOM      4  C   UNL     1      -0.252   9.119  21.936  0.00  0.00    +0.000 A 
ATOM      5  C   UNL     1      -0.334  10.257  21.143  0.00  0.00    +0.000 A 
ATOM      6  C   UNL     1       0.474  10.333  20.016  0.00  0.00    +0.000 A 
ATOM      7  N   UNL     1       1.296   9.315  19.648  0.00  0.00    +0.000 NA
ATOM      8  H   UNL     1       3.109   7.349  20.658  0.00  0.00    +0.000 HD
ENDROOT
BRANCH   1   9
ATOM      9  C   UNL     1       2.629   7.146  18.671  0.00  0.00    +0.000 C 
BRANCH   9  16
ATOM     10  C   UNL     1       6.591   4.644  17.249  0.00  0.00    +0.000 C 
ATOM     11  N   UNL     1       5.564   3.623  17.115  0.00  0.00    +0.000 N 
ATOM     12  C   UNL     1       4.274   4.054  17.469  0.00  0.00    +0.000 A 
ATOM     13  C   UNL     1       3.222   3.152  17.341  0.00  0.00    +0.000 A 
ATOM     14  C   UNL     1       1.929   3.556  17.658  0.00  0.00    +0.000 A 
ATOM     15  C   UNL     1       1.713   4.856  18.094  0.00  0.00    +0.000 A 
ATOM     16  C   UNL     1       2.806   5.712  18.202  0.00  0.00    +0.000 A 
ATOM     17  N   UNL     1       4.068   5.319  17.888  0.00  0.00    +0.000 NA
ATOM     18  H   UNL     1       5.785   2.786  17.646  0.00  0.00    +0.000 HD
ENDBRANCH   9  16
ENDBRANCH   1   9
BRANCH   6  19
ATOM     19  C   UNL     1       0.482  11.587  19.164  0.00  0.00    +0.000 C 
BRANCH  19  20
ATOM     20  C   UNL     1      -0.775  12.426  19.398  0.00  0.00    +0.000 C 
BRANCH  20  21
ATOM     21  N   UNL     1      -1.491  12.719  18.161  0.00  0.00    +0.000 N 
ATOM     22  C   UNL     1      -2.129  11.637  17.552  0.00  0.00    +0.000 A 
ATOM     23  C   UNL     1      -2.765  10.628  18.272  0.00  0.00    +0.000 A 
ATOM     24  C   UNL     1      -3.397   9.586  17.596  0.00  0.00    +0.000 A 
ATOM     25  C   UNL     1      -3.416   9.593  16.213  0.00  0.00    +0.000 A 
ATOM     26  C   UNL     1      -2.783  10.640  15.568  0.00  0.00    +0.000 A 
ATOM     27  N   UNL     1      -2.135  11.646  16.201  0.00  0.00    +0.000 NA
ATOM     28  H   UNL     1      -0.951  13.174  17.426  0.00  0.00    +0.000 HD
ENDBRANCH  20  21
ENDBRANCH  19  20
ENDBRANCH   6  19
TORSDOF 5
ENDMDL
