MODEL 1
REMARK VINA RESULT:      -8.0      0.000      0.000
REMARK  Name = 
REMARK  8 active torsions:
REMARK  status: ('A' for Active; 'I' for Inactive)
REMARK    1  A    between atoms: C_1  and  C_2
REMARK    2  A    between atoms: C_2  and  C_3
REMARK    3  A    between atoms: C_5  and  O_6
REMARK    4  A    between atoms: C_8  and  C_9
REMARK    5  A    between atoms: C_8  and  C_10
REMARK    6  A    between atoms: C_10  and  N_11
REMARK    7  A    between atoms: C_12  and  C_14
REMARK    8  A    between atoms: C_19  and  O_20
REMARK                            x       y       z     vdW  Elec       q    Type
REMARK                         _______ _______ _______ _____ _____    ______ ____
ROOT
ATOM      1  C   UNL     1       4.958   6.510  17.275  0.00  0.00    +0.000 C 
ENDROOT
BRANCH   1   8
ATOM      2  C   UNL     1       4.067   2.414  19.522  0.00  0.00    +0.000 C 
ATOM      3  C   UNL     1       3.152   3.221  18.581  0.00  0.00    +0.000 C 
ATOM      4  C   UNL     1       2.454   2.198  17.661  0.00  0.00    +0.000 C 
ATOM      5  C   UNL     1       2.077   3.986  19.382  0.00  0.00    +0.000 C 
ATOM      6  C   UNL     1       2.625   5.207  20.121  0.00  0.00    +0.000 C 
ATOM      7  C   UNL     1       3.347   6.168  19.172  0.00  0.00    +0.000 C 
ATOM      8  C   UNL     1       4.493   5.503  18.372  0.00  0.00    +0.000 C 
ATOM      9  C   UNL     1       5.693   5.223  19.298  0.00  0.00    +0.000 C 
ATOM     10  C   UNL     1       3.950   4.214  17.692  0.00  0.00    +0.000 C 
BRANCH   6  11
ATOM     11  O   UNL     1       1.545   5.894  20.751  0.00  0.00    +0.000 OA
ATOM     12  H   UNL     1       0.795   5.284  20.824  0.00  0.00    +0.000 HD
ENDBRANCH   6  11
ENDBRANCH   1   8
BRANCH   1  13
ATOM     13  N   UNL     1       5.205   5.880  15.989  0.00  0.00    +0.000 N 
ATOM     14  C   UNL     1       6.462   5.601  15.505  0.00  0.00    +0.000 C 
ATOM     15  O   UNL     1       7.495   5.885  16.100  0.00  0.00    +0.000 OA
ATOM     16  H   UNL     1       4.421   5.688  15.373  0.00  0.00    +0.000 HD
BRANCH  14  17
ATOM     17  C   UNL     1       6.525   4.861  14.207  0.00  0.00    +0.000 A 
ATOM     18  C   UNL     1       5.488   3.952  13.939  0.00  0.00    +0.000 A 
ATOM     19  C   UNL     1       5.449   3.250  12.733  0.00  0.00    +0.000 A 
ATOM     20  C   UNL     1       6.454   3.436  11.787  0.00  0.00    +0.000 A 
ATOM     21  C   UNL     1       7.501   4.323  12.045  0.00  0.00    +0.000 A 
ATOM     22  C   UNL     1       7.536   5.034  13.249  0.00  0.00    +0.000 A 
BRANCH  22  23
ATOM     23  O   UNL     1       8.571   5.904  13.469  0.00  0.00    +0.000 OA
ATOM     24  H   UNL     1       9.060   6.022  12.635  0.00  0.00    +0.000 HD
ENDBRANCH  22  23
ENDBRANCH  14  17
ENDBRANCH   1  13
TORSDOF 5
ENDMDL
MODEL 2
REMARK VINA RESULT:      -8.0      1.497      2.240
REMARK  Name = 
REMARK  8 active torsions:
REMARK  status: ('A' for Active; 'I' for Inactive)
REMARK    1  A    between atoms: C_1  and  C_2
REMARK    2  A    between atoms: C_2  and  C_3
REMARK    3  A    between atoms: C_5  and  O_6
REMARK    4  A    between atoms: C_8  and  C_9
REMARK    5  A    between atoms: C_8  and  C_10
REMARK    6  A    between atoms: C_10  and  N_11
REMARK    7  A    between atoms: C_12  and  C_14
REMARK    8  A    between atoms: C_19  and  O_20
REMARK                            x       y       z     vdW  Elec       q    Type
REMARK                         _______ _______ _______ _____ _____    ______ ____
ROOT
ATOM      1  C   UNL     1       4.851   5.268  17.418  0.00  0.00    +0.000 C 
ENDROOT
BRANCH   1   8
ATOM      2  C   UNL     1       1.062   2.901  19.048  0.00  0.00    +0.000 C 
ATOM      3  C   UNL     1       1.971   3.900  19.788  0.00  0.00    +0.000 C 
ATOM      4  C   UNL     1       1.042   4.805  20.625  0.00  0.00    +0.000 C 
ATOM      5  C   UNL     1       2.939   3.164  20.739  0.00  0.00    +0.000 C 
ATOM      6  C   UNL     1       4.080   2.453  20.010  0.00  0.00    +0.000 C 
ATOM      7  C   UNL     1       4.865   3.413  19.112  0.00  0.00    +0.000 C 
ATOM      8  C   UNL     1       3.984   4.150  18.075  0.00  0.00    +0.000 C 
ATOM      9  C   UNL     1       3.546   3.176  16.964  0.00  0.00    +0.000 C 
ATOM     10  C   UNL     1       2.777   4.799  18.811  0.00  0.00    +0.000 C 
BRANCH   6  11
ATOM     11  O   UNL     1       4.965   1.885  20.975  0.00  0.00    +0.000 OA
ATOM     12  H   UNL     1       4.683   0.974  21.150  0.00  0.00    +0.000 HD
ENDBRANCH   6  11
ENDBRANCH   1   8
BRANCH   1  13
ATOM     13  N   UNL     1       5.180   4.995  16.030  0.00  0.00    +0.000 N 
ATOM     14  C   UNL     1       6.468   4.875  15.559  0.00  0.00    +0.000 C 
ATOM     15  O   UNL     1       7.461   5.018  16.263  0.00  0.00    +0.000 OA
ATOM     16  H   UNL     1       4.433   4.951  15.343  0.00  0.00    +0.000 HD
BRANCH  14  17
ATOM     17  C   UNL     1       6.617   4.494  14.121  0.00  0.00    +0.000 A 
ATOM     18  C   UNL     1       5.672   3.597  13.597  0.00  0.00    +0.000 A 
ATOM     19  C   UNL     1       5.715   3.221  12.253  0.00  0.00    +0.000 A 
ATOM     20  C   UNL     1       6.712   3.725  11.421  0.00  0.00    +0.000 A 
ATOM     21  C   UNL     1       7.670   4.604  11.931  0.00  0.00    +0.000 A 
ATOM     22  C   UNL     1       7.621   4.989  13.275  0.00  0.00    +0.000 A 
BRANCH  22  23
ATOM     23  O   UNL     1       8.569   5.861  13.744  0.00  0.00    +0.000 OA
ATOM     24  H   UNL     1       9.287   5.346  14.153  0.00  0.00    +0.000 HD
ENDBRANCH  22  23
ENDBRANCH  14  17
ENDBRANCH   1  13
TORSDOF 5
ENDMDL
MODEL 3
REMARK VINA RESULT:      -7.6      1.411      1.972
REMARK  Name = 
REMARK  8 active torsions:
REMARK  status: ('A' for Active; 'I' for Inactive)
REMARK    1  A    between atoms: C_1  and  C_2
REMARK    2  A    between atoms: C_2  and  C_3
REMARK    3  A    between atoms: C_5  and  O_6
REMARK    4  A    between atoms: C_8  and  C_9
REMARK    5  A    between atoms: C_8  and  C_10
REMARK    6  A    between atoms: C_10  and  N_11
REMARK    7  A    between atoms: C_12  and  C_14
REMARK    8  A    between atoms: C_19  and  O_20
REMARK                            x       y       z     vdW  Elec       q    Type
REMARK                         _______ _______ _______ _____ _____    ______ ____
ROOT
ATOM      1  C   UNL     1       5.786   4.399  18.061  0.00  0.00    +0.000 C 
ENDROOT
BRANCH   1   8
ATOM      2  C   UNL     1       2.180   5.169  21.067  0.00  0.00    +0.000 C 
ATOM      3  C   UNL     1       2.594   3.861  20.365  0.00  0.00    +0.000 C 
ATOM      4  C   UNL     1       2.471   2.739  21.417  0.00  0.00    +0.000 C 
ATOM      5  C   UNL     1       1.649   3.546  19.187  0.00  0.00    +0.000 C 
ATOM      6  C   UNL     1       1.883   4.436  17.966  0.00  0.00    +0.000 C 
ATOM      7  C   UNL     1       3.338   4.379  17.493  0.00  0.00    +0.000 C 
ATOM      8  C   UNL     1       4.361   4.749  18.594  0.00  0.00    +0.000 C 
ATOM      9  C   UNL     1       4.318   6.264  18.871  0.00  0.00    +0.000 C 
ATOM     10  C   UNL     1       4.063   3.900  19.863  0.00  0.00    +0.000 C 
BRANCH   6  11
ATOM     11  O   UNL     1       1.029   4.008  16.906  0.00  0.00    +0.000 OA
ATOM     12  H   UNL     1       0.182   3.732  17.288  0.00  0.00    +0.000 HD
ENDBRANCH   6  11
ENDBRANCH   1   8
BRANCH   1  13
ATOM     13  N   UNL     1       5.827   4.212  16.621  0.00  0.00    +0.000 N 
ATOM     14  C   UNL     1       6.627   4.949  15.779  0.00  0.00    +0.000 C 
ATOM     15  O   UNL     1       7.358   5.856  16.160  0.00  0.00    +0.000 OA
ATOM     16  H   UNL     1       5.190   3.549  16.190  0.00  0.00    +0.000 HD
BRANCH  14  17
ATOM     17  C   UNL     1       6.615   4.554  14.337  0.00  0.00    +0.000 A 
ATOM     18  C   UNL     1       5.590   3.688  13.920  0.00  0.00    +0.000 A 
ATOM     19  C   UNL     1       5.482   3.301  12.583  0.00  0.00    +0.000 A 
ATOM     20  C   UNL     1       6.406   3.763  11.649  0.00  0.00    +0.000 A 
ATOM     21  C   UNL     1       7.441   4.610  12.049  0.00  0.00    +0.000 A 
ATOM     22  C   UNL     1       7.544   5.006  13.387  0.00  0.00    +0.000 A 
BRANCH  22  23
ATOM     23  O   UNL     1       8.565   5.846  13.748  0.00  0.00    +0.000 OA
ATOM     24  H   UNL     1       9.394   5.506  13.366  0.00  0.00    +0.000 HD
ENDBRANCH  22  23
ENDBRANCH  14  17
ENDBRANCH   1  13
TORSDOF 5
ENDMDL
MODEL 4
REMARK VINA RESULT:      -7.5      1.755      2.589
REMARK  Name = 
REMARK  8 active torsions:
REMARK  status: ('A' for Active; 'I' for Inactive)
REMARK    1  A    between atoms: C_1  and  C_2
REMARK    2  A    between atoms: C_2  and  C_3
REMARK    3  A    between atoms: C_5  and  O_6
REMARK    4  A    between atoms: C_8  and  C_9
REMARK    5  A    between atoms: C_8  and  C_10
REMARK    6  A    between atoms: C_10  and  N_11
REMARK    7  A    between atoms: C_12  and  C_14
REMARK    8  A    between atoms: C_19  and  O_20
REMARK                            x       y       z     vdW  Elec       q    Type
REMARK                         _______ _______ _______ _____ _____    ______ ____
ROOT
ATOM      1  C   UNL     1       4.243   5.377  17.450  0.00  0.00    +0.000 C 
ENDROOT
BRANCH   1   8
ATOM      2  C   UNL     1       0.799   3.281  19.974  0.00  0.00    +0.000 C 
ATOM      3  C   UNL     1       2.296   3.419  20.307  0.00  0.00    +0.000 C 
ATOM      4  C   UNL     1       2.383   3.773  21.807  0.00  0.00    +0.000 C 
ATOM      5  C   UNL     1       3.038   2.088  20.066  0.00  0.00    +0.000 C 
ATOM      6  C   UNL     1       3.256   1.774  18.585  0.00  0.00    +0.000 C 
ATOM      7  C   UNL     1       3.985   2.912  17.865  0.00  0.00    +0.000 C 
ATOM      8  C   UNL     1       3.274   4.281  17.995  0.00  0.00    +0.000 C 
ATOM      9  C   UNL     1       2.001   4.301  17.127  0.00  0.00    +0.000 C 
ATOM     10  C   UNL     1       2.979   4.554  19.497  0.00  0.00    +0.000 C 
BRANCH   6  11
ATOM     11  O   UNL     1       4.026   0.578  18.471  0.00  0.00    +0.000 OA
ATOM     12  H   UNL     1       3.491  -0.162  18.795  0.00  0.00    +0.000 HD
ENDBRANCH   6  11
ENDBRANCH   1   8
BRANCH   1  13
ATOM     13  N   UNL     1       4.705   5.110  16.099  0.00  0.00    +0.000 N 
ATOM     14  C   UNL     1       6.007   4.793  15.787  0.00  0.00    +0.000 C 
ATOM     15  O   UNL     1       6.907   4.734  16.617  0.00  0.00    +0.000 OA
ATOM     16  H   UNL     1       4.060   5.224  15.323  0.00  0.00    +0.000 HD
BRANCH  14  17
ATOM     17  C   UNL     1       6.284   4.453  14.357  0.00  0.00    +0.000 A 
ATOM     18  C   UNL     1       5.365   3.609  13.712  0.00  0.00    +0.000 A 
ATOM     19  C   UNL     1       5.526   3.276  12.366  0.00  0.00    +0.000 A 
ATOM     20  C   UNL     1       6.617   3.769  11.653  0.00  0.00    +0.000 A 
ATOM     21  C   UNL     1       7.549   4.594  12.285  0.00  0.00    +0.000 A 
ATOM     22  C   UNL     1       7.382   4.937  13.630  0.00  0.00    +0.000 A 
BRANCH  22  23
ATOM     23  O   UNL     1       8.309   5.757  14.220  0.00  0.00    +0.000 OA
ATOM     24  H   UNL     1       7.863   6.574  14.505  0.00  0.00    +0.000 HD
ENDBRANCH  22  23
ENDBRANCH  14  17
ENDBRANCH   1  13
TORSDOF 5
ENDMDL
MODEL 5
REMARK VINA RESULT:      -7.4      1.658      2.392
REMARK  Name = 
REMARK  8 active torsions:
REMARK  status: ('A' for Active; 'I' for Inactive)
REMARK    1  A    between atoms: C_1  and  C_2
REMARK    2  A    between atoms: C_2  and  C_3
REMARK    3  A    between atoms: C_5  and  O_6
REMARK    4  A    between atoms: C_8  and  C_9
REMARK    5  A    between atoms: C_8  and  C_10
REMARK    6  A    between atoms: C_10  and  N_11
REMARK    7  A    between atoms: C_12  and  C_14
REMARK    8  A    between atoms: C_19  and  O_20
REMARK                            x       y       z     vdW  Elec       q    Type
REMARK                         _______ _______ _______ _____ _____    ______ ____
ROOT
ATOM      1  C   UNL     1       5.088   5.035  17.893  0.00  0.00    +0.000 C 
ENDROOT
BRANCH   1   8
ATOM      2  C   UNL     1       1.113   4.830  20.496  0.00  0.00    +0.000 C 
ATOM      3  C   UNL     1       2.283   3.830  20.435  0.00  0.00    +0.000 C 
ATOM      4  C   UNL     1       2.566   3.394  21.887  0.00  0.00    +0.000 C 
ATOM      5  C   UNL     1       1.899   2.585  19.607  0.00  0.00    +0.000 C 
ATOM      6  C   UNL     1       1.862   2.846  18.101  0.00  0.00    +0.000 C 
ATOM      7  C   UNL     1       3.188   3.419  17.591  0.00  0.00    +0.000 C 
ATOM      8  C   UNL     1       3.622   4.713  18.320  0.00  0.00    +0.000 C 
ATOM      9  C   UNL     1       2.732   5.892  17.881  0.00  0.00    +0.000 C 
ATOM     10  C   UNL     1       3.574   4.468  19.855  0.00  0.00    +0.000 C 
BRANCH   6  11
ATOM     11  O   UNL     1       1.591   1.620  17.423  0.00  0.00    +0.000 OA
ATOM     12  H   UNL     1       0.776   1.728  16.909  0.00  0.00    +0.000 HD
ENDBRANCH   6  11
ENDBRANCH   1   8
BRANCH   1  13
ATOM     13  N   UNL     1       5.415   4.552  16.562  0.00  0.00    +0.000 N 
ATOM     14  C   UNL     1       5.637   5.379  15.484  0.00  0.00    +0.000 C 
ATOM     15  O   UNL     1       5.551   6.600  15.539  0.00  0.00    +0.000 OA
ATOM     16  H   UNL     1       5.418   3.552  16.384  0.00  0.00    +0.000 HD
BRANCH  14  17
ATOM     17  C   UNL     1       6.058   4.713  14.213  0.00  0.00    +0.000 A 
ATOM     18  C   UNL     1       5.138   3.837  13.615  0.00  0.00    +0.000 A 
ATOM     19  C   UNL     1       5.436   3.206  12.406  0.00  0.00    +0.000 A 
ATOM     20  C   UNL     1       6.664   3.431  11.788  0.00  0.00    +0.000 A 
ATOM     21  C   UNL     1       7.597   4.285  12.378  0.00  0.00    +0.000 A 
ATOM     22  C   UNL     1       7.295   4.926  13.584  0.00  0.00    +0.000 A 
BRANCH  22  23
ATOM     23  O   UNL     1       8.228   5.766  14.134  0.00  0.00    +0.000 OA
ATOM     24  H   UNL     1       8.045   5.851  15.087  0.00  0.00    +0.000 HD
ENDBRANCH  22  23
ENDBRANCH  14  17
ENDBRANCH   1  13
TORSDOF 5
ENDMDL
MODEL 6
REMARK VINA RESULT:      -7.4      1.239      1.470
REMARK  Name = 
REMARK  8 active torsions:
REMARK  status: ('A' for Active; 'I' for Inactive)
REMARK    1  A    between atoms: C_1  and  C_2
REMARK    2  A    between atoms: C_2  and  C_3
REMARK    3  A    between atoms: C_5  and  O_6
REMARK    4  A    between atoms: C_8  and  C_9
REMARK    5  A    between atoms: C_8  and  C_10
REMARK    6  A    between atoms: C_10  and  N_11
REMARK    7  A    between atoms: C_12  and  C_14
REMARK    8  A    between atoms: C_19  and  O_20
REMARK                            x       y       z     vdW  Elec       q    Type
REMARK                         _______ _______ _______ _____ _____    ______ ____
ROOT
ATOM      1  C   UNL     1       5.294   5.963  17.620  0.00  0.00    +0.000 C 
ENDROOT
BRANCH   1   8
ATOM      2  C   UNL     1       3.134   2.678  20.297  0.00  0.00    +0.000 C 
ATOM      3  C   UNL     1       3.490   2.625  18.800  0.00  0.00    +0.000 C 
ATOM      4  C   UNL     1       4.036   1.208  18.526  0.00  0.00    +0.000 C 
ATOM      5  C   UNL     1       2.237   2.853  17.928  0.00  0.00    +0.000 C 
ATOM      6  C   UNL     1       1.769   4.309  17.906  0.00  0.00    +0.000 C 
ATOM      7  C   UNL     1       2.888   5.258  17.465  0.00  0.00    +0.000 C 
ATOM      8  C   UNL     1       4.167   5.149  18.328  0.00  0.00    +0.000 C 
ATOM      9  C   UNL     1       3.927   5.780  19.714  0.00  0.00    +0.000 C 
ATOM     10  C   UNL     1       4.589   3.654  18.418  0.00  0.00    +0.000 C 
BRANCH   6  11
ATOM     11  O   UNL     1       0.669   4.431  17.006  0.00  0.00    +0.000 OA
ATOM     12  H   UNL     1       0.012   3.756  17.233  0.00  0.00    +0.000 HD
ENDBRANCH   6  11
ENDBRANCH   1   8
BRANCH   1  13
ATOM     13  N   UNL     1       5.497   5.572  16.235  0.00  0.00    +0.000 N 
ATOM     14  C   UNL     1       6.644   4.969  15.773  0.00  0.00    +0.000 C 
ATOM     15  O   UNL     1       7.616   4.731  16.480  0.00  0.00    +0.000 OA
ATOM     16  H   UNL     1       4.790   5.809  15.545  0.00  0.00    +0.000 HD
BRANCH  14  17
ATOM     17  C   UNL     1       6.640   4.546  14.338  0.00  0.00    +0.000 A 
ATOM     18  C   UNL     1       5.629   3.658  13.936  0.00  0.00    +0.000 A 
ATOM     19  C   UNL     1       5.529   3.246  12.606  0.00  0.00    +0.000 A 
ATOM     20  C   UNL     1       6.448   3.704  11.666  0.00  0.00    +0.000 A 
ATOM     21  C   UNL     1       7.470   4.573  12.052  0.00  0.00    +0.000 A 
ATOM     22  C   UNL     1       7.565   4.995  13.382  0.00  0.00    +0.000 A 
BRANCH  22  23
ATOM     23  O   UNL     1       8.573   5.855  13.729  0.00  0.00    +0.000 OA
ATOM     24  H   UNL     1       9.299   5.755  13.088  0.00  0.00    +0.000 HD
ENDBRANCH  22  23
ENDBRANCH  14  17
ENDBRANCH   1  13
TORSDOF 5
ENDMDL
MODEL 7
REMARK VINA RESULT:      -7.2      3.977      7.019
REMARK  Name = 
REMARK  8 active torsions:
REMARK  status: ('A' for Active; 'I' for Inactive)
REMARK    1  A    between atoms: C_1  and  C_2
REMARK    2  A    between atoms: C_2  and  C_3
REMARK    3  A    between atoms: C_5  and  O_6
REMARK    4  A    between atoms: C_8  and  C_9
REMARK    5  A    between atoms: C_8  and  C_10
REMARK    6  A    between atoms: C_10  and  N_11
REMARK    7  A    between atoms: C_12  and  C_14
REMARK    8  A    between atoms: C_19  and  O_20
REMARK                            x       y       z     vdW  Elec       q    Type
REMARK                         _______ _______ _______ _____ _____    ______ ____
ROOT
ATOM      1  C   UNL     1       3.596   6.117  18.017  0.00  0.00    +0.000 C 
ENDROOT
BRANCH   1   8
ATOM      2  C   UNL     1       1.136   2.096  18.653  0.00  0.00    +0.000 C 
ATOM      3  C   UNL     1       1.729   3.046  19.711  0.00  0.00    +0.000 C 
ATOM      4  C   UNL     1       0.666   3.190  20.820  0.00  0.00    +0.000 C 
ATOM      5  C   UNL     1       3.013   2.450  20.326  0.00  0.00    +0.000 C 
ATOM      6  C   UNL     1       4.221   2.516  19.390  0.00  0.00    +0.000 C 
ATOM      7  C   UNL     1       4.490   3.944  18.910  0.00  0.00    +0.000 C 
ATOM      8  C   UNL     1       3.274   4.603  18.215  0.00  0.00    +0.000 C 
ATOM      9  C   UNL     1       3.058   3.979  16.823  0.00  0.00    +0.000 C 
ATOM     10  C   UNL     1       2.029   4.457  19.135  0.00  0.00    +0.000 C 
BRANCH   6  11
ATOM     11  O   UNL     1       5.371   2.029  20.080  0.00  0.00    +0.000 OA
ATOM     12  H   UNL     1       5.911   1.521  19.455  0.00  0.00    +0.000 HD
ENDBRANCH   6  11
ENDBRANCH   1   8
BRANCH   1  13
ATOM     13  N   UNL     1       2.799   6.986  18.865  0.00  0.00    +0.000 N 
ATOM     14  C   UNL     1       2.249   8.172  18.437  0.00  0.00    +0.000 C 
ATOM     15  O   UNL     1       2.404   8.622  17.308  0.00  0.00    +0.000 OA
ATOM     16  H   UNL     1       2.687   6.754  19.847  0.00  0.00    +0.000 HD
BRANCH  14  17
ATOM     17  C   UNL     1       1.375   8.890  19.416  0.00  0.00    +0.000 A 
ATOM     18  C   UNL     1       1.429   8.463  20.753  0.00  0.00    +0.000 A 
ATOM     19  C   UNL     1       0.676   9.105  21.738  0.00  0.00    +0.000 A 
ATOM     20  C   UNL     1      -0.151  10.172  21.395  0.00  0.00    +0.000 A 
ATOM     21  C   UNL     1      -0.230  10.598  20.068  0.00  0.00    +0.000 A 
ATOM     22  C   UNL     1       0.532   9.961  19.083  0.00  0.00    +0.000 A 
BRANCH  22  23
ATOM     23  O   UNL     1       0.441  10.408  17.790  0.00  0.00    +0.000 OA
ATOM     24  H   UNL     1      -0.035   9.741  17.265  0.00  0.00    +0.000 HD
ENDBRANCH  22  23
ENDBRANCH  14  17
ENDBRANCH   1  13
TORSDOF 5
ENDMDL
MODEL 8
REMARK VINA RESULT:      -7.2      3.721      6.817
REMARK  Name = 
REMARK  8 active torsions:
REMARK  status: ('A' for Active; 'I' for Inactive)
REMARK    1  A    between atoms: C_1  and  C_2
REMARK    2  A    between atoms: C_2  and  C_3
REMARK    3  A    between atoms: C_5  and  O_6
REMARK    4  A    between atoms: C_8  and  C_9
REMARK    5  A    between atoms: C_8  and  C_10
REMARK    6  A    between atoms: C_10  and  N_11
REMARK    7  A    between atoms: C_12  and  C_14
REMARK    8  A    between atoms: C_19  and  O_20
REMARK                            x       y       z     vdW  Elec       q    Type
REMARK                         _______ _______ _______ _____ _____    ______ ____
ROOT
ATOM      1  C   UNL     1       3.892   6.058  18.130  0.00  0.00    +0.000 C 
ENDROOT
BRANCH   1   8
ATOM      2  C   UNL     1       1.194   2.162  18.533  0.00  0.00    +0.000 C 
ATOM      3  C   UNL     1       1.734   3.084  19.642  0.00  0.00    +0.000 C 
ATOM      4  C   UNL     1       0.583   3.282  20.651  0.00  0.00    +0.000 C 
ATOM      5  C   UNL     1       2.927   2.429  20.370  0.00  0.00    +0.000 C 
ATOM      6  C   UNL     1       4.216   2.434  19.547  0.00  0.00    +0.000 C 
ATOM      7  C   UNL     1       4.596   3.847  19.095  0.00  0.00    +0.000 C 
ATOM      8  C   UNL     1       3.481   4.561  18.295  0.00  0.00    +0.000 C 
ATOM      9  C   UNL     1       3.361   3.945  16.887  0.00  0.00    +0.000 C 
ATOM     10  C   UNL     1       2.152   4.478  19.098  0.00  0.00    +0.000 C 
BRANCH   6  11
ATOM     11  O   UNL     1       5.275   1.895  20.337  0.00  0.00    +0.000 OA
ATOM     12  H   UNL     1       5.458   2.509  21.064  0.00  0.00    +0.000 HD
ENDBRANCH   6  11
ENDBRANCH   1   8
BRANCH   1  13
ATOM     13  N   UNL     1       2.979   6.977  18.786  0.00  0.00    +0.000 N 
ATOM     14  C   UNL     1       2.474   8.108  18.188  0.00  0.00    +0.000 C 
ATOM     15  O   UNL     1       2.770   8.463  17.053  0.00  0.00    +0.000 OA
ATOM     16  H   UNL     1       2.742   6.827  19.762  0.00  0.00    +0.000 HD
BRANCH  14  17
ATOM     17  C   UNL     1       1.470   8.886  18.978  0.00  0.00    +0.000 A 
ATOM     18  C   UNL     1       0.703   9.833  18.280  0.00  0.00    +0.000 A 
ATOM     19  C   UNL     1      -0.284  10.573  18.934  0.00  0.00    +0.000 A 
ATOM     20  C   UNL     1      -0.505  10.385  20.296  0.00  0.00    +0.000 A 
ATOM     21  C   UNL     1       0.261   9.461  21.008  0.00  0.00    +0.000 A 
ATOM     22  C   UNL     1       1.243   8.712  20.352  0.00  0.00    +0.000 A 
BRANCH  22  23
ATOM     23  O   UNL     1       1.972   7.805  21.076  0.00  0.00    +0.000 OA
ATOM     24  H   UNL     1       1.827   7.977  22.023  0.00  0.00    +0.000 HD
ENDBRANCH  22  23
ENDBRANCH  14  17
ENDBRANCH   1  13
TORSDOF 5
ENDMDL
MODEL 9
REMARK VINA RESULT:      -7.1      4.116      7.318
REMARK  Name = 
REMARK  8 active torsions:
REMARK  status: ('A' for Active; 'I' for Inactive)
REMARK    1  A    between atoms: C_1  and  C_2
REMARK    2  A    between atoms: C_2  and  C_3
REMARK    3  A    between atoms: C_5  and  O_6
REMARK    4  A    between atoms: C_8  and  C_9
REMARK    5  A    between atoms: C_8  and  C_10
REMARK    6  A    between atoms: C_10  and  N_11
REMARK    7  A    between atoms: C_12  and  C_14
REMARK    8  A    between atoms: C_19  and  O_20
REMARK                            x       y       z     vdW  Elec       q    Type
REMARK                         _______ _______ _______ _____ _____    ______ ____
ROOT
ATOM      1  C   UNL     1       3.224   6.269  18.399  0.00  0.00    +0.000 C 
ENDROOT
BRANCH   1   8
ATOM      2  C   UNL     1       0.449   2.625  19.680  0.00  0.00    +0.000 C 
ATOM      3  C   UNL     1       1.853   3.000  20.192  0.00  0.00    +0.000 C 
ATOM      4  C   UNL     1       1.832   2.801  21.722  0.00  0.00    +0.000 C 
ATOM      5  C   UNL     1       2.926   2.071  19.584  0.00  0.00    +0.000 C 
ATOM      6  C   UNL     1       3.229   2.375  18.116  0.00  0.00    +0.000 C 
ATOM      7  C   UNL     1       3.632   3.838  17.911  0.00  0.00    +0.000 C 
ATOM      8  C   UNL     1       2.581   4.848  18.431  0.00  0.00    +0.000 C 
ATOM      9  C   UNL     1       1.354   4.863  17.498  0.00  0.00    +0.000 C 
ATOM     10  C   UNL     1       2.212   4.481  19.897  0.00  0.00    +0.000 C 
BRANCH   6  11
ATOM     11  O   UNL     1       4.292   1.531  17.676  0.00  0.00    +0.000 OA
ATOM     12  H   UNL     1       4.705   1.939  16.900  0.00  0.00    +0.000 HD
ENDBRANCH   6  11
ENDBRANCH   1   8
BRANCH   1  13
ATOM     13  N   UNL     1       2.426   7.273  19.080  0.00  0.00    +0.000 N 
ATOM     14  C   UNL     1       2.019   8.451  18.496  0.00  0.00    +0.000 C 
ATOM     15  O   UNL     1       2.318   8.777  17.353  0.00  0.00    +0.000 OA
ATOM     16  H   UNL     1       2.202   7.145  20.063  0.00  0.00    +0.000 HD
BRANCH  14  17
ATOM     17  C   UNL     1       1.120   9.322  19.313  0.00  0.00    +0.000 A 
ATOM     18  C   UNL     1       0.351  10.273  18.622  0.00  0.00    +0.000 A 
ATOM     19  C   UNL     1      -0.544  11.099  19.305  0.00  0.00    +0.000 A 
ATOM     20  C   UNL     1      -0.669  10.995  20.689  0.00  0.00    +0.000 A 
ATOM     21  C   UNL     1       0.101  10.067  21.393  0.00  0.00    +0.000 A 
ATOM     22  C   UNL     1       0.990   9.233  20.708  0.00  0.00    +0.000 A 
BRANCH  22  23
ATOM     23  O   UNL     1       1.726   8.325  21.426  0.00  0.00    +0.000 OA
ATOM     24  H   UNL     1       2.154   8.791  22.166  0.00  0.00    +0.000 HD
ENDBRANCH  22  23
ENDBRANCH  14  17
ENDBRANCH   1  13
TORSDOF 5
ENDMDL
