MODEL 1
REMARK VINA RESULT:      -8.3      0.000      0.000
REMARK  Name = 
REMARK  4 active torsions:
REMARK  status: ('A' for Active; 'I' for Inactive)
REMARK    1  A    between atoms: C_2  and  C_14
REMARK    2  A    between atoms: N_3  and  C_4
REMARK    3  A    between atoms: C_17  and  S_18
REMARK    4  A    between atoms: S_18  and  N_21
REMARK                            x       y       z     vdW  Elec       q    Type
REMARK                         _______ _______ _______ _____ _____    ______ ____
ROOT
ATOM      1  C   UNL     1       1.505   9.059  19.164  0.00  0.00    +0.000 A 
ATOM      2  C   UNL     1       1.610   8.030  20.108  0.00  0.00    +0.000 A 
ATOM      3  C   UNL     1       2.340   6.877  19.813  0.00  0.00    +0.000 A 
ATOM      4  C   UNL     1       2.966   6.744  18.566  0.00  0.00    +0.000 A 
ATOM      5  C   UNL     1       2.918   7.797  17.644  0.00  0.00    +0.000 A 
ATOM      6  C   UNL     1       2.180   8.947  17.940  0.00  0.00    +0.000 A 
ENDROOT
BRANCH   1   8
ATOM      7  O   UNL     1       0.561  11.120  18.549  0.00  0.00    +0.000 OA
ATOM      8  C   UNL     1       0.731  10.301  19.443  0.00  0.00    +0.000 C 
ATOM      9  N   UNL     1       0.219  10.413  20.719  0.00  0.00    +0.000 N 
ATOM     10  H   UNL     1       0.232   9.586  21.301  0.00  0.00    +0.000 HD
BRANCH   9  11
ATOM     11  C   UNL     1      -0.591  11.536  21.198  0.00  0.00    +0.000 C 
ATOM     12  C   UNL     1      -1.797  11.812  20.265  0.00  0.00    +0.000 C 
ATOM     13  C   UNL     1      -2.654  12.963  20.816  0.00  0.00    +0.000 C 
ATOM     14  C   UNL     1      -3.181  12.582  22.209  0.00  0.00    +0.000 C 
ATOM     15  C   UNL     1      -2.003  12.326  23.164  0.00  0.00    +0.000 C 
ATOM     16  C   UNL     1      -1.147  13.596  23.270  0.00  0.00    +0.000 C 
ATOM     17  C   UNL     1      -0.608  13.983  21.884  0.00  0.00    +0.000 C 
ATOM     18  C   UNL     1      -1.788  14.231  20.929  0.00  0.00    +0.000 C 
ATOM     19  C   UNL     1       0.252  12.832  21.334  0.00  0.00    +0.000 C 
ATOM     20  C   UNL     1      -1.142  11.183  22.603  0.00  0.00    +0.000 C 
ENDBRANCH   9  11
ENDBRANCH   1   8
BRANCH   4  21
ATOM     21  S   UNL     1       3.969   5.300  18.230  0.00  0.00    +0.000 S 
ATOM     22  O   UNL     1       4.480   4.844  19.503  0.00  0.00    +0.000 OA
ATOM     23  O   UNL     1       3.168   4.432  17.392  0.00  0.00    +0.000 OA
BRANCH  21  24
ATOM     24  N   UNL     1       5.267   5.845  17.309  0.00  0.00    +0.000 NA
ATOM     25  C   UNL     1       6.590   6.077  17.934  0.00  0.00    +0.000 C 
ATOM     26  C   UNL     1       7.494   4.855  17.749  0.00  0.00    +0.000 C 
ATOM     27  O   UNL     1       7.617   4.482  16.368  0.00  0.00    +0.000 OA
ATOM     28  C   UNL     1       6.344   4.245  15.748  0.00  0.00    +0.000 C 
ATOM     29  C   UNL     1       5.406   5.446  15.888  0.00  0.00    +0.000 C 
ENDBRANCH  21  24
ENDBRANCH   4  21
TORSDOF 4
ENDMDL
MODEL 2
REMARK VINA RESULT:      -8.3      0.138      1.429
REMARK  Name = 
REMARK  4 active torsions:
REMARK  status: ('A' for Active; 'I' for Inactive)
REMARK    1  A    between atoms: C_2  and  C_14
REMARK    2  A    between atoms: N_3  and  C_4
REMARK    3  A    between atoms: C_17  and  S_18
REMARK    4  A    between atoms: S_18  and  N_21
REMARK                            x       y       z     vdW  Elec       q    Type
REMARK                         _______ _______ _______ _____ _____    ______ ____
ROOT
ATOM      1  C   UNL     1       1.575   8.989  19.147  0.00  0.00    +0.000 A 
ATOM      2  C   UNL     1       1.695   7.960  20.091  0.00  0.00    +0.000 A 
ATOM      3  C   UNL     1       2.431   6.812  19.790  0.00  0.00    +0.000 A 
ATOM      4  C   UNL     1       3.048   6.683  18.538  0.00  0.00    +0.000 A 
ATOM      5  C   UNL     1       2.985   7.736  17.616  0.00  0.00    +0.000 A 
ATOM      6  C   UNL     1       2.241   8.881  17.918  0.00  0.00    +0.000 A 
ENDROOT
BRANCH   1   8
ATOM      7  O   UNL     1       0.634  11.055  18.546  0.00  0.00    +0.000 OA
ATOM      8  C   UNL     1       0.794  10.225  19.432  0.00  0.00    +0.000 C 
ATOM      9  N   UNL     1       0.268  10.320  20.703  0.00  0.00    +0.000 N 
ATOM     10  H   UNL     1       0.275   9.486  21.275  0.00  0.00    +0.000 HD
BRANCH   9  11
ATOM     11  C   UNL     1      -0.551  11.435  21.187  0.00  0.00    +0.000 C 
ATOM     12  C   UNL     1      -1.126  11.154  22.598  0.00  0.00    +0.000 C 
ATOM     13  C   UNL     1      -1.941  12.358  23.098  0.00  0.00    +0.000 C 
ATOM     14  C   UNL     1      -1.030  13.594  23.170  0.00  0.00    +0.000 C 
ATOM     15  C   UNL     1      -0.463  13.910  21.777  0.00  0.00    +0.000 C 
ATOM     16  C   UNL     1      -1.621  14.184  20.806  0.00  0.00    +0.000 C 
ATOM     17  C   UNL     1      -2.535  12.952  20.719  0.00  0.00    +0.000 C 
ATOM     18  C   UNL     1      -3.095  12.633  22.116  0.00  0.00    +0.000 C 
ATOM     19  C   UNL     1      -1.720  11.748  20.215  0.00  0.00    +0.000 C 
ATOM     20  C   UNL     1       0.341  12.700  21.275  0.00  0.00    +0.000 C 
ENDBRANCH   9  11
ENDBRANCH   1   8
BRANCH   4  21
ATOM     21  S   UNL     1       4.058   5.247  18.195  0.00  0.00    +0.000 S 
ATOM     22  O   UNL     1       4.507   4.740  19.472  0.00  0.00    +0.000 OA
ATOM     23  O   UNL     1       3.293   4.417  17.288  0.00  0.00    +0.000 OA
BRANCH  21  24
ATOM     24  N   UNL     1       5.400   5.817  17.355  0.00  0.00    +0.000 NA
ATOM     25  C   UNL     1       6.698   5.999  18.045  0.00  0.00    +0.000 C 
ATOM     26  C   UNL     1       7.594   4.774  17.837  0.00  0.00    +0.000 C 
ATOM     27  O   UNL     1       7.770   4.468  16.445  0.00  0.00    +0.000 OA
ATOM     28  C   UNL     1       6.521   4.281  15.762  0.00  0.00    +0.000 C 
ATOM     29  C   UNL     1       5.593   5.487  15.923  0.00  0.00    +0.000 C 
ENDBRANCH  21  24
ENDBRANCH   4  21
TORSDOF 4
ENDMDL
MODEL 3
REMARK VINA RESULT:      -8.3      0.085      1.433
REMARK  Name = 
REMARK  4 active torsions:
REMARK  status: ('A' for Active; 'I' for Inactive)
REMARK    1  A    between atoms: C_2  and  C_14
REMARK    2  A    between atoms: N_3  and  C_4
REMARK    3  A    between atoms: C_17  and  S_18
REMARK    4  A    between atoms: S_18  and  N_21
REMARK                            x       y       z     vdW  Elec       q    Type
REMARK                         _______ _______ _______ _____ _____    ______ ____
ROOT
ATOM      1  C   UNL     1       1.539   9.060  19.194  0.00  0.00    +0.000 A 
ATOM      2  C   UNL     1       1.639   8.015  20.122  0.00  0.00    +0.000 A 
ATOM      3  C   UNL     1       2.368   6.866  19.811  0.00  0.00    +0.000 A 
ATOM      4  C   UNL     1       2.999   6.752  18.564  0.00  0.00    +0.000 A 
ATOM      5  C   UNL     1       2.956   7.820  17.659  0.00  0.00    +0.000 A 
ATOM      6  C   UNL     1       2.218   8.966  17.972  0.00  0.00    +0.000 A 
ENDROOT
BRANCH   1   8
ATOM      7  O   UNL     1       0.563  11.111  18.599  0.00  0.00    +0.000 OA
ATOM      8  C   UNL     1       0.766  10.298  19.491  0.00  0.00    +0.000 C 
ATOM      9  N   UNL     1       0.294  10.414  20.782  0.00  0.00    +0.000 N 
ATOM     10  H   UNL     1       0.330   9.591  21.368  0.00  0.00    +0.000 HD
BRANCH   9  11
ATOM     11  C   UNL     1      -0.508  11.535  21.280  0.00  0.00    +0.000 C 
ATOM     12  C   UNL     1       0.328  12.836  21.384  0.00  0.00    +0.000 C 
ATOM     13  C   UNL     1      -0.549  14.004  21.864  0.00  0.00    +0.000 C 
ATOM     14  C   UNL     1      -1.693  14.226  20.861  0.00  0.00    +0.000 C 
ATOM     15  C   UNL     1      -2.554  12.957  20.756  0.00  0.00    +0.000 C 
ATOM     16  C   UNL     1      -3.141  12.623  22.135  0.00  0.00    +0.000 C 
ATOM     17  C   UNL     1      -2.006  12.391  23.145  0.00  0.00    +0.000 C 
ATOM     18  C   UNL     1      -1.142  13.659  23.243  0.00  0.00    +0.000 C 
ATOM     19  C   UNL     1      -1.130  11.220  22.666  0.00  0.00    +0.000 C 
ATOM     20  C   UNL     1      -1.671  11.789  20.288  0.00  0.00    +0.000 C 
ENDBRANCH   9  11
ENDBRANCH   1   8
BRANCH   4  21
ATOM     21  S   UNL     1       4.001   5.313  18.209  0.00  0.00    +0.000 S 
ATOM     22  O   UNL     1       4.477   4.813  19.479  0.00  0.00    +0.000 OA
ATOM     23  O   UNL     1       3.215   4.477  17.324  0.00  0.00    +0.000 OA
BRANCH  21  24
ATOM     24  N   UNL     1       5.325   5.876  17.337  0.00  0.00    +0.000 NA
ATOM     25  C   UNL     1       6.626   6.102  18.007  0.00  0.00    +0.000 C 
ATOM     26  C   UNL     1       7.540   4.886  17.830  0.00  0.00    +0.000 C 
ATOM     27  O   UNL     1       7.707   4.536  16.447  0.00  0.00    +0.000 OA
ATOM     28  C   UNL     1       6.454   4.306  15.784  0.00  0.00    +0.000 C 
ATOM     29  C   UNL     1       5.509   5.501  15.915  0.00  0.00    +0.000 C 
ENDBRANCH  21  24
ENDBRANCH   4  21
TORSDOF 4
ENDMDL
MODEL 4
REMARK VINA RESULT:      -8.2      3.433      9.839
REMARK  Name = 
REMARK  4 active torsions:
REMARK  status: ('A' for Active; 'I' for Inactive)
REMARK    1  A    between atoms: C_2  and  C_14
REMARK    2  A    between atoms: N_3  and  C_4
REMARK    3  A    between atoms: C_17  and  S_18
REMARK    4  A    between atoms: S_18  and  N_21
REMARK                            x       y       z     vdW  Elec       q    Type
REMARK                         _______ _______ _______ _____ _____    ______ ____
ROOT
ATOM      1  C   UNL     1       1.510   8.653  19.865  0.00  0.00    +0.000 A 
ATOM      2  C   UNL     1       1.134   9.798  19.151  0.00  0.00    +0.000 A 
ATOM      3  C   UNL     1       0.510  10.862  19.807  0.00  0.00    +0.000 A 
ATOM      4  C   UNL     1       0.252  10.783  21.182  0.00  0.00    +0.000 A 
ATOM      5  C   UNL     1       0.684   9.668  21.911  0.00  0.00    +0.000 A 
ATOM      6  C   UNL     1       1.302   8.602  21.250  0.00  0.00    +0.000 A 
ENDROOT
BRANCH   1   8
ATOM      7  O   UNL     1       2.858   7.688  18.202  0.00  0.00    +0.000 OA
ATOM      8  C   UNL     1       2.172   7.498  19.198  0.00  0.00    +0.000 C 
ATOM      9  N   UNL     1       1.981   6.270  19.798  0.00  0.00    +0.000 N 
ATOM     10  H   UNL     1       1.586   6.262  20.728  0.00  0.00    +0.000 HD
BRANCH   9  11
ATOM     11  C   UNL     1       2.561   5.010  19.324  0.00  0.00    +0.000 C 
ATOM     12  C   UNL     1       4.110   5.043  19.359  0.00  0.00    +0.000 C 
ATOM     13  C   UNL     1       4.689   3.694  18.901  0.00  0.00    +0.000 C 
ATOM     14  C   UNL     1       4.194   2.584  19.842  0.00  0.00    +0.000 C 
ATOM     15  C   UNL     1       2.659   2.513  19.810  0.00  0.00    +0.000 C 
ATOM     16  C   UNL     1       2.192   2.215  18.377  0.00  0.00    +0.000 C 
ATOM     17  C   UNL     1       2.675   3.323  17.428  0.00  0.00    +0.000 C 
ATOM     18  C   UNL     1       4.210   3.397  17.468  0.00  0.00    +0.000 C 
ATOM     19  C   UNL     1       2.092   4.672  17.884  0.00  0.00    +0.000 C 
ATOM     20  C   UNL     1       2.084   3.867  20.256  0.00  0.00    +0.000 C 
ENDBRANCH   9  11
ENDBRANCH   1   8
BRANCH   4  21
ATOM     21  S   UNL     1      -0.470  12.185  22.028  0.00  0.00    +0.000 S 
ATOM     22  O   UNL     1      -1.029  11.683  23.263  0.00  0.00    +0.000 OA
ATOM     23  O   UNL     1       0.540  13.223  22.032  0.00  0.00    +0.000 OA
BRANCH  21  24
ATOM     24  N   UNL     1      -1.737  12.710  21.053  0.00  0.00    +0.000 NA
ATOM     25  C   UNL     1      -3.140  12.589  21.513  0.00  0.00    +0.000 C 
ATOM     26  C   UNL     1      -3.614  13.903  22.140  0.00  0.00    +0.000 C 
ATOM     27  O   UNL     1      -3.440  15.016  21.250  0.00  0.00    +0.000 OA
ATOM     28  C   UNL     1      -2.083  15.153  20.801  0.00  0.00    +0.000 C 
ATOM     29  C   UNL     1      -1.565  13.870  20.148  0.00  0.00    +0.000 C 
ENDBRANCH  21  24
ENDBRANCH   4  21
TORSDOF 4
ENDMDL
MODEL 5
REMARK VINA RESULT:      -8.2      3.431      9.847
REMARK  Name = 
REMARK  4 active torsions:
REMARK  status: ('A' for Active; 'I' for Inactive)
REMARK    1  A    between atoms: C_2  and  C_14
REMARK    2  A    between atoms: N_3  and  C_4
REMARK    3  A    between atoms: C_17  and  S_18
REMARK    4  A    between atoms: S_18  and  N_21
REMARK                            x       y       z     vdW  Elec       q    Type
REMARK                         _______ _______ _______ _____ _____    ______ ____
ROOT
ATOM      1  C   UNL     1       1.480   8.579  19.898  0.00  0.00    +0.000 A 
ATOM      2  C   UNL     1       1.117   9.728  19.183  0.00  0.00    +0.000 A 
ATOM      3  C   UNL     1       0.496  10.795  19.835  0.00  0.00    +0.000 A 
ATOM      4  C   UNL     1       0.228  10.717  21.209  0.00  0.00    +0.000 A 
ATOM      5  C   UNL     1       0.646   9.597  21.940  0.00  0.00    +0.000 A 
ATOM      6  C   UNL     1       1.261   8.528  21.282  0.00  0.00    +0.000 A 
ENDROOT
BRANCH   1   8
ATOM      7  O   UNL     1       2.800   7.601  18.220  0.00  0.00    +0.000 OA
ATOM      8  C   UNL     1       2.139   7.420  19.234  0.00  0.00    +0.000 C 
ATOM      9  N   UNL     1       1.974   6.201  19.857  0.00  0.00    +0.000 N 
ATOM     10  H   UNL     1       1.600   6.203  20.797  0.00  0.00    +0.000 HD
BRANCH   9  11
ATOM     11  C   UNL     1       2.555   4.939  19.390  0.00  0.00    +0.000 C 
ATOM     12  C   UNL     1       2.116   3.743  20.274  0.00  0.00    +0.000 C 
ATOM     13  C   UNL     1       2.702   2.429  19.734  0.00  0.00    +0.000 C 
ATOM     14  C   UNL     1       2.198   2.199  18.300  0.00  0.00    +0.000 C 
ATOM     15  C   UNL     1       2.640   3.359  17.395  0.00  0.00    +0.000 C 
ATOM     16  C   UNL     1       4.173   3.446  17.390  0.00  0.00    +0.000 C 
ATOM     17  C   UNL     1       4.690   3.684  18.817  0.00  0.00    +0.000 C 
ATOM     18  C   UNL     1       4.239   2.526  19.723  0.00  0.00    +0.000 C 
ATOM     19  C   UNL     1       4.105   5.002  19.356  0.00  0.00    +0.000 C 
ATOM     20  C   UNL     1       2.062   4.673  17.945  0.00  0.00    +0.000 C 
ENDBRANCH   9  11
ENDBRANCH   1   8
BRANCH   4  21
ATOM     21  S   UNL     1      -0.490  12.123  22.051  0.00  0.00    +0.000 S 
ATOM     22  O   UNL     1      -1.028  11.630  23.299  0.00  0.00    +0.000 OA
ATOM     23  O   UNL     1       0.513  13.167  22.031  0.00  0.00    +0.000 OA
BRANCH  21  24
ATOM     24  N   UNL     1      -1.774  12.630  21.090  0.00  0.00    +0.000 NA
ATOM     25  C   UNL     1      -3.169  12.512  21.574  0.00  0.00    +0.000 C 
ATOM     26  C   UNL     1      -3.638  13.833  22.191  0.00  0.00    +0.000 C 
ATOM     27  O   UNL     1      -3.481  14.935  21.282  0.00  0.00    +0.000 OA
ATOM     28  C   UNL     1      -2.132  15.068  20.810  0.00  0.00    +0.000 C 
ATOM     29  C   UNL     1      -1.620  13.778  20.166  0.00  0.00    +0.000 C 
ENDBRANCH  21  24
ENDBRANCH   4  21
TORSDOF 4
ENDMDL
MODEL 6
REMARK VINA RESULT:      -8.1      3.322      9.747
REMARK  Name = 
REMARK  4 active torsions:
REMARK  status: ('A' for Active; 'I' for Inactive)
REMARK    1  A    between atoms: C_2  and  C_14
REMARK    2  A    between atoms: N_3  and  C_4
REMARK    3  A    between atoms: C_17  and  S_18
REMARK    4  A    between atoms: S_18  and  N_21
REMARK                            x       y       z     vdW  Elec       q    Type
REMARK                         _______ _______ _______ _____ _____    ______ ____
ROOT
ATOM      1  C   UNL     1       1.672   8.773  19.184  0.00  0.00    +0.000 A 
ATOM      2  C   UNL     1       1.577   9.893  18.348  0.00  0.00    +0.000 A 
ATOM      3  C   UNL     1       0.988  11.071  18.814  0.00  0.00    +0.000 A 
ATOM      4  C   UNL     1       0.483  11.132  20.120  0.00  0.00    +0.000 A 
ATOM      5  C   UNL     1       0.633  10.037  20.980  0.00  0.00    +0.000 A 
ATOM      6  C   UNL     1       1.218   8.858  20.507  0.00  0.00    +0.000 A 
ENDROOT
BRANCH   1   8
ATOM      7  O   UNL     1       3.061   7.515  17.768  0.00  0.00    +0.000 OA
ATOM      8  C   UNL     1       2.290   7.500  18.719  0.00  0.00    +0.000 C 
ATOM      9  N   UNL     1       1.960   6.375  19.445  0.00  0.00    +0.000 N 
ATOM     10  H   UNL     1       1.497   6.512  20.334  0.00  0.00    +0.000 HD
BRANCH   9  11
ATOM     11  C   UNL     1       2.472   5.028  19.178  0.00  0.00    +0.000 C 
ATOM     12  C   UNL     1       4.016   4.967  19.303  0.00  0.00    +0.000 C 
ATOM     13  C   UNL     1       4.521   3.535  19.063  0.00  0.00    +0.000 C 
ATOM     14  C   UNL     1       3.900   2.596  20.109  0.00  0.00    +0.000 C 
ATOM     15  C   UNL     1       2.367   2.618  19.992  0.00  0.00    +0.000 C 
ATOM     16  C   UNL     1       1.957   2.160  18.585  0.00  0.00    +0.000 C 
ATOM     17  C   UNL     1       2.566   3.096  17.530  0.00  0.00    +0.000 C 
ATOM     18  C   UNL     1       4.099   3.078  17.654  0.00  0.00    +0.000 C 
ATOM     19  C   UNL     1       2.058   4.529  17.768  0.00  0.00    +0.000 C 
ATOM     20  C   UNL     1       1.867   4.053  20.220  0.00  0.00    +0.000 C 
ENDBRANCH   9  11
ENDBRANCH   1   8
BRANCH   4  21
ATOM     21  S   UNL     1      -0.193  12.671  20.734  0.00  0.00    +0.000 S 
ATOM     22  O   UNL     1       0.670  13.104  21.810  0.00  0.00    +0.000 OA
ATOM     23  O   UNL     1      -0.420  13.509  19.575  0.00  0.00    +0.000 OA
BRANCH  21  24
ATOM     24  N   UNL     1      -1.695  12.287  21.389  0.00  0.00    +0.000 NA
ATOM     25  C   UNL     1      -1.865  12.152  22.854  0.00  0.00    +0.000 C 
ATOM     26  C   UNL     1      -2.389  13.459  23.456  0.00  0.00    +0.000 C 
ATOM     27  O   UNL     1      -3.599  13.898  22.818  0.00  0.00    +0.000 OA
ATOM     28  C   UNL     1      -3.448  14.041  21.397  0.00  0.00    +0.000 C 
ATOM     29  C   UNL     1      -2.944  12.754  20.742  0.00  0.00    +0.000 C 
ENDBRANCH  21  24
ENDBRANCH   4  21
TORSDOF 4
ENDMDL
MODEL 7
REMARK VINA RESULT:      -8.1      3.385      9.401
REMARK  Name = 
REMARK  4 active torsions:
REMARK  status: ('A' for Active; 'I' for Inactive)
REMARK    1  A    between atoms: C_2  and  C_14
REMARK    2  A    between atoms: N_3  and  C_4
REMARK    3  A    between atoms: C_17  and  S_18
REMARK    4  A    between atoms: S_18  and  N_21
REMARK                            x       y       z     vdW  Elec       q    Type
REMARK                         _______ _______ _______ _____ _____    ______ ____
ROOT
ATOM      1  C   UNL     1       1.569   8.610  19.823  0.00  0.00    +0.000 A 
ATOM      2  C   UNL     1       1.442   8.670  21.217  0.00  0.00    +0.000 A 
ATOM      3  C   UNL     1       0.836   9.774  21.821  0.00  0.00    +0.000 A 
ATOM      4  C   UNL     1       0.358  10.829  21.032  0.00  0.00    +0.000 A 
ATOM      5  C   UNL     1       0.424  10.744  19.636  0.00  0.00    +0.000 A 
ATOM      6  C   UNL     1       1.038   9.640  19.035  0.00  0.00    +0.000 A 
ENDROOT
BRANCH   1   8
ATOM      7  O   UNL     1       2.873   7.635  18.131  0.00  0.00    +0.000 OA
ATOM      8  C   UNL     1       2.214   7.451  19.146  0.00  0.00    +0.000 C 
ATOM      9  N   UNL     1       2.039   6.227  19.758  0.00  0.00    +0.000 N 
ATOM     10  H   UNL     1       1.668   6.224  20.699  0.00  0.00    +0.000 HD
BRANCH   9  11
ATOM     11  C   UNL     1       2.605   4.964  19.277  0.00  0.00    +0.000 C 
ATOM     12  C   UNL     1       4.155   4.993  19.282  0.00  0.00    +0.000 C 
ATOM     13  C   UNL     1       4.721   3.641  18.817  0.00  0.00    +0.000 C 
ATOM     14  C   UNL     1       4.242   2.535  19.771  0.00  0.00    +0.000 C 
ATOM     15  C   UNL     1       2.706   2.467  19.768  0.00  0.00    +0.000 C 
ATOM     16  C   UNL     1       2.212   2.167  18.346  0.00  0.00    +0.000 C 
ATOM     17  C   UNL     1       2.678   3.270  17.384  0.00  0.00    +0.000 C 
ATOM     18  C   UNL     1       4.215   3.341  17.394  0.00  0.00    +0.000 C 
ATOM     19  C   UNL     1       2.109   4.623  17.847  0.00  0.00    +0.000 C 
ATOM     20  C   UNL     1       2.144   3.824  20.221  0.00  0.00    +0.000 C 
ENDBRANCH   9  11
ENDBRANCH   1   8
BRANCH   4  21
ATOM     21  S   UNL     1      -0.493  12.198  21.809  0.00  0.00    +0.000 S 
ATOM     22  O   UNL     1      -1.578  12.568  20.928  0.00  0.00    +0.000 OA
ATOM     23  O   UNL     1      -0.746  11.798  23.178  0.00  0.00    +0.000 OA
BRANCH  21  24
ATOM     24  N   UNL     1       0.611  13.468  21.844  0.00  0.00    +0.000 NA
ATOM     25  C   UNL     1       1.719  13.529  20.863  0.00  0.00    +0.000 C 
ATOM     26  C   UNL     1       1.340  14.426  19.681  0.00  0.00    +0.000 C 
ATOM     27  O   UNL     1       0.935  15.736  20.109  0.00  0.00    +0.000 OA
ATOM     28  C   UNL     1      -0.144  15.695  21.056  0.00  0.00    +0.000 C 
ATOM     29  C   UNL     1       0.190  14.824  22.268  0.00  0.00    +0.000 C 
ENDBRANCH  21  24
ENDBRANCH   4  21
TORSDOF 4
ENDMDL
MODEL 8
REMARK VINA RESULT:      -8.1      3.399      9.720
REMARK  Name = 
REMARK  4 active torsions:
REMARK  status: ('A' for Active; 'I' for Inactive)
REMARK    1  A    between atoms: C_2  and  C_14
REMARK    2  A    between atoms: N_3  and  C_4
REMARK    3  A    between atoms: C_17  and  S_18
REMARK    4  A    between atoms: S_18  and  N_21
REMARK                            x       y       z     vdW  Elec       q    Type
REMARK                         _______ _______ _______ _____ _____    ______ ____
ROOT
ATOM      1  C   UNL     1       1.554   8.714  19.779  0.00  0.00    +0.000 A 
ATOM      2  C   UNL     1       1.171   8.704  21.126  0.00  0.00    +0.000 A 
ATOM      3  C   UNL     1       0.640   9.854  21.714  0.00  0.00    +0.000 A 
ATOM      4  C   UNL     1       0.495  11.025  20.958  0.00  0.00    +0.000 A 
ATOM      5  C   UNL     1       0.817  11.021  19.595  0.00  0.00    +0.000 A 
ATOM      6  C   UNL     1       1.354   9.870  19.011  0.00  0.00    +0.000 A 
ENDROOT
BRANCH   1   8
ATOM      7  O   UNL     1       2.676   7.617  18.031  0.00  0.00    +0.000 OA
ATOM      8  C   UNL     1       2.128   7.507  19.120  0.00  0.00    +0.000 C 
ATOM      9  N   UNL     1       2.022   6.330  19.831  0.00  0.00    +0.000 N 
ATOM     10  H   UNL     1       1.752   6.395  20.804  0.00  0.00    +0.000 HD
BRANCH   9  11
ATOM     11  C   UNL     1       2.539   5.034  19.382  0.00  0.00    +0.000 C 
ATOM     12  C   UNL     1       4.089   5.019  19.340  0.00  0.00    +0.000 C 
ATOM     13  C   UNL     1       4.603   3.636  18.911  0.00  0.00    +0.000 C 
ATOM     14  C   UNL     1       4.123   2.580  19.921  0.00  0.00    +0.000 C 
ATOM     15  C   UNL     1       2.587   2.556  19.966  0.00  0.00    +0.000 C 
ATOM     16  C   UNL     1       2.041   2.216  18.572  0.00  0.00    +0.000 C 
ATOM     17  C   UNL     1       2.508   3.269  17.555  0.00  0.00    +0.000 C 
ATOM     18  C   UNL     1       4.045   3.296  17.517  0.00  0.00    +0.000 C 
ATOM     19  C   UNL     1       1.990   4.654  17.982  0.00  0.00    +0.000 C 
ATOM     20  C   UNL     1       2.076   3.945  20.383  0.00  0.00    +0.000 C 
ENDBRANCH   9  11
ENDBRANCH   1   8
BRANCH   4  21
ATOM     21  S   UNL     1      -0.264  12.466  21.698  0.00  0.00    +0.000 S 
ATOM     22  O   UNL     1      -1.061  11.993  22.808  0.00  0.00    +0.000 OA
ATOM     23  O   UNL     1       0.798  13.430  21.899  0.00  0.00    +0.000 OA
BRANCH  21  24
ATOM     24  N   UNL     1      -1.305  13.089  20.532  0.00  0.00    +0.000 NA
ATOM     25  C   UNL     1      -2.561  12.382  20.189  0.00  0.00    +0.000 C 
ATOM     26  C   UNL     1      -3.739  12.969  20.972  0.00  0.00    +0.000 C 
ATOM     27  O   UNL     1      -3.858  14.387  20.781  0.00  0.00    +0.000 OA
ATOM     28  C   UNL     1      -2.651  15.089  21.117  0.00  0.00    +0.000 C 
ATOM     29  C   UNL     1      -1.443  14.553  20.347  0.00  0.00    +0.000 C 
ENDBRANCH  21  24
ENDBRANCH   4  21
TORSDOF 4
ENDMDL
MODEL 9
REMARK VINA RESULT:      -8.1      3.395      9.507
REMARK  Name = 
REMARK  4 active torsions:
REMARK  status: ('A' for Active; 'I' for Inactive)
REMARK    1  A    between atoms: C_2  and  C_14
REMARK    2  A    between atoms: N_3  and  C_4
REMARK    3  A    between atoms: C_17  and  S_18
REMARK    4  A    between atoms: S_18  and  N_21
REMARK                            x       y       z     vdW  Elec       q    Type
REMARK                         _______ _______ _______ _____ _____    ______ ____
ROOT
ATOM      1  C   UNL     1       1.438   8.534  20.048  0.00  0.00    +0.000 A 
ATOM      2  C   UNL     1       1.314   8.588  21.443  0.00  0.00    +0.000 A 
ATOM      3  C   UNL     1       0.634   9.647  22.048  0.00  0.00    +0.000 A 
ATOM      4  C   UNL     1       0.077  10.664  21.259  0.00  0.00    +0.000 A 
ATOM      5  C   UNL     1       0.143  10.580  19.863  0.00  0.00    +0.000 A 
ATOM      6  C   UNL     1       0.831   9.522  19.261  0.00  0.00    +0.000 A 
ENDROOT
BRANCH   1   8
ATOM      7  O   UNL     1       2.916   7.672  18.439  0.00  0.00    +0.000 OA
ATOM      8  C   UNL     1       2.161   7.422  19.370  0.00  0.00    +0.000 C 
ATOM      9  N   UNL     1       1.941   6.162  19.887  0.00  0.00    +0.000 N 
ATOM     10  H   UNL     1       1.478   6.099  20.784  0.00  0.00    +0.000 HD
BRANCH   9  11
ATOM     11  C   UNL     1       2.568   4.934  19.389  0.00  0.00    +0.000 C 
ATOM     12  C   UNL     1       2.140   3.696  20.218  0.00  0.00    +0.000 C 
ATOM     13  C   UNL     1       2.775   2.418  19.646  0.00  0.00    +0.000 C 
ATOM     14  C   UNL     1       2.312   2.227  18.193  0.00  0.00    +0.000 C 
ATOM     15  C   UNL     1       2.743   3.432  17.341  0.00  0.00    +0.000 C 
ATOM     16  C   UNL     1       4.273   3.560  17.377  0.00  0.00    +0.000 C 
ATOM     17  C   UNL     1       4.748   3.759  18.824  0.00  0.00    +0.000 C 
ATOM     18  C   UNL     1       4.309   2.557  19.676  0.00  0.00    +0.000 C 
ATOM     19  C   UNL     1       4.116   5.040  19.396  0.00  0.00    +0.000 C 
ATOM     20  C   UNL     1       2.117   4.709  17.923  0.00  0.00    +0.000 C 
ENDBRANCH   9  11
ENDBRANCH   1   8
BRANCH   4  21
ATOM     21  S   UNL     1      -0.865  11.970  22.039  0.00  0.00    +0.000 S 
ATOM     22  O   UNL     1      -1.960  12.281  21.147  0.00  0.00    +0.000 OA
ATOM     23  O   UNL     1      -1.109  11.541  23.400  0.00  0.00    +0.000 OA
BRANCH  21  24
ATOM     24  N   UNL     1       0.158  13.304  22.099  0.00  0.00    +0.000 NA
ATOM     25  C   UNL     1       1.188  13.511  21.055  0.00  0.00    +0.000 C 
ATOM     26  C   UNL     1       0.671  14.465  19.973  0.00  0.00    +0.000 C 
ATOM     27  O   UNL     1       0.217  15.710  20.527  0.00  0.00    +0.000 OA
ATOM     28  C   UNL     1      -0.788  15.527  21.536  0.00  0.00    +0.000 C 
ATOM     29  C   UNL     1      -0.315  14.595  22.653  0.00  0.00    +0.000 C 
ENDBRANCH  21  24
ENDBRANCH   4  21
TORSDOF 4
ENDMDL
