MODEL 1
REMARK VINA RESULT:      -6.7      0.000      0.000
REMARK  Name = 
REMARK  12 active torsions:
REMARK  status: ('A' for Active; 'I' for Inactive)
REMARK    1  A    between atoms: C_1  and  C_2
REMARK    2  A    between atoms: C_5  and  N_6
REMARK    3  A    between atoms: N_9  and  C_10
REMARK    4  A    between atoms: C_10  and  C_11
REMARK    5  A    between atoms: C_11  and  O_12
REMARK    6  A    between atoms: O_12  and  N_13
REMARK    7  A    between atoms: N_13  and  C_14
REMARK    8  A    between atoms: N_13  and  C_15
REMARK    9  A    between atoms: C_15  and  C_16
REMARK   10  A    between atoms: C_16  and  C_17
REMARK   11  A    between atoms: C_17  and  C_18
REMARK   12  A    between atoms: C_18  and  N_19
REMARK                            x       y       z     vdW  Elec       q    Type
REMARK                         _______ _______ _______ _____ _____    ______ ____
ROOT
ATOM      1  N   UNL     1       1.990   3.229  20.024  0.00  0.00    +0.000 NA
ATOM      2  C   UNL     1       1.088   2.206  19.476  0.00  0.00    +0.000 C 
ENDROOT
BRANCH   1   3
ATOM      3  O   UNL     1       1.547   4.524  19.503  0.00  0.00    +0.000 OA
BRANCH   3   4
ATOM      4  C   UNL     1       1.482   5.539  20.507  0.00  0.00    +0.000 C 
BRANCH   4   5
ATOM      5  C   UNL     1       2.544   6.630  20.406  0.00  0.00    +0.000 C 
BRANCH   5  11
ATOM      6  C   UNL     1       3.120   7.471  17.465  0.00  0.00    +0.000 C 
ATOM      7  C   UNL     1       2.260   8.202  18.432  0.00  0.00    +0.000 A 
ATOM      8  N   UNL     1       1.621   9.325  18.153  0.00  0.00    +0.000 NA
ATOM      9  C   UNL     1       0.936   9.674  19.285  0.00  0.00    +0.000 A 
ATOM     10  C   UNL     1       1.183   8.762  20.272  0.00  0.00    +0.000 A 
ATOM     11  N   UNL     1       2.022   7.816  19.743  0.00  0.00    +0.000 N 
BRANCH  10  12
ATOM     12  N   UNL     1       0.685   8.744  21.594  0.00  0.00    +0.000 N 
ATOM     13  O   UNL     1       1.420   9.218  22.465  0.00  0.00    +0.000 OA
ATOM     14  O   UNL     1      -0.439   8.264  21.760  0.00  0.00    +0.000 OA
ENDBRANCH  10  12
ENDBRANCH   5  11
ENDBRANCH   4   5
ENDBRANCH   3   4
ENDBRANCH   1   3
BRANCH   1  15
ATOM     15  C   UNL     1       3.322   3.057  19.404  0.00  0.00    +0.000 C 
BRANCH  15  16
ATOM     16  C   UNL     1       3.241   2.684  17.915  0.00  0.00    +0.000 C 
BRANCH  16  17
ATOM     17  C   UNL     1       3.689   3.800  16.964  0.00  0.00    +0.000 C 
BRANCH  17  18
ATOM     18  C   UNL     1       5.164   3.667  16.580  0.00  0.00    +0.000 C 
BRANCH  18  19
ATOM     19  N   UNL     1       6.003   4.828  16.802  0.00  0.00    +0.000 N 
ATOM     20  C   UNL     1       6.106   5.555  17.964  0.00  0.00    +0.000 A 
ATOM     21  C   UNL     1       7.052   6.522  17.715  0.00  0.00    +0.000 A 
ATOM     22  N   UNL     1       7.532   6.416  16.441  0.00  0.00    +0.000 NA
ATOM     23  C   UNL     1       6.889   5.395  15.913  0.00  0.00    +0.000 A 
ATOM     24  N   UNL     1       7.127   4.933  14.563  0.00  0.00    +0.000 N 
ATOM     25  O   UNL     1       6.472   3.964  14.158  0.00  0.00    +0.000 OA
ATOM     26  O   UNL     1       7.976   5.545  13.897  0.00  0.00    +0.000 OA
ENDBRANCH  18  19
ENDBRANCH  17  18
ENDBRANCH  16  17
ENDBRANCH  15  16
ENDBRANCH   1  15
TORSDOF 10
ENDMDL
MODEL 2
REMARK VINA RESULT:      -6.6      1.157      1.412
REMARK  Name = 
REMARK  12 active torsions:
REMARK  status: ('A' for Active; 'I' for Inactive)
REMARK    1  A    between atoms: C_1  and  C_2
REMARK    2  A    between atoms: C_5  and  N_6
REMARK    3  A    between atoms: N_9  and  C_10
REMARK    4  A    between atoms: C_10  and  C_11
REMARK    5  A    between atoms: C_11  and  O_12
REMARK    6  A    between atoms: O_12  and  N_13
REMARK    7  A    between atoms: N_13  and  C_14
REMARK    8  A    between atoms: N_13  and  C_15
REMARK    9  A    between atoms: C_15  and  C_16
REMARK   10  A    between atoms: C_16  and  C_17
REMARK   11  A    between atoms: C_17  and  C_18
REMARK   12  A    between atoms: C_18  and  N_19
REMARK                            x       y       z     vdW  Elec       q    Type
REMARK                         _______ _______ _______ _____ _____    ______ ____
ROOT
ATOM      1  N   UNL     1       2.305   4.363  19.748  0.00  0.00    +0.000 NA
ATOM      2  C   UNL     1       0.996   4.023  20.323  0.00  0.00    +0.000 C 
ENDROOT
BRANCH   1   3
ATOM      3  O   UNL     1       2.734   5.624  20.358  0.00  0.00    +0.000 OA
BRANCH   3   4
ATOM      4  C   UNL     1       1.679   6.580  20.471  0.00  0.00    +0.000 C 
BRANCH   4   5
ATOM      5  C   UNL     1       2.123   8.026  20.674  0.00  0.00    +0.000 C 
BRANCH   5  11
ATOM      6  C   UNL     1       1.976   9.073  17.747  0.00  0.00    +0.000 C 
ATOM      7  C   UNL     1       1.048   9.431  18.852  0.00  0.00    +0.000 A 
ATOM      8  N   UNL     1       0.024  10.257  18.722  0.00  0.00    +0.000 NA
ATOM      9  C   UNL     1      -0.585  10.316  19.946  0.00  0.00    +0.000 A 
ATOM     10  C   UNL     1       0.095   9.534  20.836  0.00  0.00    +0.000 A 
ATOM     11  N   UNL     1       1.135   8.960  20.154  0.00  0.00    +0.000 N 
BRANCH  10  12
ATOM     12  N   UNL     1      -0.187   9.314  22.204  0.00  0.00    +0.000 N 
ATOM     13  O   UNL     1      -0.889   8.335  22.470  0.00  0.00    +0.000 OA
ATOM     14  O   UNL     1       0.298  10.113  23.009  0.00  0.00    +0.000 OA
ENDBRANCH  10  12
ENDBRANCH   5  11
ENDBRANCH   4   5
ENDBRANCH   3   4
ENDBRANCH   1   3
BRANCH   1  15
ATOM     15  C   UNL     1       2.111   4.728  18.328  0.00  0.00    +0.000 C 
BRANCH  15  16
ATOM     16  C   UNL     1       2.601   3.638  17.361  0.00  0.00    +0.000 C 
BRANCH  16  17
ATOM     17  C   UNL     1       4.046   3.189  17.604  0.00  0.00    +0.000 C 
BRANCH  17  18
ATOM     18  C   UNL     1       4.981   3.637  16.479  0.00  0.00    +0.000 C 
BRANCH  18  19
ATOM     19  N   UNL     1       5.868   4.746  16.772  0.00  0.00    +0.000 N 
ATOM     20  C   UNL     1       5.998   5.396  17.976  0.00  0.00    +0.000 A 
ATOM     21  C   UNL     1       6.985   6.335  17.787  0.00  0.00    +0.000 A 
ATOM     22  N   UNL     1       7.464   6.286  16.509  0.00  0.00    +0.000 NA
ATOM     23  C   UNL     1       6.780   5.327  15.920  0.00  0.00    +0.000 A 
ATOM     24  N   UNL     1       7.001   4.940  14.543  0.00  0.00    +0.000 N 
ATOM     25  O   UNL     1       6.307   4.026  14.080  0.00  0.00    +0.000 OA
ATOM     26  O   UNL     1       7.877   5.554  13.916  0.00  0.00    +0.000 OA
ENDBRANCH  18  19
ENDBRANCH  17  18
ENDBRANCH  16  17
ENDBRANCH  15  16
ENDBRANCH   1  15
TORSDOF 10
ENDMDL
MODEL 3
REMARK VINA RESULT:      -6.5      2.846      4.009
REMARK  Name = 
REMARK  12 active torsions:
REMARK  status: ('A' for Active; 'I' for Inactive)
REMARK    1  A    between atoms: C_1  and  C_2
REMARK    2  A    between atoms: C_5  and  N_6
REMARK    3  A    between atoms: N_9  and  C_10
REMARK    4  A    between atoms: C_10  and  C_11
REMARK    5  A    between atoms: C_11  and  O_12
REMARK    6  A    between atoms: O_12  and  N_13
REMARK    7  A    between atoms: N_13  and  C_14
REMARK    8  A    between atoms: N_13  and  C_15
REMARK    9  A    between atoms: C_15  and  C_16
REMARK   10  A    between atoms: C_16  and  C_17
REMARK   11  A    between atoms: C_17  and  C_18
REMARK   12  A    between atoms: C_18  and  N_19
REMARK                            x       y       z     vdW  Elec       q    Type
REMARK                         _______ _______ _______ _____ _____    ______ ____
ROOT
ATOM      1  N   UNL     1       2.537   7.029  17.923  0.00  0.00    +0.000 NA
ATOM      2  C   UNL     1       3.885   7.381  17.457  0.00  0.00    +0.000 C 
ENDROOT
BRANCH   1   3
ATOM      3  O   UNL     1       2.122   8.060  18.877  0.00  0.00    +0.000 OA
BRANCH   3   4
ATOM      4  C   UNL     1       1.760   9.291  18.249  0.00  0.00    +0.000 C 
BRANCH   4   5
ATOM      5  C   UNL     1       0.361   9.807  18.574  0.00  0.00    +0.000 C 
BRANCH   5  11
ATOM      6  C   UNL     1       0.034   8.898  21.533  0.00  0.00    +0.000 C 
ATOM      7  C   UNL     1       0.242  10.293  21.064  0.00  0.00    +0.000 A 
ATOM      8  N   UNL     1       0.315  11.341  21.866  0.00  0.00    +0.000 NA
ATOM      9  C   UNL     1       0.522  12.430  21.064  0.00  0.00    +0.000 A 
ATOM     10  C   UNL     1       0.550  12.039  19.756  0.00  0.00    +0.000 A 
ATOM     11  N   UNL     1       0.378  10.680  19.738  0.00  0.00    +0.000 N 
BRANCH  10  12
ATOM     12  N   UNL     1       0.733  12.839  18.605  0.00  0.00    +0.000 N 
ATOM     13  O   UNL     1       1.896  13.001  18.226  0.00  0.00    +0.000 OA
ATOM     14  O   UNL     1      -0.284  13.298  18.078  0.00  0.00    +0.000 OA
ENDBRANCH  10  12
ENDBRANCH   5  11
ENDBRANCH   4   5
ENDBRANCH   3   4
ENDBRANCH   1   3
BRANCH   1  15
ATOM     15  C   UNL     1       2.636   5.816  18.763  0.00  0.00    +0.000 C 
BRANCH  15  16
ATOM     16  C   UNL     1       2.060   4.567  18.076  0.00  0.00    +0.000 C 
BRANCH  16  17
ATOM     17  C   UNL     1       3.103   3.719  17.342  0.00  0.00    +0.000 C 
BRANCH  17  18
ATOM     18  C   UNL     1       4.480   3.804  18.004  0.00  0.00    +0.000 C 
BRANCH  18  19
ATOM     19  N   UNL     1       5.591   4.184  17.152  0.00  0.00    +0.000 N 
ATOM     20  C   UNL     1       5.711   3.939  15.805  0.00  0.00    +0.000 A 
ATOM     21  C   UNL     1       6.897   4.524  15.425  0.00  0.00    +0.000 A 
ATOM     22  N   UNL     1       7.510   5.117  16.492  0.00  0.00    +0.000 NA
ATOM     23  C   UNL     1       6.709   4.900  17.515  0.00  0.00    +0.000 A 
ATOM     24  N   UNL     1       6.989   5.392  18.847  0.00  0.00    +0.000 N 
ATOM     25  O   UNL     1       6.174   5.136  19.742  0.00  0.00    +0.000 OA
ATOM     26  O   UNL     1       8.035   6.039  19.003  0.00  0.00    +0.000 OA
ENDBRANCH  18  19
ENDBRANCH  17  18
ENDBRANCH  16  17
ENDBRANCH  15  16
ENDBRANCH   1  15
TORSDOF 10
ENDMDL
MODEL 4
REMARK VINA RESULT:      -6.4      1.228      1.527
REMARK  Name = 
REMARK  12 active torsions:
REMARK  status: ('A' for Active; 'I' for Inactive)
REMARK    1  A    between atoms: C_1  and  C_2
REMARK    2  A    between atoms: C_5  and  N_6
REMARK    3  A    between atoms: N_9  and  C_10
REMARK    4  A    between atoms: C_10  and  C_11
REMARK    5  A    between atoms: C_11  and  O_12
REMARK    6  A    between atoms: O_12  and  N_13
REMARK    7  A    between atoms: N_13  and  C_14
REMARK    8  A    between atoms: N_13  and  C_15
REMARK    9  A    between atoms: C_15  and  C_16
REMARK   10  A    between atoms: C_16  and  C_17
REMARK   11  A    between atoms: C_17  and  C_18
REMARK   12  A    between atoms: C_18  and  N_19
REMARK                            x       y       z     vdW  Elec       q    Type
REMARK                         _______ _______ _______ _____ _____    ______ ____
ROOT
ATOM      1  N   UNL     1       1.465   3.678  20.943  0.00  0.00    +0.000 NA
ATOM      2  C   UNL     1       0.918   3.702  19.579  0.00  0.00    +0.000 C 
ENDROOT
BRANCH   1   3
ATOM      3  O   UNL     1       2.156   4.950  21.158  0.00  0.00    +0.000 OA
BRANCH   3   4
ATOM      4  C   UNL     1       1.522   6.051  20.503  0.00  0.00    +0.000 C 
BRANCH   4   5
ATOM      5  C   UNL     1       2.253   7.386  20.607  0.00  0.00    +0.000 C 
BRANCH   5  11
ATOM      6  C   UNL     1       2.370   8.433  17.678  0.00  0.00    +0.000 C 
ATOM      7  C   UNL     1       1.484   8.946  18.757  0.00  0.00    +0.000 A 
ATOM      8  N   UNL     1       0.618   9.931  18.597  0.00  0.00    +0.000 NA
ATOM      9  C   UNL     1      -0.009  10.096  19.803  0.00  0.00    +0.000 A 
ATOM     10  C   UNL     1       0.503   9.214  20.711  0.00  0.00    +0.000 A 
ATOM     11  N   UNL     1       1.452   8.471  20.060  0.00  0.00    +0.000 N 
BRANCH  10  12
ATOM     12  N   UNL     1       0.148   9.049  22.070  0.00  0.00    +0.000 N 
ATOM     13  O   UNL     1      -0.819   8.318  22.301  0.00  0.00    +0.000 OA
ATOM     14  O   UNL     1       0.839   9.642  22.902  0.00  0.00    +0.000 OA
ENDBRANCH  10  12
ENDBRANCH   5  11
ENDBRANCH   4   5
ENDBRANCH   3   4
ENDBRANCH   1   3
BRANCH   1  15
ATOM     15  C   UNL     1       2.563   2.689  20.988  0.00  0.00    +0.000 C 
BRANCH  15  16
ATOM     16  C   UNL     1       3.217   2.463  19.615  0.00  0.00    +0.000 C 
BRANCH  16  17
ATOM     17  C   UNL     1       4.604   3.099  19.469  0.00  0.00    +0.000 C 
BRANCH  17  18
ATOM     18  C   UNL     1       4.650   4.115  18.327  0.00  0.00    +0.000 C 
BRANCH  18  19
ATOM     19  N   UNL     1       5.850   4.924  18.221  0.00  0.00    +0.000 N 
ATOM     20  C   UNL     1       6.591   5.430  19.261  0.00  0.00    +0.000 A 
ATOM     21  C   UNL     1       7.653   6.081  18.679  0.00  0.00    +0.000 A 
ATOM     22  N   UNL     1       7.589   5.994  17.317  0.00  0.00    +0.000 NA
ATOM     23  C   UNL     1       6.501   5.296  17.066  0.00  0.00    +0.000 A 
ATOM     24  N   UNL     1       6.079   4.958  15.724  0.00  0.00    +0.000 N 
ATOM     25  O   UNL     1       5.040   4.298  15.592  0.00  0.00    +0.000 OA
ATOM     26  O   UNL     1       6.791   5.357  14.790  0.00  0.00    +0.000 OA
ENDBRANCH  18  19
ENDBRANCH  17  18
ENDBRANCH  16  17
ENDBRANCH  15  16
ENDBRANCH   1  15
TORSDOF 10
ENDMDL
MODEL 5
REMARK VINA RESULT:      -6.4      2.408      4.940
REMARK  Name = 
REMARK  12 active torsions:
REMARK  status: ('A' for Active; 'I' for Inactive)
REMARK    1  A    between atoms: C_1  and  C_2
REMARK    2  A    between atoms: C_5  and  N_6
REMARK    3  A    between atoms: N_9  and  C_10
REMARK    4  A    between atoms: C_10  and  C_11
REMARK    5  A    between atoms: C_11  and  O_12
REMARK    6  A    between atoms: O_12  and  N_13
REMARK    7  A    between atoms: N_13  and  C_14
REMARK    8  A    between atoms: N_13  and  C_15
REMARK    9  A    between atoms: C_15  and  C_16
REMARK   10  A    between atoms: C_16  and  C_17
REMARK   11  A    between atoms: C_17  and  C_18
REMARK   12  A    between atoms: C_18  and  N_19
REMARK                            x       y       z     vdW  Elec       q    Type
REMARK                         _______ _______ _______ _____ _____    ______ ____
ROOT
ATOM      1  N   UNL     1       1.792   6.246  20.182  0.00  0.00    +0.000 NA
ATOM      2  C   UNL     1       1.438   7.432  20.975  0.00  0.00    +0.000 C 
ENDROOT
BRANCH   1   3
ATOM      3  O   UNL     1       2.106   5.170  21.124  0.00  0.00    +0.000 OA
BRANCH   3   4
ATOM      4  C   UNL     1       1.283   4.015  20.950  0.00  0.00    +0.000 C 
BRANCH   4   5
ATOM      5  C   UNL     1       2.008   2.675  21.033  0.00  0.00    +0.000 C 
BRANCH   5  11
ATOM      6  C   UNL     1       4.985   1.770  20.945  0.00  0.00    +0.000 C 
ATOM      7  C   UNL     1       4.107   2.007  19.769  0.00  0.00    +0.000 A 
ATOM      8  N   UNL     1       4.494   1.858  18.514  0.00  0.00    +0.000 NA
ATOM      9  C   UNL     1       3.408   2.154  17.735  0.00  0.00    +0.000 A 
ATOM     10  C   UNL     1       2.355   2.510  18.530  0.00  0.00    +0.000 A 
ATOM     11  N   UNL     1       2.783   2.418  19.828  0.00  0.00    +0.000 N 
BRANCH  10  12
ATOM     12  N   UNL     1       1.053   2.896  18.139  0.00  0.00    +0.000 N 
ATOM     13  O   UNL     1       0.948   3.990  17.578  0.00  0.00    +0.000 OA
ATOM     14  O   UNL     1       0.140   2.104  18.386  0.00  0.00    +0.000 OA
ENDBRANCH  10  12
ENDBRANCH   5  11
ENDBRANCH   4   5
ENDBRANCH   3   4
ENDBRANCH   1   3
BRANCH   1  15
ATOM     15  C   UNL     1       3.090   6.499  19.519  0.00  0.00    +0.000 C 
BRANCH  15  16
ATOM     16  C   UNL     1       2.936   7.172  18.146  0.00  0.00    +0.000 C 
BRANCH  16  17
ATOM     17  C   UNL     1       4.126   6.957  17.205  0.00  0.00    +0.000 C 
BRANCH  17  18
ATOM     18  C   UNL     1       4.420   5.473  16.983  0.00  0.00    +0.000 C 
BRANCH  18  19
ATOM     19  N   UNL     1       5.600   5.151  16.203  0.00  0.00    +0.000 N 
ATOM     20  C   UNL     1       5.717   5.203  14.835  0.00  0.00    +0.000 A 
ATOM     21  C   UNL     1       7.021   4.863  14.560  0.00  0.00    +0.000 A 
ATOM     22  N   UNL     1       7.708   4.601  15.711  0.00  0.00    +0.000 NA
ATOM     23  C   UNL     1       6.836   4.780  16.682  0.00  0.00    +0.000 A 
ATOM     24  N   UNL     1       7.176   4.620  18.080  0.00  0.00    +0.000 N 
ATOM     25  O   UNL     1       6.286   4.811  18.918  0.00  0.00    +0.000 OA
ATOM     26  O   UNL     1       8.344   4.299  18.344  0.00  0.00    +0.000 OA
ENDBRANCH  18  19
ENDBRANCH  17  18
ENDBRANCH  16  17
ENDBRANCH  15  16
ENDBRANCH   1  15
TORSDOF 10
ENDMDL
MODEL 6
REMARK VINA RESULT:      -6.3      2.283      3.274
REMARK  Name = 
REMARK  12 active torsions:
REMARK  status: ('A' for Active; 'I' for Inactive)
REMARK    1  A    between atoms: C_1  and  C_2
REMARK    2  A    between atoms: C_5  and  N_6
REMARK    3  A    between atoms: N_9  and  C_10
REMARK    4  A    between atoms: C_10  and  C_11
REMARK    5  A    between atoms: C_11  and  O_12
REMARK    6  A    between atoms: O_12  and  N_13
REMARK    7  A    between atoms: N_13  and  C_14
REMARK    8  A    between atoms: N_13  and  C_15
REMARK    9  A    between atoms: C_15  and  C_16
REMARK   10  A    between atoms: C_16  and  C_17
REMARK   11  A    between atoms: C_17  and  C_18
REMARK   12  A    between atoms: C_18  and  N_19
REMARK                            x       y       z     vdW  Elec       q    Type
REMARK                         _______ _______ _______ _____ _____    ______ ____
ROOT
ATOM      1  N   UNL     1       2.347   7.094  18.177  0.00  0.00    +0.000 NA
ATOM      2  C   UNL     1       3.673   7.430  17.641  0.00  0.00    +0.000 C 
ENDROOT
BRANCH   1   3
ATOM      3  O   UNL     1       2.097   7.984  19.312  0.00  0.00    +0.000 OA
BRANCH   3   4
ATOM      4  C   UNL     1       1.428   9.192  18.943  0.00  0.00    +0.000 C 
BRANCH   4   5
ATOM      5  C   UNL     1       0.211   9.553  19.789  0.00  0.00    +0.000 C 
BRANCH   5  11
ATOM      6  C   UNL     1      -1.672   9.981  17.348  0.00  0.00    +0.000 C 
ATOM      7  C   UNL     1      -1.211  11.032  18.293  0.00  0.00    +0.000 A 
ATOM      8  N   UNL     1      -1.554  12.305  18.208  0.00  0.00    +0.000 NA
ATOM      9  C   UNL     1      -0.944  12.942  19.255  0.00  0.00    +0.000 A 
ATOM     10  C   UNL     1      -0.201  12.045  19.969  0.00  0.00    +0.000 A 
ATOM     11  N   UNL     1      -0.364  10.823  19.372  0.00  0.00    +0.000 N 
BRANCH  10  12
ATOM     12  N   UNL     1       0.589  12.278  21.117  0.00  0.00    +0.000 N 
ATOM     13  O   UNL     1       0.013  12.207  22.206  0.00  0.00    +0.000 OA
ATOM     14  O   UNL     1       1.784  12.525  20.931  0.00  0.00    +0.000 OA
ENDBRANCH  10  12
ENDBRANCH   5  11
ENDBRANCH   4   5
ENDBRANCH   3   4
ENDBRANCH   1   3
BRANCH   1  15
ATOM     15  C   UNL     1       2.423   5.759  18.809  0.00  0.00    +0.000 C 
BRANCH  15  16
ATOM     16  C   UNL     1       2.187   4.615  17.810  0.00  0.00    +0.000 C 
BRANCH  16  17
ATOM     17  C   UNL     1       3.290   3.551  17.804  0.00  0.00    +0.000 C 
BRANCH  17  18
ATOM     18  C   UNL     1       4.344   3.826  16.730  0.00  0.00    +0.000 C 
BRANCH  18  19
ATOM     19  N   UNL     1       5.582   4.438  17.173  0.00  0.00    +0.000 N 
ATOM     20  C   UNL     1       5.992   4.611  18.473  0.00  0.00    +0.000 A 
ATOM     21  C   UNL     1       7.240   5.184  18.397  0.00  0.00    +0.000 A 
ATOM     22  N   UNL     1       7.610   5.373  17.096  0.00  0.00    +0.000 NA
ATOM     23  C   UNL     1       6.601   4.918  16.381  0.00  0.00    +0.000 A 
ATOM     24  N   UNL     1       6.605   4.917  14.934  0.00  0.00    +0.000 N 
ATOM     25  O   UNL     1       5.609   4.468  14.352  0.00  0.00    +0.000 OA
ATOM     26  O   UNL     1       7.612   5.369  14.371  0.00  0.00    +0.000 OA
ENDBRANCH  18  19
ENDBRANCH  17  18
ENDBRANCH  16  17
ENDBRANCH  15  16
ENDBRANCH   1  15
TORSDOF 10
ENDMDL
MODEL 7
REMARK VINA RESULT:      -6.3      4.645      6.952
REMARK  Name = 
REMARK  12 active torsions:
REMARK  status: ('A' for Active; 'I' for Inactive)
REMARK    1  A    between atoms: C_1  and  C_2
REMARK    2  A    between atoms: C_5  and  N_6
REMARK    3  A    between atoms: N_9  and  C_10
REMARK    4  A    between atoms: C_10  and  C_11
REMARK    5  A    between atoms: C_11  and  O_12
REMARK    6  A    between atoms: O_12  and  N_13
REMARK    7  A    between atoms: N_13  and  C_14
REMARK    8  A    between atoms: N_13  and  C_15
REMARK    9  A    between atoms: C_15  and  C_16
REMARK   10  A    between atoms: C_16  and  C_17
REMARK   11  A    between atoms: C_17  and  C_18
REMARK   12  A    between atoms: C_18  and  N_19
REMARK                            x       y       z     vdW  Elec       q    Type
REMARK                         _______ _______ _______ _____ _____    ______ ____
ROOT
ATOM      1  N   UNL     1       7.852   5.833  18.178  0.00  0.00    +0.000 NA
ATOM      2  C   UNL     1       7.189   5.932  16.870  0.00  0.00    +0.000 C 
ENDROOT
BRANCH   1   3
ATOM      3  O   UNL     1       6.857   5.344  19.135  0.00  0.00    +0.000 OA
BRANCH   3   4
ATOM      4  C   UNL     1       5.845   4.538  18.529  0.00  0.00    +0.000 C 
BRANCH   4   5
ATOM      5  C   UNL     1       4.692   4.134  19.444  0.00  0.00    +0.000 C 
BRANCH   5  11
ATOM      6  C   UNL     1       3.426   1.499  18.376  0.00  0.00    +0.000 C 
ATOM      7  C   UNL     1       2.859   2.865  18.229  0.00  0.00    +0.000 A 
ATOM      8  N   UNL     1       1.721   3.132  17.612  0.00  0.00    +0.000 NA
ATOM      9  C   UNL     1       1.540   4.486  17.700  0.00  0.00    +0.000 A 
ATOM     10  C   UNL     1       2.596   5.049  18.358  0.00  0.00    +0.000 A 
ATOM     11  N   UNL     1       3.443   4.030  18.705  0.00  0.00    +0.000 N 
BRANCH  10  12
ATOM     12  N   UNL     1       2.815   6.412  18.660  0.00  0.00    +0.000 N 
ATOM     13  O   UNL     1       2.399   6.807  19.752  0.00  0.00    +0.000 OA
ATOM     14  O   UNL     1       3.407   7.084  17.811  0.00  0.00    +0.000 OA
ENDBRANCH  10  12
ENDBRANCH   5  11
ENDBRANCH   4   5
ENDBRANCH   3   4
ENDBRANCH   1   3
BRANCH   1  15
ATOM     15  C   UNL     1       8.137   7.201  18.662  0.00  0.00    +0.000 C 
BRANCH  15  16
ATOM     16  C   UNL     1       7.929   8.271  17.578  0.00  0.00    +0.000 C 
BRANCH  16  17
ATOM     17  C   UNL     1       8.047   9.711  18.088  0.00  0.00    +0.000 C 
BRANCH  17  18
ATOM     18  C   UNL     1       9.239   9.890  19.029  0.00  0.00    +0.000 C 
BRANCH  18  19
ATOM     19  N   UNL     1      10.026  11.097  18.862  0.00  0.00    +0.000 N 
ATOM     20  C   UNL     1      10.723  11.472  17.739  0.00  0.00    +0.000 A 
ATOM     21  C   UNL     1      11.266  12.701  18.032  0.00  0.00    +0.000 A 
ATOM     22  N   UNL     1      10.929  13.093  19.296  0.00  0.00    +0.000 NA
ATOM     23  C   UNL     1      10.186  12.116  19.774  0.00  0.00    +0.000 A 
ATOM     24  N   UNL     1       9.602  12.152  21.097  0.00  0.00    +0.000 N 
ATOM     25  O   UNL     1       8.918  11.184  21.455  0.00  0.00    +0.000 OA
ATOM     26  O   UNL     1       9.829  13.156  21.789  0.00  0.00    +0.000 OA
ENDBRANCH  18  19
ENDBRANCH  17  18
ENDBRANCH  16  17
ENDBRANCH  15  16
ENDBRANCH   1  15
TORSDOF 10
ENDMDL
MODEL 8
REMARK VINA RESULT:      -6.3      4.423      7.050
REMARK  Name = 
REMARK  12 active torsions:
REMARK  status: ('A' for Active; 'I' for Inactive)
REMARK    1  A    between atoms: C_1  and  C_2
REMARK    2  A    between atoms: C_5  and  N_6
REMARK    3  A    between atoms: N_9  and  C_10
REMARK    4  A    between atoms: C_10  and  C_11
REMARK    5  A    between atoms: C_11  and  O_12
REMARK    6  A    between atoms: O_12  and  N_13
REMARK    7  A    between atoms: N_13  and  C_14
REMARK    8  A    between atoms: N_13  and  C_15
REMARK    9  A    between atoms: C_15  and  C_16
REMARK   10  A    between atoms: C_16  and  C_17
REMARK   11  A    between atoms: C_17  and  C_18
REMARK   12  A    between atoms: C_18  and  N_19
REMARK                            x       y       z     vdW  Elec       q    Type
REMARK                         _______ _______ _______ _____ _____    ______ ____
ROOT
ATOM      1  N   UNL     1       7.272   5.511  18.750  0.00  0.00    +0.000 NA
ATOM      2  C   UNL     1       7.713   4.668  17.630  0.00  0.00    +0.000 C 
ENDROOT
BRANCH   1   3
ATOM      3  O   UNL     1       5.922   5.983  18.435  0.00  0.00    +0.000 OA
BRANCH   3   4
ATOM      4  C   UNL     1       4.938   5.530  19.366  0.00  0.00    +0.000 C 
BRANCH   4   5
ATOM      5  C   UNL     1       3.718   4.849  18.753  0.00  0.00    +0.000 C 
BRANCH   5  11
ATOM      6  C   UNL     1       1.505   6.064  20.574  0.00  0.00    +0.000 C 
ATOM      7  C   UNL     1       1.960   4.649  20.574  0.00  0.00    +0.000 A 
ATOM      8  N   UNL     1       1.466   3.713  21.366  0.00  0.00    +0.000 NA
ATOM      9  C   UNL     1       2.127   2.554  21.058  0.00  0.00    +0.000 A 
ATOM     10  C   UNL     1       3.051   2.799  20.081  0.00  0.00    +0.000 A 
ATOM     11  N   UNL     1       2.954   4.127  19.759  0.00  0.00    +0.000 N 
BRANCH  10  12
ATOM     12  N   UNL     1       3.949   1.890  19.477  0.00  0.00    +0.000 N 
ATOM     13  O   UNL     1       3.541   1.301  18.472  0.00  0.00    +0.000 OA
ATOM     14  O   UNL     1       5.060   1.771  20.001  0.00  0.00    +0.000 OA
ENDBRANCH  10  12
ENDBRANCH   5  11
ENDBRANCH   4   5
ENDBRANCH   3   4
ENDBRANCH   1   3
BRANCH   1  15
ATOM     15  C   UNL     1       8.071   6.756  18.740  0.00  0.00    +0.000 C 
BRANCH  15  16
ATOM     16  C   UNL     1       7.748   7.662  17.542  0.00  0.00    +0.000 C 
BRANCH  16  17
ATOM     17  C   UNL     1       7.865   9.160  17.839  0.00  0.00    +0.000 C 
BRANCH  17  18
ATOM     18  C   UNL     1       8.948   9.454  18.879  0.00  0.00    +0.000 C 
BRANCH  18  19
ATOM     19  N   UNL     1       9.665  10.707  18.737  0.00  0.00    +0.000 N 
ATOM     20  C   UNL     1      10.215  11.210  17.583  0.00  0.00    +0.000 A 
ATOM     21  C   UNL     1      10.742  12.434  17.925  0.00  0.00    +0.000 A 
ATOM     22  N   UNL     1      10.536  12.699  19.249  0.00  0.00    +0.000 NA
ATOM     23  C   UNL     1       9.890  11.650  19.715  0.00  0.00    +0.000 A 
ATOM     24  N   UNL     1       9.460  11.544  21.092  0.00  0.00    +0.000 N 
ATOM     25  O   UNL     1       8.858  10.518  21.434  0.00  0.00    +0.000 OA
ATOM     26  O   UNL     1       9.727  12.494  21.843  0.00  0.00    +0.000 OA
ENDBRANCH  18  19
ENDBRANCH  17  18
ENDBRANCH  16  17
ENDBRANCH  15  16
ENDBRANCH   1  15
TORSDOF 10
ENDMDL
MODEL 9
REMARK VINA RESULT:      -6.1      4.663      7.057
REMARK  Name = 
REMARK  12 active torsions:
REMARK  status: ('A' for Active; 'I' for Inactive)
REMARK    1  A    between atoms: C_1  and  C_2
REMARK    2  A    between atoms: C_5  and  N_6
REMARK    3  A    between atoms: N_9  and  C_10
REMARK    4  A    between atoms: C_10  and  C_11
REMARK    5  A    between atoms: C_11  and  O_12
REMARK    6  A    between atoms: O_12  and  N_13
REMARK    7  A    between atoms: N_13  and  C_14
REMARK    8  A    between atoms: N_13  and  C_15
REMARK    9  A    between atoms: C_15  and  C_16
REMARK   10  A    between atoms: C_16  and  C_17
REMARK   11  A    between atoms: C_17  and  C_18
REMARK   12  A    between atoms: C_18  and  N_19
REMARK                            x       y       z     vdW  Elec       q    Type
REMARK                         _______ _______ _______ _____ _____    ______ ____
ROOT
ATOM      1  N   UNL     1       7.429   5.901  17.041  0.00  0.00    +0.000 NA
ATOM      2  C   UNL     1       6.629   5.548  15.860  0.00  0.00    +0.000 C 
ENDROOT
BRANCH   1   3
ATOM      3  O   UNL     1       6.986   5.040  18.140  0.00  0.00    +0.000 OA
BRANCH   3   4
ATOM      4  C   UNL     1       5.755   5.467  18.726  0.00  0.00    +0.000 C 
BRANCH   4   5
ATOM      5  C   UNL     1       4.508   4.736  18.240  0.00  0.00    +0.000 C 
BRANCH   5  11
ATOM      6  C   UNL     1       2.545   6.769  19.545  0.00  0.00    +0.000 C 
ATOM      7  C   UNL     1       2.712   5.342  19.929  0.00  0.00    +0.000 A 
ATOM      8  N   UNL     1       2.029   4.751  20.894  0.00  0.00    +0.000 NA
ATOM      9  C   UNL     1       2.455   3.450  20.931  0.00  0.00    +0.000 A 
ATOM     10  C   UNL     1       3.426   3.258  19.990  0.00  0.00    +0.000 A 
ATOM     11  N   UNL     1       3.599   4.453  19.340  0.00  0.00    +0.000 N 
BRANCH  10  12
ATOM     12  N   UNL     1       4.138   2.074  19.693  0.00  0.00    +0.000 N 
ATOM     13  O   UNL     1       5.070   1.788  20.450  0.00  0.00    +0.000 OA
ATOM     14  O   UNL     1       3.762   1.428  18.711  0.00  0.00    +0.000 OA
ENDBRANCH  10  12
ENDBRANCH   5  11
ENDBRANCH   4   5
ENDBRANCH   3   4
ENDBRANCH   1   3
BRANCH   1  15
ATOM     15  C   UNL     1       7.027   7.251  17.491  0.00  0.00    +0.000 C 
BRANCH  15  16
ATOM     16  C   UNL     1       8.203   8.066  18.052  0.00  0.00    +0.000 C 
BRANCH  16  17
ATOM     17  C   UNL     1       8.010   9.584  17.967  0.00  0.00    +0.000 C 
BRANCH  17  18
ATOM     18  C   UNL     1       9.295  10.344  18.302  0.00  0.00    +0.000 C 
BRANCH  18  19
ATOM     19  N   UNL     1       9.250  11.224  19.454  0.00  0.00    +0.000 N 
ATOM     20  C   UNL     1       9.311  10.849  20.774  0.00  0.00    +0.000 A 
ATOM     21  C   UNL     1       9.284  12.020  21.495  0.00  0.00    +0.000 A 
ATOM     22  N   UNL     1       9.206  13.101  20.664  0.00  0.00    +0.000 NA
ATOM     23  C   UNL     1       9.187  12.599  19.446  0.00  0.00    +0.000 A 
ATOM     24  N   UNL     1       9.130  13.426  18.260  0.00  0.00    +0.000 N 
ATOM     25  O   UNL     1       9.116  12.859  17.159  0.00  0.00    +0.000 OA
ATOM     26  O   UNL     1       9.096  14.654  18.426  0.00  0.00    +0.000 OA
ENDBRANCH  18  19
ENDBRANCH  17  18
ENDBRANCH  16  17
ENDBRANCH  15  16
ENDBRANCH   1  15
TORSDOF 10
ENDMDL
