MODEL 1
REMARK VINA RESULT:      -8.8      0.000      0.000
REMARK  Name = 
REMARK  2 active torsions:
REMARK  status: ('A' for Active; 'I' for Inactive)
REMARK    1  A    between atoms: C_2  and  C_3
REMARK    2  A    between atoms: C_7  and  C_8
REMARK                            x       y       z     vdW  Elec       q    Type
REMARK                         _______ _______ _______ _____ _____    ______ ____
ROOT
ATOM      1  C   UNL     1       4.405   4.370  17.611  0.00  0.00    +0.000 A 
ATOM      2  C   UNL     1       4.445   5.676  18.115  0.00  0.00    +0.000 A 
ATOM      3  C   UNL     1       3.299   5.922  18.851  0.00  0.00    +0.000 A 
ATOM      4  C   UNL     1       2.644   7.052  19.330  0.00  0.00    +0.000 A 
ATOM      5  C   UNL     1       1.663   6.862  20.307  0.00  0.00    +0.000 A 
ATOM      6  C   UNL     1       1.511   5.619  20.943  0.00  0.00    +0.000 A 
ATOM      7  C   UNL     1       2.209   4.514  20.452  0.00  0.00    +0.000 A 
ATOM      8  C   UNL     1       2.951   4.668  19.295  0.00  0.00    +0.000 A 
ATOM      9  N   UNL     1       3.288   3.794  18.251  0.00  0.00    +0.000 N 
ATOM     10  C   UNL     1       2.281   2.782  17.856  0.00  0.00    +0.000 C 
ATOM     11  C   UNL     1       1.051   2.601  18.832  0.00  0.00    +0.000 C 
ATOM     12  N   UNL     1       1.455   2.245  20.187  0.00  0.00    +0.000 N 
ATOM     13  C   UNL     1       2.083   3.148  21.009  0.00  0.00    +0.000 C 
ATOM     14  O   UNL     1       2.576   2.848  22.088  0.00  0.00    +0.000 OA
ATOM     15  H   UNL     1       1.422   1.295  20.538  0.00  0.00    +0.000 HD
ENDROOT
BRANCH   1  20
ATOM     16  C   UNL     1       6.085   3.993  14.231  0.00  0.00    +0.000 A 
ATOM     17  C   UNL     1       7.140   4.875  14.456  0.00  0.00    +0.000 A 
ATOM     18  C   UNL     1       7.452   5.263  15.747  0.00  0.00    +0.000 A 
ATOM     19  C   UNL     1       6.675   4.776  16.808  0.00  0.00    +0.000 A 
ATOM     20  C   UNL     1       5.476   4.021  16.608  0.00  0.00    +0.000 A 
ATOM     21  C   UNL     1       5.236   3.550  15.315  0.00  0.00    +0.000 A 
BRANCH  16  23
ATOM     22  O   UNL     1       6.738   3.557  12.007  0.00  0.00    +0.000 OA
ATOM     23  C   UNL     1       5.851   3.588  12.844  0.00  0.00    +0.000 C 
ENDBRANCH  16  23
ENDBRANCH   1  20
TORSDOF 2
ENDMDL
MODEL 2
REMARK VINA RESULT:      -8.4      3.031      6.453
REMARK  Name = 
REMARK  2 active torsions:
REMARK  status: ('A' for Active; 'I' for Inactive)
REMARK    1  A    between atoms: C_2  and  C_3
REMARK    2  A    between atoms: C_7  and  C_8
REMARK                            x       y       z     vdW  Elec       q    Type
REMARK                         _______ _______ _______ _____ _____    ______ ____
ROOT
ATOM      1  C   UNL     1       2.196   6.777  19.444  0.00  0.00    +0.000 A 
ATOM      2  C   UNL     1       2.835   6.740  18.199  0.00  0.00    +0.000 A 
ATOM      3  C   UNL     1       3.348   5.473  17.981  0.00  0.00    +0.000 A 
ATOM      4  C   UNL     1       4.287   4.910  17.122  0.00  0.00    +0.000 A 
ATOM      5  C   UNL     1       4.301   3.518  17.006  0.00  0.00    +0.000 A 
ATOM      6  C   UNL     1       3.265   2.739  17.549  0.00  0.00    +0.000 A 
ATOM      7  C   UNL     1       2.324   3.346  18.383  0.00  0.00    +0.000 A 
ATOM      8  C   UNL     1       2.506   4.676  18.719  0.00  0.00    +0.000 A 
ATOM      9  N   UNL     1       2.177   5.428  19.856  0.00  0.00    +0.000 N 
ATOM     10  C   UNL     1       2.257   4.750  21.171  0.00  0.00    +0.000 C 
ATOM     11  C   UNL     1       2.423   3.178  21.138  0.00  0.00    +0.000 C 
ATOM     12  N   UNL     1       1.345   2.513  20.417  0.00  0.00    +0.000 N 
ATOM     13  C   UNL     1       1.225   2.614  19.052  0.00  0.00    +0.000 C 
ATOM     14  O   UNL     1       0.254   2.205  18.429  0.00  0.00    +0.000 OA
ATOM     15  H   UNL     1       0.564   2.067  20.884  0.00  0.00    +0.000 HD
ENDROOT
BRANCH   1  20
ATOM     16  C   UNL     1       0.306  10.066  19.516  0.00  0.00    +0.000 A 
ATOM     17  C   UNL     1      -0.341   9.874  20.735  0.00  0.00    +0.000 A 
ATOM     18  C   UNL     1       0.111   8.902  21.611  0.00  0.00    +0.000 A 
ATOM     19  C   UNL     1       1.202   8.106  21.236  0.00  0.00    +0.000 A 
ATOM     20  C   UNL     1       1.776   8.144  19.925  0.00  0.00    +0.000 A 
ATOM     21  C   UNL     1       1.383   9.196  19.096  0.00  0.00    +0.000 A 
BRANCH  16  23
ATOM     22  O   UNL     1      -1.349  11.195  18.274  0.00  0.00    +0.000 OA
ATOM     23  C   UNL     1      -0.196  11.148  18.669  0.00  0.00    +0.000 C 
ENDBRANCH  16  23
ENDBRANCH   1  20
TORSDOF 2
ENDMDL
MODEL 3
REMARK VINA RESULT:      -8.0      3.343      6.816
REMARK  Name = 
REMARK  2 active torsions:
REMARK  status: ('A' for Active; 'I' for Inactive)
REMARK    1  A    between atoms: C_2  and  C_3
REMARK    2  A    between atoms: C_7  and  C_8
REMARK                            x       y       z     vdW  Elec       q    Type
REMARK                         _______ _______ _______ _____ _____    ______ ____
ROOT
ATOM      1  C   UNL     1       2.308   7.208  19.737  0.00  0.00    +0.000 A 
ATOM      2  C   UNL     1       1.837   6.126  20.491  0.00  0.00    +0.000 A 
ATOM      3  C   UNL     1       2.390   4.952  20.009  0.00  0.00    +0.000 A 
ATOM      4  C   UNL     1       2.110   3.594  20.129  0.00  0.00    +0.000 A 
ATOM      5  C   UNL     1       3.101   2.694  19.730  0.00  0.00    +0.000 A 
ATOM      6  C   UNL     1       4.403   3.138  19.443  0.00  0.00    +0.000 A 
ATOM      7  C   UNL     1       4.652   4.510  19.361  0.00  0.00    +0.000 A 
ATOM      8  C   UNL     1       3.580   5.377  19.471  0.00  0.00    +0.000 A 
ATOM      9  N   UNL     1       3.315   6.643  18.927  0.00  0.00    +0.000 N 
ATOM     10  C   UNL     1       3.812   6.915  17.558  0.00  0.00    +0.000 C 
ATOM     11  C   UNL     1       4.832   5.865  16.962  0.00  0.00    +0.000 C 
ATOM     12  N   UNL     1       6.023   5.706  17.788  0.00  0.00    +0.000 N 
ATOM     13  C   UNL     1       5.970   5.087  19.013  0.00  0.00    +0.000 C 
ATOM     14  O   UNL     1       6.905   5.071  19.801  0.00  0.00    +0.000 OA
ATOM     15  H   UNL     1       6.905   6.157  17.573  0.00  0.00    +0.000 HD
ENDROOT
BRANCH   1  20
ATOM     16  C   UNL     1      -0.196  10.029  19.333  0.00  0.00    +0.000 A 
ATOM     17  C   UNL     1      -0.775   9.936  20.596  0.00  0.00    +0.000 A 
ATOM     18  C   UNL     1      -0.127   9.242  21.603  0.00  0.00    +0.000 A 
ATOM     19  C   UNL     1       1.095   8.618  21.319  0.00  0.00    +0.000 A 
ATOM     20  C   UNL     1       1.632   8.531  19.995  0.00  0.00    +0.000 A 
ATOM     21  C   UNL     1       1.027   9.323  19.016  0.00  0.00    +0.000 A 
BRANCH  16  23
ATOM     22  O   UNL     1      -1.535  10.323  17.415  0.00  0.00    +0.000 OA
ATOM     23  C   UNL     1      -0.914  10.825  18.337  0.00  0.00    +0.000 C 
ENDBRANCH  16  23
ENDBRANCH   1  20
TORSDOF 2
ENDMDL
MODEL 4
REMARK VINA RESULT:      -7.9      3.484      7.250
REMARK  Name = 
REMARK  2 active torsions:
REMARK  status: ('A' for Active; 'I' for Inactive)
REMARK    1  A    between atoms: C_2  and  C_3
REMARK    2  A    between atoms: C_7  and  C_8
REMARK                            x       y       z     vdW  Elec       q    Type
REMARK                         _______ _______ _______ _____ _____    ______ ____
ROOT
ATOM      1  C   UNL     1       1.762   8.336  18.857  0.00  0.00    +0.000 A 
ATOM      2  C   UNL     1       2.639   8.458  17.772  0.00  0.00    +0.000 A 
ATOM      3  C   UNL     1       3.444   7.334  17.700  0.00  0.00    +0.000 A 
ATOM      4  C   UNL     1       4.638   7.000  17.071  0.00  0.00    +0.000 A 
ATOM      5  C   UNL     1       4.972   5.645  16.999  0.00  0.00    +0.000 A 
ATOM      6  C   UNL     1       4.036   4.654  17.337  0.00  0.00    +0.000 A 
ATOM      7  C   UNL     1       2.834   5.031  17.941  0.00  0.00    +0.000 A 
ATOM      8  C   UNL     1       2.656   6.363  18.270  0.00  0.00    +0.000 A 
ATOM      9  N   UNL     1       1.945   7.008  19.293  0.00  0.00    +0.000 N 
ATOM     10  C   UNL     1       1.892   6.339  20.615  0.00  0.00    +0.000 C 
ATOM     11  C   UNL     1       2.392   4.841  20.660  0.00  0.00    +0.000 C 
ATOM     12  N   UNL     1       1.654   3.972  19.751  0.00  0.00    +0.000 N 
ATOM     13  C   UNL     1       1.802   4.069  18.388  0.00  0.00    +0.000 C 
ATOM     14  O   UNL     1       1.092   3.473  17.590  0.00  0.00    +0.000 OA
ATOM     15  H   UNL     1       0.906   3.362  20.059  0.00  0.00    +0.000 HD
ENDROOT
BRANCH   1  20
ATOM     16  C   UNL     1       0.234  11.062  21.008  0.00  0.00    +0.000 A 
ATOM     17  C   UNL     1       0.918  12.138  20.445  0.00  0.00    +0.000 A 
ATOM     18  C   UNL     1       1.543  11.994  19.219  0.00  0.00    +0.000 A 
ATOM     19  C   UNL     1       1.498  10.748  18.578  0.00  0.00    +0.000 A 
ATOM     20  C   UNL     1       0.970   9.573  19.202  0.00  0.00    +0.000 A 
ATOM     21  C   UNL     1       0.251   9.757  20.385  0.00  0.00    +0.000 A 
BRANCH  16  23
ATOM     22  O   UNL     1      -0.270  10.615  23.267  0.00  0.00    +0.000 OA
ATOM     23  C   UNL     1      -0.446  11.309  22.280  0.00  0.00    +0.000 C 
ENDBRANCH  16  23
ENDBRANCH   1  20
TORSDOF 2
ENDMDL
MODEL 5
REMARK VINA RESULT:      -7.9      3.260      6.906
REMARK  Name = 
REMARK  2 active torsions:
REMARK  status: ('A' for Active; 'I' for Inactive)
REMARK    1  A    between atoms: C_2  and  C_3
REMARK    2  A    between atoms: C_7  and  C_8
REMARK                            x       y       z     vdW  Elec       q    Type
REMARK                         _______ _______ _______ _____ _____    ______ ____
ROOT
ATOM      1  C   UNL     1       2.431   6.968  19.059  0.00  0.00    +0.000 A 
ATOM      2  C   UNL     1       1.736   5.789  19.354  0.00  0.00    +0.000 A 
ATOM      3  C   UNL     1       2.200   4.765  18.546  0.00  0.00    +0.000 A 
ATOM      4  C   UNL     1       1.745   3.506  18.169  0.00  0.00    +0.000 A 
ATOM      5  C   UNL     1       2.664   2.641  17.570  0.00  0.00    +0.000 A 
ATOM      6  C   UNL     1       4.036   2.940  17.564  0.00  0.00    +0.000 A 
ATOM      7  C   UNL     1       4.458   4.205  17.979  0.00  0.00    +0.000 A 
ATOM      8  C   UNL     1       3.495   5.148  18.289  0.00  0.00    +0.000 A 
ATOM      9  N   UNL     1       3.460   6.547  18.193  0.00  0.00    +0.000 N 
ATOM     10  C   UNL     1       4.164   7.170  17.047  0.00  0.00    +0.000 C 
ATOM     11  C   UNL     1       5.119   6.225  16.215  0.00  0.00    +0.000 C 
ATOM     12  N   UNL     1       6.162   5.617  17.033  0.00  0.00    +0.000 N 
ATOM     13  C   UNL     1       5.871   4.647  17.962  0.00  0.00    +0.000 C 
ATOM     14  O   UNL     1       6.685   4.226  18.773  0.00  0.00    +0.000 OA
ATOM     15  H   UNL     1       7.113   5.966  17.061  0.00  0.00    +0.000 HD
ENDROOT
BRANCH   1  20
ATOM     16  C   UNL     1       0.214  10.009  19.545  0.00  0.00    +0.000 A 
ATOM     17  C   UNL     1      -0.357   9.622  20.756  0.00  0.00    +0.000 A 
ATOM     18  C   UNL     1       0.230   8.618  21.507  0.00  0.00    +0.000 A 
ATOM     19  C   UNL     1       1.381   7.988  21.014  0.00  0.00    +0.000 A 
ATOM     20  C   UNL     1       1.892   8.224  19.698  0.00  0.00    +0.000 A 
ATOM     21  C   UNL     1       1.357   9.309  19.000  0.00  0.00    +0.000 A 
BRANCH  16  23
ATOM     22  O   UNL     1      -1.644  11.248  18.791  0.00  0.00    +0.000 OA
ATOM     23  C   UNL     1      -0.433  11.113  18.836  0.00  0.00    +0.000 C 
ENDBRANCH  16  23
ENDBRANCH   1  20
TORSDOF 2
ENDMDL
MODEL 6
REMARK VINA RESULT:      -7.8      3.582      6.653
REMARK  Name = 
REMARK  2 active torsions:
REMARK  status: ('A' for Active; 'I' for Inactive)
REMARK    1  A    between atoms: C_2  and  C_3
REMARK    2  A    between atoms: C_7  and  C_8
REMARK                            x       y       z     vdW  Elec       q    Type
REMARK                         _______ _______ _______ _____ _____    ______ ____
ROOT
ATOM      1  C   UNL     1       2.064   7.976  18.682  0.00  0.00    +0.000 A 
ATOM      2  C   UNL     1       3.023   7.965  17.662  0.00  0.00    +0.000 A 
ATOM      3  C   UNL     1       3.760   6.796  17.734  0.00  0.00    +0.000 A 
ATOM      4  C   UNL     1       4.974   6.348  17.223  0.00  0.00    +0.000 A 
ATOM      5  C   UNL     1       5.227   4.975  17.275  0.00  0.00    +0.000 A 
ATOM      6  C   UNL     1       4.210   4.067  17.611  0.00  0.00    +0.000 A 
ATOM      7  C   UNL     1       2.993   4.556  18.092  0.00  0.00    +0.000 A 
ATOM      8  C   UNL     1       2.874   5.917  18.310  0.00  0.00    +0.000 A 
ATOM      9  N   UNL     1       2.133   6.677  19.226  0.00  0.00    +0.000 N 
ATOM     10  C   UNL     1       1.944   6.116  20.585  0.00  0.00    +0.000 C 
ATOM     11  C   UNL     1       2.345   4.599  20.777  0.00  0.00    +0.000 C 
ATOM     12  N   UNL     1       1.622   3.707  19.878  0.00  0.00    +0.000 N 
ATOM     13  C   UNL     1       1.874   3.691  18.528  0.00  0.00    +0.000 C 
ATOM     14  O   UNL     1       1.188   3.076  17.722  0.00  0.00    +0.000 OA
ATOM     15  H   UNL     1       0.818   3.165  20.171  0.00  0.00    +0.000 HD
ENDROOT
BRANCH   1  20
ATOM     16  C   UNL     1      -0.768  10.493  18.478  0.00  0.00    +0.000 A 
ATOM     17  C   UNL     1      -0.995  10.619  19.847  0.00  0.00    +0.000 A 
ATOM     18  C   UNL     1      -0.038  10.183  20.748  0.00  0.00    +0.000 A 
ATOM     19  C   UNL     1       1.136   9.594  20.259  0.00  0.00    +0.000 A 
ATOM     20  C   UNL     1       1.327   9.279  18.876  0.00  0.00    +0.000 A 
ATOM     21  C   UNL     1       0.408   9.817  17.974  0.00  0.00    +0.000 A 
BRANCH  16  23
ATOM     22  O   UNL     1      -2.175  10.439  16.587  0.00  0.00    +0.000 OA
ATOM     23  C   UNL     1      -1.801  11.025  17.589  0.00  0.00    +0.000 C 
ENDBRANCH  16  23
ENDBRANCH   1  20
TORSDOF 2
ENDMDL
MODEL 7
REMARK VINA RESULT:      -7.7      3.306      6.644
REMARK  Name = 
REMARK  2 active torsions:
REMARK  status: ('A' for Active; 'I' for Inactive)
REMARK    1  A    between atoms: C_2  and  C_3
REMARK    2  A    between atoms: C_7  and  C_8
REMARK                            x       y       z     vdW  Elec       q    Type
REMARK                         _______ _______ _______ _____ _____    ______ ____
ROOT
ATOM      1  C   UNL     1       2.592   7.469  18.748  0.00  0.00    +0.000 A 
ATOM      2  C   UNL     1       3.342   7.734  17.595  0.00  0.00    +0.000 A 
ATOM      3  C   UNL     1       4.148   6.646  17.308  0.00  0.00    +0.000 A 
ATOM      4  C   UNL     1       5.269   6.416  16.517  0.00  0.00    +0.000 A 
ATOM      5  C   UNL     1       5.611   5.087  16.255  0.00  0.00    +0.000 A 
ATOM      6  C   UNL     1       4.732   4.040  16.578  0.00  0.00    +0.000 A 
ATOM      7  C   UNL     1       3.600   4.316  17.349  0.00  0.00    +0.000 A 
ATOM      8  C   UNL     1       3.442   5.597  17.846  0.00  0.00    +0.000 A 
ATOM      9  N   UNL     1       2.841   6.105  19.007  0.00  0.00    +0.000 N 
ATOM     10  C   UNL     1       2.944   5.292  20.241  0.00  0.00    +0.000 C 
ATOM     11  C   UNL     1       3.466   3.810  20.061  0.00  0.00    +0.000 C 
ATOM     12  N   UNL     1       2.642   3.031  19.144  0.00  0.00    +0.000 N 
ATOM     13  C   UNL     1       2.637   3.284  17.793  0.00  0.00    +0.000 C 
ATOM     14  O   UNL     1       1.850   2.763  17.014  0.00  0.00    +0.000 OA
ATOM     15  H   UNL     1       1.942   2.371  19.460  0.00  0.00    +0.000 HD
ENDROOT
BRANCH   1  20
ATOM     16  C   UNL     1      -0.184  10.029  19.112  0.00  0.00    +0.000 A 
ATOM     17  C   UNL     1      -0.625   9.636  20.374  0.00  0.00    +0.000 A 
ATOM     18  C   UNL     1       0.178   8.836  21.168  0.00  0.00    +0.000 A 
ATOM     19  C   UNL     1       1.418   8.413  20.669  0.00  0.00    +0.000 A 
ATOM     20  C   UNL     1       1.828   8.638  19.317  0.00  0.00    +0.000 A 
ATOM     21  C   UNL     1       1.060   9.531  18.566  0.00  0.00    +0.000 A 
BRANCH  16  23
ATOM     22  O   UNL     1      -1.091  12.124  18.525  0.00  0.00    +0.000 OA
ATOM     23  C   UNL     1      -1.066  10.917  18.354  0.00  0.00    +0.000 C 
ENDBRANCH  16  23
ENDBRANCH   1  20
TORSDOF 2
ENDMDL
MODEL 8
REMARK VINA RESULT:      -7.6      4.403      7.197
REMARK  Name = 
REMARK  2 active torsions:
REMARK  status: ('A' for Active; 'I' for Inactive)
REMARK    1  A    between atoms: C_2  and  C_3
REMARK    2  A    between atoms: C_7  and  C_8
REMARK                            x       y       z     vdW  Elec       q    Type
REMARK                         _______ _______ _______ _____ _____    ______ ____
ROOT
ATOM      1  C   UNL     1       1.421   7.885  20.274  0.00  0.00    +0.000 A 
ATOM      2  C   UNL     1       0.777   7.927  21.517  0.00  0.00    +0.000 A 
ATOM      3  C   UNL     1       0.340   9.217  21.767  0.00  0.00    +0.000 A 
ATOM      4  C   UNL     1      -0.080   9.929  22.886  0.00  0.00    +0.000 A 
ATOM      5  C   UNL     1      -0.740  11.141  22.668  0.00  0.00    +0.000 A 
ATOM      6  C   UNL     1      -1.167  11.507  21.380  0.00  0.00    +0.000 A 
ATOM      7  C   UNL     1      -0.750  10.749  20.284  0.00  0.00    +0.000 A 
ATOM      8  C   UNL     1       0.150   9.721  20.502  0.00  0.00    +0.000 A 
ATOM      9  N   UNL     1       1.164   9.155  19.716  0.00  0.00    +0.000 N 
ATOM     10  C   UNL     1       1.921  10.061  18.822  0.00  0.00    +0.000 C 
ATOM     11  C   UNL     1       1.325  11.513  18.629  0.00  0.00    +0.000 C 
ATOM     12  N   UNL     1      -0.038  11.498  18.111  0.00  0.00    +0.000 N 
ATOM     13  C   UNL     1      -1.094  11.074  18.882  0.00  0.00    +0.000 C 
ATOM     14  O   UNL     1      -2.221  10.897  18.440  0.00  0.00    +0.000 OA
ATOM     15  H   UNL     1      -0.257  11.661  17.135  0.00  0.00    +0.000 HD
ENDROOT
BRANCH   1  20
ATOM     16  C   UNL     1       2.092   4.154  20.125  0.00  0.00    +0.000 A 
ATOM     17  C   UNL     1       2.071   4.024  18.738  0.00  0.00    +0.000 A 
ATOM     18  C   UNL     1       2.192   5.147  17.937  0.00  0.00    +0.000 A 
ATOM     19  C   UNL     1       2.306   6.404  18.545  0.00  0.00    +0.000 A 
ATOM     20  C   UNL     1       2.146   6.602  19.954  0.00  0.00    +0.000 A 
ATOM     21  C   UNL     1       2.133   5.457  20.753  0.00  0.00    +0.000 A 
BRANCH  16  23
ATOM     22  O   UNL     1       1.869   2.908  22.113  0.00  0.00    +0.000 OA
ATOM     23  C   UNL     1       2.014   2.917  20.902  0.00  0.00    +0.000 C 
ENDBRANCH  16  23
ENDBRANCH   1  20
TORSDOF 2
ENDMDL
MODEL 9
REMARK VINA RESULT:      -7.6      4.351      6.266
REMARK  Name = 
REMARK  2 active torsions:
REMARK  status: ('A' for Active; 'I' for Inactive)
REMARK    1  A    between atoms: C_2  and  C_3
REMARK    2  A    between atoms: C_7  and  C_8
REMARK                            x       y       z     vdW  Elec       q    Type
REMARK                         _______ _______ _______ _____ _____    ______ ____
ROOT
ATOM      1  C   UNL     1       1.820   8.079  19.404  0.00  0.00    +0.000 A 
ATOM      2  C   UNL     1       1.346   7.788  20.689  0.00  0.00    +0.000 A 
ATOM      3  C   UNL     1       0.840   8.940  21.266  0.00  0.00    +0.000 A 
ATOM      4  C   UNL     1       0.516   9.352  22.555  0.00  0.00    +0.000 A 
ATOM      5  C   UNL     1      -0.267  10.501  22.687  0.00  0.00    +0.000 A 
ATOM      6  C   UNL     1      -0.892  11.079  21.569  0.00  0.00    +0.000 A 
ATOM      7  C   UNL     1      -0.563  10.619  20.292  0.00  0.00    +0.000 A 
ATOM      8  C   UNL     1       0.441   9.674  20.175  0.00  0.00    +0.000 A 
ATOM      9  N   UNL     1       1.385   9.401  19.173  0.00  0.00    +0.000 N 
ATOM     10  C   UNL     1       1.937  10.553  18.423  0.00  0.00    +0.000 C 
ATOM     11  C   UNL     1       1.201  11.937  18.625  0.00  0.00    +0.000 C 
ATOM     12  N   UNL     1      -0.213  11.880  18.273  0.00  0.00    +0.000 N 
ATOM     13  C   UNL     1      -1.117  11.190  19.044  0.00  0.00    +0.000 C 
ATOM     14  O   UNL     1      -2.274  10.986  18.704  0.00  0.00    +0.000 OA
ATOM     15  H   UNL     1      -0.573  12.218  17.389  0.00  0.00    +0.000 HD
ENDROOT
BRANCH   1  20
ATOM     16  C   UNL     1       4.689   6.396  17.580  0.00  0.00    +0.000 A 
ATOM     17  C   UNL     1       5.020   5.478  18.575  0.00  0.00    +0.000 A 
ATOM     18  C   UNL     1       4.122   5.213  19.594  0.00  0.00    +0.000 A 
ATOM     19  C   UNL     1       2.901   5.900  19.619  0.00  0.00    +0.000 A 
ATOM     20  C   UNL     1       2.600   6.980  18.728  0.00  0.00    +0.000 A 
ATOM     21  C   UNL     1       3.464   7.162  17.645  0.00  0.00    +0.000 A 
BRANCH  16  23
ATOM     22  O   UNL     1       5.344   6.792  15.350  0.00  0.00    +0.000 OA
ATOM     23  C   UNL     1       5.667   6.584  16.507  0.00  0.00    +0.000 C 
ENDBRANCH  16  23
ENDBRANCH   1  20
TORSDOF 2
ENDMDL
