MODEL 1
REMARK VINA RESULT:      -7.9      0.000      0.000
REMARK  Name = 
REMARK  3 active torsions:
REMARK  status: ('A' for Active; 'I' for Inactive)
REMARK    1  A    between atoms: C_2  and  C_3
REMARK    2  A    between atoms: N_11  and  C_12
REMARK    3  A    between atoms: C_12  and  C_13
REMARK                            x       y       z     vdW  Elec       q    Type
REMARK                         _______ _______ _______ _____ _____    ______ ____
ROOT
ATOM      1  C   UNL     1       2.396   5.611  17.971  0.00  0.00    +0.000 A 
ATOM      2  C   UNL     1       1.835   6.797  18.482  0.00  0.00    +0.000 A 
ATOM      3  C   UNL     1       2.418   8.055  18.277  0.00  0.00    +0.000 A 
ATOM      4  C   UNL     1       3.642   8.160  17.632  0.00  0.00    +0.000 A 
ATOM      5  C   UNL     1       4.257   6.993  17.214  0.00  0.00    +0.000 A 
ATOM      6  C   UNL     1       3.647   5.730  17.371  0.00  0.00    +0.000 A 
ATOM      7  C   UNL     1       4.609   4.742  16.821  0.00  0.00    +0.000 C 
ATOM      8  O   UNL     1       4.450   3.543  16.741  0.00  0.00    +0.000 OA
ATOM      9  N   UNL     1       5.734   5.450  16.408  0.00  0.00    +0.000 N 
ATOM     10  C   UNL     1       5.610   6.872  16.603  0.00  0.00    +0.000 C 
ENDROOT
BRANCH   1  12
ATOM     11  O   UNL     1       0.823   3.963  17.389  0.00  0.00    +0.000 OA
ATOM     12  C   UNL     1       1.669   4.323  18.202  0.00  0.00    +0.000 C 
ATOM     13  N   UNL     1       2.026   3.516  19.285  0.00  0.00    +0.000 N 
ATOM     14  C   UNL     1       1.369   2.233  19.502  0.00  0.00    +0.000 C 
ATOM     15  C   UNL     1       2.079   1.612  20.705  0.00  0.00    +0.000 C 
ATOM     16  C   UNL     1       2.543   2.822  21.493  0.00  0.00    +0.000 C 
ATOM     17  F   UNL     1       1.506   3.312  22.221  0.00  0.00    +0.000 F 
ATOM     18  C   UNL     1       2.917   3.815  20.405  0.00  0.00    +0.000 C 
ENDBRANCH   1  12
BRANCH   9  19
ATOM     19  C   UNL     1       6.956   4.860  15.892  0.00  0.00    +0.000 C 
BRANCH  19  20
ATOM     20  C   UNL     1       6.970   4.689  14.393  0.00  0.00    +0.000 A 
ATOM     21  C   UNL     1       7.819   5.458  13.580  0.00  0.00    +0.000 A 
ATOM     22  C   UNL     1       7.893   5.216  12.204  0.00  0.00    +0.000 A 
ATOM     23  C   UNL     1       7.118   4.212  11.627  0.00  0.00    +0.000 A 
ATOM     24  C   UNL     1       6.258   3.457  12.420  0.00  0.00    +0.000 A 
ATOM     25  C   UNL     1       6.187   3.691  13.794  0.00  0.00    +0.000 A 
ENDBRANCH  19  20
ENDBRANCH   9  19
TORSDOF 3
ENDMDL
MODEL 2
REMARK VINA RESULT:      -7.9      5.125      7.941
REMARK  Name = 
REMARK  3 active torsions:
REMARK  status: ('A' for Active; 'I' for Inactive)
REMARK    1  A    between atoms: C_2  and  C_3
REMARK    2  A    between atoms: N_11  and  C_12
REMARK    3  A    between atoms: C_12  and  C_13
REMARK                            x       y       z     vdW  Elec       q    Type
REMARK                         _______ _______ _______ _____ _____    ______ ____
ROOT
ATOM      1  C   UNL     1      -0.405  10.869  20.117  0.00  0.00    +0.000 A 
ATOM      2  C   UNL     1      -1.064  11.261  21.298  0.00  0.00    +0.000 A 
ATOM      3  C   UNL     1      -0.757  10.709  22.550  0.00  0.00    +0.000 A 
ATOM      4  C   UNL     1       0.158   9.670  22.649  0.00  0.00    +0.000 A 
ATOM      5  C   UNL     1       0.738   9.204  21.482  0.00  0.00    +0.000 A 
ATOM      6  C   UNL     1       0.472   9.793  20.228  0.00  0.00    +0.000 A 
ATOM      7  C   UNL     1       1.258   9.016  19.237  0.00  0.00    +0.000 C 
ATOM      8  O   UNL     1       1.328   9.222  18.045  0.00  0.00    +0.000 OA
ATOM      9  N   UNL     1       1.909   8.003  19.934  0.00  0.00    +0.000 N 
ATOM     10  C   UNL     1       1.656   8.038  21.352  0.00  0.00    +0.000 C 
ENDROOT
BRANCH   1  12
ATOM     11  O   UNL     1      -0.236  12.625  18.563  0.00  0.00    +0.000 OA
ATOM     12  C   UNL     1      -0.770  11.555  18.837  0.00  0.00    +0.000 C 
ATOM     13  N   UNL     1      -1.642  10.927  17.945  0.00  0.00    +0.000 N 
ATOM     14  C   UNL     1      -1.974  11.552  16.670  0.00  0.00    +0.000 C 
ATOM     15  C   UNL     1      -2.862  10.542  15.943  0.00  0.00    +0.000 C 
ATOM     16  C   UNL     1      -3.540   9.800  17.078  0.00  0.00    +0.000 C 
ATOM     17  F   UNL     1      -4.579  10.541  17.545  0.00  0.00    +0.000 F 
ATOM     18  C   UNL     1      -2.451   9.725  18.136  0.00  0.00    +0.000 C 
ENDBRANCH   1  12
BRANCH   9  19
ATOM     19  C   UNL     1       2.715   6.954  19.335  0.00  0.00    +0.000 C 
BRANCH  19  20
ATOM     20  C   UNL     1       2.046   5.602  19.314  0.00  0.00    +0.000 A 
ATOM     21  C   UNL     1       1.882   4.888  18.115  0.00  0.00    +0.000 A 
ATOM     22  C   UNL     1       1.352   3.594  18.127  0.00  0.00    +0.000 A 
ATOM     23  C   UNL     1       0.975   3.002  19.332  0.00  0.00    +0.000 A 
ATOM     24  C   UNL     1       1.115   3.707  20.524  0.00  0.00    +0.000 A 
ATOM     25  C   UNL     1       1.650   4.996  20.516  0.00  0.00    +0.000 A 
ENDBRANCH  19  20
ENDBRANCH   9  19
TORSDOF 3
ENDMDL
MODEL 3
REMARK VINA RESULT:      -7.7      4.778      7.280
REMARK  Name = 
REMARK  3 active torsions:
REMARK  status: ('A' for Active; 'I' for Inactive)
REMARK    1  A    between atoms: C_2  and  C_3
REMARK    2  A    between atoms: N_11  and  C_12
REMARK    3  A    between atoms: C_12  and  C_13
REMARK                            x       y       z     vdW  Elec       q    Type
REMARK                         _______ _______ _______ _____ _____    ______ ____
ROOT
ATOM      1  C   UNL     1      -0.032  10.317  19.997  0.00  0.00    +0.000 A 
ATOM      2  C   UNL     1      -0.606  10.335  21.283  0.00  0.00    +0.000 A 
ATOM      3  C   UNL     1      -0.182   9.477  22.308  0.00  0.00    +0.000 A 
ATOM      4  C   UNL     1       0.769   8.500  22.051  0.00  0.00    +0.000 A 
ATOM      5  C   UNL     1       1.268   8.402  20.764  0.00  0.00    +0.000 A 
ATOM      6  C   UNL     1       0.884   9.298  19.745  0.00  0.00    +0.000 A 
ATOM      7  C   UNL     1       1.612   8.865  18.525  0.00  0.00    +0.000 C 
ATOM      8  O   UNL     1       1.579   9.394  17.435  0.00  0.00    +0.000 OA
ATOM      9  N   UNL     1       2.347   7.734  18.867  0.00  0.00    +0.000 N 
ATOM     10  C   UNL     1       2.208   7.366  20.252  0.00  0.00    +0.000 C 
ENDROOT
BRANCH   1  12
ATOM     11  O   UNL     1      -0.020  12.429  18.964  0.00  0.00    +0.000 OA
ATOM     12  C   UNL     1      -0.519  11.308  18.986  0.00  0.00    +0.000 C 
ATOM     13  N   UNL     1      -1.466  10.915  18.038  0.00  0.00    +0.000 N 
ATOM     14  C   UNL     1      -1.919  11.846  17.012  0.00  0.00    +0.000 C 
ATOM     15  C   UNL     1      -2.865  11.040  16.122  0.00  0.00    +0.000 C 
ATOM     16  C   UNL     1      -3.429  10.001  17.071  0.00  0.00    +0.000 C 
ATOM     17  F   UNL     1      -4.425  10.557  17.809  0.00  0.00    +0.000 F 
ATOM     18  C   UNL     1      -2.246   9.680  17.969  0.00  0.00    +0.000 C 
ENDBRANCH   1  12
BRANCH   9  19
ATOM     19  C   UNL     1       3.134   6.933  17.946  0.00  0.00    +0.000 C 
BRANCH  19  20
ATOM     20  C   UNL     1       3.008   5.445  18.165  0.00  0.00    +0.000 A 
ATOM     21  C   UNL     1       1.833   4.756  17.826  0.00  0.00    +0.000 A 
ATOM     22  C   UNL     1       1.770   3.363  17.941  0.00  0.00    +0.000 A 
ATOM     23  C   UNL     1       2.875   2.647  18.399  0.00  0.00    +0.000 A 
ATOM     24  C   UNL     1       4.039   3.322  18.757  0.00  0.00    +0.000 A 
ATOM     25  C   UNL     1       4.107   4.711  18.637  0.00  0.00    +0.000 A 
ENDBRANCH  19  20
ENDBRANCH   9  19
TORSDOF 3
ENDMDL
MODEL 4
REMARK VINA RESULT:      -7.7      1.517      1.772
REMARK  Name = 
REMARK  3 active torsions:
REMARK  status: ('A' for Active; 'I' for Inactive)
REMARK    1  A    between atoms: C_2  and  C_3
REMARK    2  A    between atoms: N_11  and  C_12
REMARK    3  A    between atoms: C_12  and  C_13
REMARK                            x       y       z     vdW  Elec       q    Type
REMARK                         _______ _______ _______ _____ _____    ______ ____
ROOT
ATOM      1  C   UNL     1       2.786   6.179  19.090  0.00  0.00    +0.000 A 
ATOM      2  C   UNL     1       2.079   7.395  19.173  0.00  0.00    +0.000 A 
ATOM      3  C   UNL     1       2.301   8.456  18.283  0.00  0.00    +0.000 A 
ATOM      4  C   UNL     1       3.311   8.374  17.336  0.00  0.00    +0.000 A 
ATOM      5  C   UNL     1       4.084   7.226  17.310  0.00  0.00    +0.000 A 
ATOM      6  C   UNL     1       3.828   6.134  18.167  0.00  0.00    +0.000 A 
ATOM      7  C   UNL     1       4.863   5.117  17.851  0.00  0.00    +0.000 C 
ATOM      8  O   UNL     1       4.974   4.017  18.348  0.00  0.00    +0.000 OA
ATOM      9  N   UNL     1       5.685   5.660  16.869  0.00  0.00    +0.000 N 
ATOM     10  C   UNL     1       5.276   6.977  16.453  0.00  0.00    +0.000 C 
ENDROOT
BRANCH   1  12
ATOM     11  O   UNL     1       2.586   5.288  21.256  0.00  0.00    +0.000 OA
ATOM     12  C   UNL     1       2.441   5.088  20.054  0.00  0.00    +0.000 C 
ATOM     13  N   UNL     1       1.881   3.900  19.577  0.00  0.00    +0.000 N 
ATOM     14  C   UNL     1       1.490   2.842  20.501  0.00  0.00    +0.000 C 
ATOM     15  C   UNL     1       0.845   1.763  19.632  0.00  0.00    +0.000 C 
ATOM     16  C   UNL     1       1.546   1.932  18.297  0.00  0.00    +0.000 C 
ATOM     17  F   UNL     1       2.759   1.323  18.343  0.00  0.00    +0.000 F 
ATOM     18  C   UNL     1       1.734   3.438  18.199  0.00  0.00    +0.000 C 
ENDBRANCH   1  12
BRANCH   9  19
ATOM     19  C   UNL     1       6.882   5.035  16.334  0.00  0.00    +0.000 C 
BRANCH  19  20
ATOM     20  C   UNL     1       6.824   4.769  14.850  0.00  0.00    +0.000 A 
ATOM     21  C   UNL     1       7.724   5.381  13.963  0.00  0.00    +0.000 A 
ATOM     22  C   UNL     1       7.722   5.045  12.605  0.00  0.00    +0.000 A 
ATOM     23  C   UNL     1       6.819   4.101  12.119  0.00  0.00    +0.000 A 
ATOM     24  C   UNL     1       5.909   3.501  12.985  0.00  0.00    +0.000 A 
ATOM     25  C   UNL     1       5.914   3.829  14.342  0.00  0.00    +0.000 A 
ENDBRANCH  19  20
ENDBRANCH   9  19
TORSDOF 3
ENDMDL
MODEL 5
REMARK VINA RESULT:      -7.6      3.085      7.154
REMARK  Name = 
REMARK  3 active torsions:
REMARK  status: ('A' for Active; 'I' for Inactive)
REMARK    1  A    between atoms: C_2  and  C_3
REMARK    2  A    between atoms: N_11  and  C_12
REMARK    3  A    between atoms: C_12  and  C_13
REMARK                            x       y       z     vdW  Elec       q    Type
REMARK                         _______ _______ _______ _____ _____    ______ ____
ROOT
ATOM      1  C   UNL     1       3.173   4.521  18.685  0.00  0.00    +0.000 A 
ATOM      2  C   UNL     1       3.054   3.565  19.711  0.00  0.00    +0.000 A 
ATOM      3  C   UNL     1       2.357   3.821  20.901  0.00  0.00    +0.000 A 
ATOM      4  C   UNL     1       1.835   5.082  21.146  0.00  0.00    +0.000 A 
ATOM      5  C   UNL     1       2.034   6.064  20.191  0.00  0.00    +0.000 A 
ATOM      6  C   UNL     1       2.687   5.795  18.970  0.00  0.00    +0.000 A 
ATOM      7  C   UNL     1       2.717   7.083  18.231  0.00  0.00    +0.000 C 
ATOM      8  O   UNL     1       3.167   7.272  17.122  0.00  0.00    +0.000 OA
ATOM      9  N   UNL     1       2.125   8.039  19.050  0.00  0.00    +0.000 N 
ATOM     10  C   UNL     1       1.654   7.500  20.300  0.00  0.00    +0.000 C 
ENDROOT
BRANCH   1  12
ATOM     11  O   UNL     1       3.326   3.413  16.617  0.00  0.00    +0.000 OA
ATOM     12  C   UNL     1       3.894   4.134  17.431  0.00  0.00    +0.000 C 
ATOM     13  N   UNL     1       5.160   4.666  17.174  0.00  0.00    +0.000 N 
ATOM     14  C   UNL     1       5.861   4.343  15.937  0.00  0.00    +0.000 C 
ATOM     15  C   UNL     1       7.147   5.170  15.973  0.00  0.00    +0.000 C 
ATOM     16  C   UNL     1       7.425   5.310  17.457  0.00  0.00    +0.000 C 
ATOM     17  F   UNL     1       8.014   4.175  17.915  0.00  0.00    +0.000 F 
ATOM     18  C   UNL     1       6.033   5.440  18.054  0.00  0.00    +0.000 C 
ENDBRANCH   1  12
BRANCH   9  19
ATOM     19  C   UNL     1       2.028   9.457  18.754  0.00  0.00    +0.000 C 
BRANCH  19  20
ATOM     20  C   UNL     1       0.625  10.007  18.838  0.00  0.00    +0.000 A 
ATOM     21  C   UNL     1       0.253  10.901  19.855  0.00  0.00    +0.000 A 
ATOM     22  C   UNL     1      -1.020  11.480  19.860  0.00  0.00    +0.000 A 
ATOM     23  C   UNL     1      -1.935  11.169  18.856  0.00  0.00    +0.000 A 
ATOM     24  C   UNL     1      -1.584  10.268  17.853  0.00  0.00    +0.000 A 
ATOM     25  C   UNL     1      -0.312   9.695  17.842  0.00  0.00    +0.000 A 
ENDBRANCH  19  20
ENDBRANCH   9  19
TORSDOF 3
ENDMDL
MODEL 6
REMARK VINA RESULT:      -7.6      3.292      7.736
REMARK  Name = 
REMARK  3 active torsions:
REMARK  status: ('A' for Active; 'I' for Inactive)
REMARK    1  A    between atoms: C_2  and  C_3
REMARK    2  A    between atoms: N_11  and  C_12
REMARK    3  A    between atoms: C_12  and  C_13
REMARK                            x       y       z     vdW  Elec       q    Type
REMARK                         _______ _______ _______ _____ _____    ______ ____
ROOT
ATOM      1  C   UNL     1       4.453   4.286  19.313  0.00  0.00    +0.000 A 
ATOM      2  C   UNL     1       4.241   3.089  20.024  0.00  0.00    +0.000 A 
ATOM      3  C   UNL     1       3.042   2.815  20.697  0.00  0.00    +0.000 A 
ATOM      4  C   UNL     1       2.044   3.777  20.763  0.00  0.00    +0.000 A 
ATOM      5  C   UNL     1       2.279   4.999  20.157  0.00  0.00    +0.000 A 
ATOM      6  C   UNL     1       3.461   5.257  19.433  0.00  0.00    +0.000 A 
ATOM      7  C   UNL     1       3.348   6.658  18.954  0.00  0.00    +0.000 C 
ATOM      8  O   UNL     1       4.147   7.256  18.267  0.00  0.00    +0.000 OA
ATOM      9  N   UNL     1       2.145   7.161  19.440  0.00  0.00    +0.000 N 
ATOM     10  C   UNL     1       1.394   6.196  20.200  0.00  0.00    +0.000 C 
ENDROOT
BRANCH   1  12
ATOM     11  O   UNL     1       6.778   4.623  19.233  0.00  0.00    +0.000 OA
ATOM     12  C   UNL     1       5.749   4.462  18.585  0.00  0.00    +0.000 C 
ATOM     13  N   UNL     1       5.776   4.353  17.193  0.00  0.00    +0.000 N 
ATOM     14  C   UNL     1       7.033   4.470  16.464  0.00  0.00    +0.000 C 
ATOM     15  C   UNL     1       6.680   4.208  15.000  0.00  0.00    +0.000 C 
ATOM     16  C   UNL     1       5.240   4.676  14.905  0.00  0.00    +0.000 C 
ATOM     17  F   UNL     1       5.212   6.028  14.782  0.00  0.00    +0.000 F 
ATOM     18  C   UNL     1       4.660   4.273  16.251  0.00  0.00    +0.000 C 
ENDBRANCH   1  12
BRANCH   9  19
ATOM     19  C   UNL     1       1.681   8.528  19.283  0.00  0.00    +0.000 C 
BRANCH  19  20
ATOM     20  C   UNL     1       0.930   9.062  20.478  0.00  0.00    +0.000 A 
ATOM     21  C   UNL     1       1.329   8.751  21.788  0.00  0.00    +0.000 A 
ATOM     22  C   UNL     1       0.684   9.335  22.883  0.00  0.00    +0.000 A 
ATOM     23  C   UNL     1      -0.366  10.230  22.682  0.00  0.00    +0.000 A 
ATOM     24  C   UNL     1      -0.783  10.531  21.389  0.00  0.00    +0.000 A 
ATOM     25  C   UNL     1      -0.137   9.955  20.294  0.00  0.00    +0.000 A 
ENDBRANCH  19  20
ENDBRANCH   9  19
TORSDOF 3
ENDMDL
MODEL 7
REMARK VINA RESULT:      -7.6      2.895      7.202
REMARK  Name = 
REMARK  3 active torsions:
REMARK  status: ('A' for Active; 'I' for Inactive)
REMARK    1  A    between atoms: C_2  and  C_3
REMARK    2  A    between atoms: N_11  and  C_12
REMARK    3  A    between atoms: C_12  and  C_13
REMARK                            x       y       z     vdW  Elec       q    Type
REMARK                         _______ _______ _______ _____ _____    ______ ____
ROOT
ATOM      1  C   UNL     1       3.860   3.651  18.677  0.00  0.00    +0.000 A 
ATOM      2  C   UNL     1       3.420   2.324  18.505  0.00  0.00    +0.000 A 
ATOM      3  C   UNL     1       2.112   1.919  18.808  0.00  0.00    +0.000 A 
ATOM      4  C   UNL     1       1.222   2.812  19.388  0.00  0.00    +0.000 A 
ATOM      5  C   UNL     1       1.672   4.092  19.659  0.00  0.00    +0.000 A 
ATOM      6  C   UNL     1       2.969   4.518  19.306  0.00  0.00    +0.000 A 
ATOM      7  C   UNL     1       3.076   5.925  19.767  0.00  0.00    +0.000 C 
ATOM      8  O   UNL     1       4.027   6.664  19.627  0.00  0.00    +0.000 OA
ATOM      9  N   UNL     1       1.874   6.245  20.391  0.00  0.00    +0.000 N 
ATOM     10  C   UNL     1       0.921   5.165  20.368  0.00  0.00    +0.000 C 
ENDROOT
BRANCH   1  12
ATOM     11  O   UNL     1       6.133   4.032  19.139  0.00  0.00    +0.000 OA
ATOM     12  C   UNL     1       5.260   3.994  18.277  0.00  0.00    +0.000 C 
ATOM     13  N   UNL     1       5.564   4.178  16.926  0.00  0.00    +0.000 N 
ATOM     14  C   UNL     1       6.931   4.464  16.506  0.00  0.00    +0.000 C 
ATOM     15  C   UNL     1       6.885   4.507  14.979  0.00  0.00    +0.000 C 
ATOM     16  C   UNL     1       5.467   4.963  14.690  0.00  0.00    +0.000 C 
ATOM     17  F   UNL     1       5.387   6.310  14.839  0.00  0.00    +0.000 F 
ATOM     18  C   UNL     1       4.660   4.279  15.782  0.00  0.00    +0.000 C 
ENDBRANCH   1  12
BRANCH   9  19
ATOM     19  C   UNL     1       1.585   7.496  21.068  0.00  0.00    +0.000 C 
BRANCH  19  20
ATOM     20  C   UNL     1       1.032   8.570  20.164  0.00  0.00    +0.000 A 
ATOM     21  C   UNL     1       1.519   8.745  18.858  0.00  0.00    +0.000 A 
ATOM     22  C   UNL     1       0.927   9.677  18.000  0.00  0.00    +0.000 A 
ATOM     23  C   UNL     1      -0.150  10.446  18.436  0.00  0.00    +0.000 A 
ATOM     24  C   UNL     1      -0.629  10.296  19.735  0.00  0.00    +0.000 A 
ATOM     25  C   UNL     1      -0.044   9.361  20.592  0.00  0.00    +0.000 A 
ENDBRANCH  19  20
ENDBRANCH   9  19
TORSDOF 3
ENDMDL
MODEL 8
REMARK VINA RESULT:      -7.6      4.931      7.669
REMARK  Name = 
REMARK  3 active torsions:
REMARK  status: ('A' for Active; 'I' for Inactive)
REMARK    1  A    between atoms: C_2  and  C_3
REMARK    2  A    between atoms: N_11  and  C_12
REMARK    3  A    between atoms: C_12  and  C_13
REMARK                            x       y       z     vdW  Elec       q    Type
REMARK                         _______ _______ _______ _____ _____    ______ ____
ROOT
ATOM      1  C   UNL     1       0.278  10.448  20.070  0.00  0.00    +0.000 A 
ATOM      2  C   UNL     1      -0.383  10.418  21.313  0.00  0.00    +0.000 A 
ATOM      3  C   UNL     1      -0.154   9.413  22.263  0.00  0.00    +0.000 A 
ATOM      4  C   UNL     1       0.676   8.343  21.961  0.00  0.00    +0.000 A 
ATOM      5  C   UNL     1       1.252   8.304  20.703  0.00  0.00    +0.000 A 
ATOM      6  C   UNL     1       1.068   9.341  19.765  0.00  0.00    +0.000 A 
ATOM      7  C   UNL     1       1.820   8.933  18.552  0.00  0.00    +0.000 C 
ATOM      8  O   UNL     1       1.940   9.567  17.526  0.00  0.00    +0.000 OA
ATOM      9  N   UNL     1       2.372   7.683  18.813  0.00  0.00    +0.000 N 
ATOM     10  C   UNL     1       2.082   7.202  20.140  0.00  0.00    +0.000 C 
ENDROOT
BRANCH   1  12
ATOM     11  O   UNL     1      -0.942  11.514  18.367  0.00  0.00    +0.000 OA
ATOM     12  C   UNL     1       0.003  11.592  19.145  0.00  0.00    +0.000 C 
ATOM     13  N   UNL     1       0.770  12.756  19.243  0.00  0.00    +0.000 N 
ATOM     14  C   UNL     1       0.490  13.903  18.388  0.00  0.00    +0.000 C 
ATOM     15  C   UNL     1       1.457  14.995  18.844  0.00  0.00    +0.000 C 
ATOM     16  C   UNL     1       2.641  14.207  19.370  0.00  0.00    +0.000 C 
ATOM     17  F   UNL     1       3.415  13.805  18.329  0.00  0.00    +0.000 F 
ATOM     18  C   UNL     1       1.987  12.997  20.017  0.00  0.00    +0.000 C 
ENDBRANCH   1  12
BRANCH   9  19
ATOM     19  C   UNL     1       3.113   6.875  17.861  0.00  0.00    +0.000 C 
BRANCH  19  20
ATOM     20  C   UNL     1       3.018   5.390  18.112  0.00  0.00    +0.000 A 
ATOM     21  C   UNL     1       1.856   4.670  17.793  0.00  0.00    +0.000 A 
ATOM     22  C   UNL     1       1.821   3.279  17.936  0.00  0.00    +0.000 A 
ATOM     23  C   UNL     1       2.942   2.595  18.404  0.00  0.00    +0.000 A 
ATOM     24  C   UNL     1       4.094   3.300  18.742  0.00  0.00    +0.000 A 
ATOM     25  C   UNL     1       4.133   4.688  18.593  0.00  0.00    +0.000 A 
ENDBRANCH  19  20
ENDBRANCH   9  19
TORSDOF 3
ENDMDL
MODEL 9
REMARK VINA RESULT:      -7.5      3.368      7.797
REMARK  Name = 
REMARK  3 active torsions:
REMARK  status: ('A' for Active; 'I' for Inactive)
REMARK    1  A    between atoms: C_2  and  C_3
REMARK    2  A    between atoms: N_11  and  C_12
REMARK    3  A    between atoms: C_12  and  C_13
REMARK                            x       y       z     vdW  Elec       q    Type
REMARK                         _______ _______ _______ _____ _____    ______ ____
ROOT
ATOM      1  C   UNL     1       3.270   4.246  18.809  0.00  0.00    +0.000 A 
ATOM      2  C   UNL     1       3.264   3.105  19.634  0.00  0.00    +0.000 A 
ATOM      3  C   UNL     1       2.549   3.051  20.839  0.00  0.00    +0.000 A 
ATOM      4  C   UNL     1       1.891   4.178  21.311  0.00  0.00    +0.000 A 
ATOM      5  C   UNL     1       1.975   5.339  20.562  0.00  0.00    +0.000 A 
ATOM      6  C   UNL     1       2.647   5.381  19.323  0.00  0.00    +0.000 A 
ATOM      7  C   UNL     1       2.529   6.781  18.843  0.00  0.00    +0.000 C 
ATOM      8  O   UNL     1       2.950   7.227  17.797  0.00  0.00    +0.000 OA
ATOM      9  N   UNL     1       1.839   7.493  19.819  0.00  0.00    +0.000 N 
ATOM     10  C   UNL     1       1.437   6.677  20.936  0.00  0.00    +0.000 C 
ENDROOT
BRANCH   1  12
ATOM     11  O   UNL     1       3.492   3.663  16.543  0.00  0.00    +0.000 OA
ATOM     12  C   UNL     1       4.023   4.186  17.517  0.00  0.00    +0.000 C 
ATOM     13  N   UNL     1       5.274   4.800  17.421  0.00  0.00    +0.000 N 
ATOM     14  C   UNL     1       6.006   4.798  16.159  0.00  0.00    +0.000 C 
ATOM     15  C   UNL     1       7.262   5.629  16.418  0.00  0.00    +0.000 C 
ATOM     16  C   UNL     1       7.512   5.422  17.900  0.00  0.00    +0.000 C 
ATOM     17  F   UNL     1       8.131   4.228  18.091  0.00  0.00    +0.000 F 
ATOM     18  C   UNL     1       6.108   5.368  18.479  0.00  0.00    +0.000 C 
ENDBRANCH   1  12
BRANCH   9  19
ATOM     19  C   UNL     1       1.583   8.922  19.795  0.00  0.00    +0.000 C 
BRANCH  19  20
ATOM     20  C   UNL     1       0.704   9.407  20.921  0.00  0.00    +0.000 A 
ATOM     21  C   UNL     1       0.933   9.007  22.248  0.00  0.00    +0.000 A 
ATOM     22  C   UNL     1       0.173   9.546  23.292  0.00  0.00    +0.000 A 
ATOM     23  C   UNL     1      -0.823  10.482  23.022  0.00  0.00    +0.000 A 
ATOM     24  C   UNL     1      -1.072  10.872  21.709  0.00  0.00    +0.000 A 
ATOM     25  C   UNL     1      -0.310  10.342  20.666  0.00  0.00    +0.000 A 
ENDBRANCH  19  20
ENDBRANCH   9  19
TORSDOF 3
ENDMDL
