MODEL 1
REMARK VINA RESULT:      -8.1      0.000      0.000
REMARK  Name = 
REMARK  6 active torsions:
REMARK  status: ('A' for Active; 'I' for Inactive)
REMARK    1  A    between atoms: N_3  and  C_4
REMARK    2  A    between atoms: C_4  and  C_5
REMARK    3  A    between atoms: N_9  and  C_10
REMARK    4  A    between atoms: C_10  and  C_11
REMARK    5  A    between atoms: C_11  and  C_12
REMARK    6  A    between atoms: C_12  and  C_13
REMARK                            x       y       z     vdW  Elec       q    Type
REMARK                         _______ _______ _______ _____ _____    ______ ____
ROOT
ATOM      1  C   UNL     1       5.584   5.924  16.276  0.00  0.00    +0.000 A 
ATOM      2  N   UNL     1       5.635   5.541  15.008  0.00  0.00    +0.000 NA
ATOM      3  C   UNL     1       6.859   4.959  14.831  0.00  0.00    +0.000 A 
ATOM      4  C   UNL     1       7.586   5.005  15.988  0.00  0.00    +0.000 A 
ATOM      5  N   UNL     1       6.774   5.618  16.910  0.00  0.00    +0.000 N 
ENDROOT
BRANCH   1   6
ATOM      6  C   UNL     1       4.365   6.509  16.924  0.00  0.00    +0.000 C 
BRANCH   6   9
ATOM      7  O   UNL     1       3.066   6.816  19.374  0.00  0.00    +0.000 OA
ATOM      8  C   UNL     1       2.979   5.732  18.797  0.00  0.00    +0.000 C 
ATOM      9  N   UNL     1       3.583   5.493  17.600  0.00  0.00    +0.000 N 
ATOM     10  N   UNL     1       2.262   4.696  19.321  0.00  0.00    +0.000 N 
ATOM     11  C   UNL     1       1.435   4.871  20.509  0.00  0.00    +0.000 C 
ATOM     12  C   UNL     1       1.056   3.417  20.845  0.00  0.00    +0.000 C 
ATOM     13  C   UNL     1       2.303   2.697  21.388  0.00  0.00    +0.000 C 
ATOM     14  C   UNL     1       3.221   2.627  20.150  0.00  0.00    +0.000 C 
ATOM     15  C   UNL     1       2.349   3.260  19.042  0.00  0.00    +0.000 C 
ATOM     16  C   UNL     1       0.948   2.798  19.446  0.00  0.00    +0.000 C 
ATOM     17  H   UNL     1       3.170   4.788  17.009  0.00  0.00    +0.000 HD
ENDBRANCH   6   9
ENDBRANCH   1   6
BRANCH   5  18
ATOM     18  C   UNL     1       7.200   5.912  18.261  0.00  0.00    +0.000 C 
BRANCH  18  19
ATOM     19  C   UNL     1       8.126   7.118  18.408  0.00  0.00    +0.000 C 
BRANCH  19  20
ATOM     20  C   UNL     1       7.735   8.335  17.559  0.00  0.00    +0.000 C 
BRANCH  20  21
ATOM     21  C   UNL     1       8.352   9.588  18.139  0.00  0.00    +0.000 A 
ATOM     22  C   UNL     1       8.216  10.814  17.473  0.00  0.00    +0.000 A 
ATOM     23  C   UNL     1       8.875  11.952  17.942  0.00  0.00    +0.000 A 
ATOM     24  C   UNL     1       9.671  11.877  19.083  0.00  0.00    +0.000 A 
ATOM     25  C   UNL     1       9.795  10.668  19.765  0.00  0.00    +0.000 A 
ATOM     26  C   UNL     1       9.140   9.528  19.296  0.00  0.00    +0.000 A 
ENDBRANCH  20  21
ENDBRANCH  19  20
ENDBRANCH  18  19
ENDBRANCH   5  18
TORSDOF 6
ENDMDL
MODEL 2
REMARK VINA RESULT:      -7.8      1.631      2.327
REMARK  Name = 
REMARK  6 active torsions:
REMARK  status: ('A' for Active; 'I' for Inactive)
REMARK    1  A    between atoms: N_3  and  C_4
REMARK    2  A    between atoms: C_4  and  C_5
REMARK    3  A    between atoms: N_9  and  C_10
REMARK    4  A    between atoms: C_10  and  C_11
REMARK    5  A    between atoms: C_11  and  C_12
REMARK    6  A    between atoms: C_12  and  C_13
REMARK                            x       y       z     vdW  Elec       q    Type
REMARK                         _______ _______ _______ _____ _____    ______ ____
ROOT
ATOM      1  C   UNL     1       6.671   5.390  17.759  0.00  0.00    +0.000 A 
ATOM      2  N   UNL     1       6.846   4.248  17.111  0.00  0.00    +0.000 NA
ATOM      3  C   UNL     1       7.296   4.578  15.863  0.00  0.00    +0.000 A 
ATOM      4  C   UNL     1       7.375   5.936  15.724  0.00  0.00    +0.000 A 
ATOM      5  N   UNL     1       6.978   6.455  16.932  0.00  0.00    +0.000 N 
ENDROOT
BRANCH   1   6
ATOM      6  C   UNL     1       6.292   5.480  19.207  0.00  0.00    +0.000 C 
BRANCH   6   9
ATOM      7  O   UNL     1       5.250   2.946  19.734  0.00  0.00    +0.000 OA
ATOM      8  C   UNL     1       4.471   3.897  19.666  0.00  0.00    +0.000 C 
ATOM      9  N   UNL     1       4.891   5.167  19.410  0.00  0.00    +0.000 N 
ATOM     10  N   UNL     1       3.128   3.739  19.850  0.00  0.00    +0.000 N 
ATOM     11  C   UNL     1       2.569   2.468  20.292  0.00  0.00    +0.000 C 
ATOM     12  C   UNL     1       1.059   2.706  20.104  0.00  0.00    +0.000 C 
ATOM     13  C   UNL     1       0.748   2.721  18.596  0.00  0.00    +0.000 C 
ATOM     14  C   UNL     1       1.451   4.009  18.118  0.00  0.00    +0.000 C 
ATOM     15  C   UNL     1       2.017   4.597  19.430  0.00  0.00    +0.000 C 
ATOM     16  C   UNL     1       0.941   4.197  20.440  0.00  0.00    +0.000 C 
ATOM     17  H   UNL     1       4.316   5.920  19.753  0.00  0.00    +0.000 HD
ENDBRANCH   6   9
ENDBRANCH   1   6
BRANCH   5  18
ATOM     18  C   UNL     1       6.866   7.876  17.178  0.00  0.00    +0.000 C 
BRANCH  18  19
ATOM     19  C   UNL     1       8.122   8.545  17.733  0.00  0.00    +0.000 C 
BRANCH  19  20
ATOM     20  C   UNL     1       7.912   9.975  18.250  0.00  0.00    +0.000 C 
BRANCH  20  21
ATOM     21  C   UNL     1       9.230  10.554  18.714  0.00  0.00    +0.000 A 
ATOM     22  C   UNL     1       9.411  10.907  20.059  0.00  0.00    +0.000 A 
ATOM     23  C   UNL     1      10.582  11.543  20.473  0.00  0.00    +0.000 A 
ATOM     24  C   UNL     1      11.586  11.828  19.550  0.00  0.00    +0.000 A 
ATOM     25  C   UNL     1      11.426  11.462  18.214  0.00  0.00    +0.000 A 
ATOM     26  C   UNL     1      10.253  10.828  17.797  0.00  0.00    +0.000 A 
ENDBRANCH  20  21
ENDBRANCH  19  20
ENDBRANCH  18  19
ENDBRANCH   5  18
TORSDOF 6
ENDMDL
MODEL 3
REMARK VINA RESULT:      -7.8      3.080      6.547
REMARK  Name = 
REMARK  6 active torsions:
REMARK  status: ('A' for Active; 'I' for Inactive)
REMARK    1  A    between atoms: N_3  and  C_4
REMARK    2  A    between atoms: C_4  and  C_5
REMARK    3  A    between atoms: N_9  and  C_10
REMARK    4  A    between atoms: C_10  and  C_11
REMARK    5  A    between atoms: C_11  and  C_12
REMARK    6  A    between atoms: C_12  and  C_13
REMARK                            x       y       z     vdW  Elec       q    Type
REMARK                         _______ _______ _______ _____ _____    ______ ____
ROOT
ATOM      1  C   UNL     1       2.803   2.489  19.821  0.00  0.00    +0.000 A 
ATOM      2  N   UNL     1       2.119   1.618  19.093  0.00  0.00    +0.000 NA
ATOM      3  C   UNL     1       0.824   2.057  19.084  0.00  0.00    +0.000 A 
ATOM      4  C   UNL     1       0.696   3.192  19.835  0.00  0.00    +0.000 A 
ATOM      5  N   UNL     1       1.957   3.470  20.304  0.00  0.00    +0.000 N 
ENDROOT
BRANCH   1   6
ATOM      6  C   UNL     1       4.292   2.447  19.994  0.00  0.00    +0.000 C 
BRANCH   6   9
ATOM      7  O   UNL     1       5.337   5.029  19.838  0.00  0.00    +0.000 OA
ATOM      8  C   UNL     1       5.459   4.288  18.863  0.00  0.00    +0.000 C 
ATOM      9  N   UNL     1       4.977   3.015  18.849  0.00  0.00    +0.000 N 
ATOM     10  N   UNL     1       6.094   4.697  17.726  0.00  0.00    +0.000 N 
ATOM     11  C   UNL     1       6.798   5.973  17.668  0.00  0.00    +0.000 C 
ATOM     12  C   UNL     1       7.107   6.093  16.165  0.00  0.00    +0.000 C 
ATOM     13  C   UNL     1       5.795   6.381  15.414  0.00  0.00    +0.000 C 
ATOM     14  C   UNL     1       5.008   5.065  15.588  0.00  0.00    +0.000 C 
ATOM     15  C   UNL     1       6.004   4.172  16.361  0.00  0.00    +0.000 C 
ATOM     16  C   UNL     1       7.345   4.627  15.784  0.00  0.00    +0.000 C 
ATOM     17  H   UNL     1       5.432   2.356  18.237  0.00  0.00    +0.000 HD
ENDBRANCH   6   9
ENDBRANCH   1   6
BRANCH   5  18
ATOM     18  C   UNL     1       2.238   4.574  21.195  0.00  0.00    +0.000 C 
BRANCH  18  19
ATOM     19  C   UNL     1       1.695   5.930  20.750  0.00  0.00    +0.000 C 
BRANCH  19  20
ATOM     20  C   UNL     1       2.506   6.613  19.640  0.00  0.00    +0.000 C 
BRANCH  20  21
ATOM     21  C   UNL     1       1.924   7.976  19.341  0.00  0.00    +0.000 A 
ATOM     22  C   UNL     1       2.152   8.583  18.098  0.00  0.00    +0.000 A 
ATOM     23  C   UNL     1       1.714   9.886  17.855  0.00  0.00    +0.000 A 
ATOM     24  C   UNL     1       1.038  10.592  18.847  0.00  0.00    +0.000 A 
ATOM     25  C   UNL     1       0.786   9.990  20.079  0.00  0.00    +0.000 A 
ATOM     26  C   UNL     1       1.227   8.688  20.326  0.00  0.00    +0.000 A 
ENDBRANCH  20  21
ENDBRANCH  19  20
ENDBRANCH  18  19
ENDBRANCH   5  18
TORSDOF 6
ENDMDL
MODEL 4
REMARK VINA RESULT:      -7.8      2.463      5.005
REMARK  Name = 
REMARK  6 active torsions:
REMARK  status: ('A' for Active; 'I' for Inactive)
REMARK    1  A    between atoms: N_3  and  C_4
REMARK    2  A    between atoms: C_4  and  C_5
REMARK    3  A    between atoms: N_9  and  C_10
REMARK    4  A    between atoms: C_10  and  C_11
REMARK    5  A    between atoms: C_11  and  C_12
REMARK    6  A    between atoms: C_12  and  C_13
REMARK                            x       y       z     vdW  Elec       q    Type
REMARK                         _______ _______ _______ _____ _____    ______ ____
ROOT
ATOM      1  C   UNL     1       6.814   5.963  18.158  0.00  0.00    +0.000 A 
ATOM      2  N   UNL     1       7.975   6.531  18.452  0.00  0.00    +0.000 NA
ATOM      3  C   UNL     1       7.909   7.810  17.973  0.00  0.00    +0.000 A 
ATOM      4  C   UNL     1       6.712   8.030  17.350  0.00  0.00    +0.000 A 
ATOM      5  N   UNL     1       6.013   6.854  17.469  0.00  0.00    +0.000 N 
ENDROOT
BRANCH   1   6
ATOM      6  C   UNL     1       6.419   4.588  18.606  0.00  0.00    +0.000 C 
BRANCH   6   9
ATOM      7  O   UNL     1       5.168   2.474  19.930  0.00  0.00    +0.000 OA
ATOM      8  C   UNL     1       4.491   3.455  19.622  0.00  0.00    +0.000 C 
ATOM      9  N   UNL     1       5.018   4.530  18.972  0.00  0.00    +0.000 N 
ATOM     10  N   UNL     1       3.162   3.532  19.921  0.00  0.00    +0.000 N 
ATOM     11  C   UNL     1       2.514   2.528  20.755  0.00  0.00    +0.000 C 
ATOM     12  C   UNL     1       1.027   2.893  20.589  0.00  0.00    +0.000 C 
ATOM     13  C   UNL     1       0.582   2.507  19.167  0.00  0.00    +0.000 C 
ATOM     14  C   UNL     1       1.370   3.498  18.284  0.00  0.00    +0.000 C 
ATOM     15  C   UNL     1       2.114   4.365  19.325  0.00  0.00    +0.000 C 
ATOM     16  C   UNL     1       1.099   4.419  20.467  0.00  0.00    +0.000 C 
ATOM     17  H   UNL     1       4.560   5.418  19.105  0.00  0.00    +0.000 HD
ENDBRANCH   6   9
ENDBRANCH   1   6
BRANCH   5  18
ATOM     18  C   UNL     1       4.704   6.656  16.884  0.00  0.00    +0.000 C 
BRANCH  18  19
ATOM     19  C   UNL     1       3.523   6.931  17.812  0.00  0.00    +0.000 C 
BRANCH  19  20
ATOM     20  C   UNL     1       2.746   8.217  17.498  0.00  0.00    +0.000 C 
BRANCH  20  21
ATOM     21  C   UNL     1       1.924   8.629  18.698  0.00  0.00    +0.000 A 
ATOM     22  C   UNL     1       2.034   7.922  19.904  0.00  0.00    +0.000 A 
ATOM     23  C   UNL     1       1.199   8.224  20.981  0.00  0.00    +0.000 A 
ATOM     24  C   UNL     1       0.250   9.238  20.866  0.00  0.00    +0.000 A 
ATOM     25  C   UNL     1       0.147   9.961  19.679  0.00  0.00    +0.000 A 
ATOM     26  C   UNL     1       0.979   9.659  18.599  0.00  0.00    +0.000 A 
ENDBRANCH  20  21
ENDBRANCH  19  20
ENDBRANCH  18  19
ENDBRANCH   5  18
TORSDOF 6
ENDMDL
MODEL 5
REMARK VINA RESULT:      -7.7      3.317      4.966
REMARK  Name = 
REMARK  6 active torsions:
REMARK  status: ('A' for Active; 'I' for Inactive)
REMARK    1  A    between atoms: N_3  and  C_4
REMARK    2  A    between atoms: C_4  and  C_5
REMARK    3  A    between atoms: N_9  and  C_10
REMARK    4  A    between atoms: C_10  and  C_11
REMARK    5  A    between atoms: C_11  and  C_12
REMARK    6  A    between atoms: C_12  and  C_13
REMARK                            x       y       z     vdW  Elec       q    Type
REMARK                         _______ _______ _______ _____ _____    ______ ____
ROOT
ATOM      1  C   UNL     1       5.985   5.011  16.997  0.00  0.00    +0.000 A 
ATOM      2  N   UNL     1       6.262   4.446  15.831  0.00  0.00    +0.000 NA
ATOM      3  C   UNL     1       5.787   5.295  14.870  0.00  0.00    +0.000 A 
ATOM      4  C   UNL     1       5.185   6.381  15.442  0.00  0.00    +0.000 A 
ATOM      5  N   UNL     1       5.311   6.202  16.798  0.00  0.00    +0.000 N 
ENDROOT
BRANCH   1   6
ATOM      6  C   UNL     1       6.435   4.464  18.319  0.00  0.00    +0.000 C 
BRANCH   6   9
ATOM      7  O   UNL     1       4.282   2.811  17.677  0.00  0.00    +0.000 OA
ATOM      8  C   UNL     1       4.301   3.344  18.786  0.00  0.00    +0.000 C 
ATOM      9  N   UNL     1       5.310   4.167  19.183  0.00  0.00    +0.000 N 
ATOM     10  N   UNL     1       3.308   3.136  19.699  0.00  0.00    +0.000 N 
ATOM     11  C   UNL     1       2.258   2.152  19.466  0.00  0.00    +0.000 C 
ATOM     12  C   UNL     1       1.274   2.465  20.608  0.00  0.00    +0.000 C 
ATOM     13  C   UNL     1       0.575   3.802  20.303  0.00  0.00    +0.000 C 
ATOM     14  C   UNL     1       1.725   4.823  20.433  0.00  0.00    +0.000 C 
ATOM     15  C   UNL     1       2.919   3.940  20.861  0.00  0.00    +0.000 C 
ATOM     16  C   UNL     1       2.231   2.886  21.729  0.00  0.00    +0.000 C 
ATOM     17  H   UNL     1       5.484   4.239  20.174  0.00  0.00    +0.000 HD
ENDBRANCH   6   9
ENDBRANCH   1   6
BRANCH   5  18
ATOM     18  C   UNL     1       4.747   7.115  17.767  0.00  0.00    +0.000 C 
BRANCH  18  19
ATOM     19  C   UNL     1       3.227   7.062  17.911  0.00  0.00    +0.000 C 
BRANCH  19  20
ATOM     20  C   UNL     1       2.506   8.378  17.594  0.00  0.00    +0.000 C 
BRANCH  20  21
ATOM     21  C   UNL     1       1.672   8.808  18.780  0.00  0.00    +0.000 A 
ATOM     22  C   UNL     1       1.810   8.154  20.013  0.00  0.00    +0.000 A 
ATOM     23  C   UNL     1       0.968   8.469  21.080  0.00  0.00    +0.000 A 
ATOM     24  C   UNL     1      -0.016   9.444  20.929  0.00  0.00    +0.000 A 
ATOM     25  C   UNL     1      -0.147  10.116  19.715  0.00  0.00    +0.000 A 
ATOM     26  C   UNL     1       0.692   9.800  18.644  0.00  0.00    +0.000 A 
ENDBRANCH  20  21
ENDBRANCH  19  20
ENDBRANCH  18  19
ENDBRANCH   5  18
TORSDOF 6
ENDMDL
MODEL 6
REMARK VINA RESULT:      -7.7      3.289      4.755
REMARK  Name = 
REMARK  6 active torsions:
REMARK  status: ('A' for Active; 'I' for Inactive)
REMARK    1  A    between atoms: N_3  and  C_4
REMARK    2  A    between atoms: C_4  and  C_5
REMARK    3  A    between atoms: N_9  and  C_10
REMARK    4  A    between atoms: C_10  and  C_11
REMARK    5  A    between atoms: C_11  and  C_12
REMARK    6  A    between atoms: C_12  and  C_13
REMARK                            x       y       z     vdW  Elec       q    Type
REMARK                         _______ _______ _______ _____ _____    ______ ____
ROOT
ATOM      1  C   UNL     1       6.083   4.739  16.848  0.00  0.00    +0.000 A 
ATOM      2  N   UNL     1       6.275   4.096  15.705  0.00  0.00    +0.000 NA
ATOM      3  C   UNL     1       5.828   4.928  14.717  0.00  0.00    +0.000 A 
ATOM      4  C   UNL     1       5.329   6.084  15.249  0.00  0.00    +0.000 A 
ATOM      5  N   UNL     1       5.492   5.965  16.608  0.00  0.00    +0.000 N 
ENDROOT
BRANCH   1   6
ATOM      6  C   UNL     1       6.542   4.228  18.182  0.00  0.00    +0.000 C 
BRANCH   6   9
ATOM      7  O   UNL     1       4.256   2.768  17.531  0.00  0.00    +0.000 OA
ATOM      8  C   UNL     1       4.345   3.242  18.663  0.00  0.00    +0.000 C 
ATOM      9  N   UNL     1       5.423   3.971  19.066  0.00  0.00    +0.000 N 
ATOM     10  N   UNL     1       3.366   3.062  19.596  0.00  0.00    +0.000 N 
ATOM     11  C   UNL     1       2.241   2.168  19.350  0.00  0.00    +0.000 C 
ATOM     12  C   UNL     1       1.315   2.494  20.536  0.00  0.00    +0.000 C 
ATOM     13  C   UNL     1       0.707   3.891  20.316  0.00  0.00    +0.000 C 
ATOM     14  C   UNL     1       1.932   4.820  20.458  0.00  0.00    +0.000 C 
ATOM     15  C   UNL     1       3.069   3.833  20.806  0.00  0.00    +0.000 C 
ATOM     16  C   UNL     1       2.331   2.790  21.645  0.00  0.00    +0.000 C 
ATOM     17  H   UNL     1       5.629   3.981  20.053  0.00  0.00    +0.000 HD
ENDBRANCH   6   9
ENDBRANCH   1   6
BRANCH   5  18
ATOM     18  C   UNL     1       5.033   6.967  17.545  0.00  0.00    +0.000 C 
BRANCH  18  19
ATOM     19  C   UNL     1       3.543   6.918  17.878  0.00  0.00    +0.000 C 
BRANCH  19  20
ATOM     20  C   UNL     1       2.749   8.162  17.454  0.00  0.00    +0.000 C 
BRANCH  20  21
ATOM     21  C   UNL     1       1.829   8.593  18.574  0.00  0.00    +0.000 A 
ATOM     22  C   UNL     1       0.938   9.659  18.384  0.00  0.00    +0.000 A 
ATOM     23  C   UNL     1       0.166  10.134  19.445  0.00  0.00    +0.000 A 
ATOM     24  C   UNL     1       0.272   9.547  20.704  0.00  0.00    +0.000 A 
ATOM     25  C   UNL     1       1.138   8.473  20.898  0.00  0.00    +0.000 A 
ATOM     26  C   UNL     1       1.914   7.997  19.839  0.00  0.00    +0.000 A 
ENDBRANCH  20  21
ENDBRANCH  19  20
ENDBRANCH  18  19
ENDBRANCH   5  18
TORSDOF 6
ENDMDL
MODEL 7
REMARK VINA RESULT:      -7.6      1.386      1.922
REMARK  Name = 
REMARK  6 active torsions:
REMARK  status: ('A' for Active; 'I' for Inactive)
REMARK    1  A    between atoms: N_3  and  C_4
REMARK    2  A    between atoms: C_4  and  C_5
REMARK    3  A    between atoms: N_9  and  C_10
REMARK    4  A    between atoms: C_10  and  C_11
REMARK    5  A    between atoms: C_11  and  C_12
REMARK    6  A    between atoms: C_12  and  C_13
REMARK                            x       y       z     vdW  Elec       q    Type
REMARK                         _______ _______ _______ _____ _____    ______ ____
ROOT
ATOM      1  C   UNL     1       6.834   4.988  17.588  0.00  0.00    +0.000 A 
ATOM      2  N   UNL     1       6.554   4.325  16.475  0.00  0.00    +0.000 NA
ATOM      3  C   UNL     1       6.899   5.148  15.440  0.00  0.00    +0.000 A 
ATOM      4  C   UNL     1       7.369   6.342  15.911  0.00  0.00    +0.000 A 
ATOM      5  N   UNL     1       7.330   6.241  17.280  0.00  0.00    +0.000 N 
ENDROOT
BRANCH   1   6
ATOM      6  C   UNL     1       6.713   4.401  18.963  0.00  0.00    +0.000 C 
BRANCH   6   9
ATOM      7  O   UNL     1       4.316   5.737  19.467  0.00  0.00    +0.000 OA
ATOM      8  C   UNL     1       4.299   4.508  19.401  0.00  0.00    +0.000 C 
ATOM      9  N   UNL     1       5.421   3.775  19.162  0.00  0.00    +0.000 N 
ATOM     10  N   UNL     1       3.145   3.797  19.558  0.00  0.00    +0.000 N 
ATOM     11  C   UNL     1       1.851   4.464  19.654  0.00  0.00    +0.000 C 
ATOM     12  C   UNL     1       0.930   3.303  20.070  0.00  0.00    +0.000 C 
ATOM     13  C   UNL     1       1.240   2.927  21.530  0.00  0.00    +0.000 C 
ATOM     14  C   UNL     1       2.662   2.335  21.433  0.00  0.00    +0.000 C 
ATOM     15  C   UNL     1       2.952   2.389  19.917  0.00  0.00    +0.000 C 
ATOM     16  C   UNL     1       1.567   2.124  19.325  0.00  0.00    +0.000 C 
ATOM     17  H   UNL     1       5.298   2.871  18.732  0.00  0.00    +0.000 HD
ENDBRANCH   6   9
ENDBRANCH   1   6
BRANCH   5  18
ATOM     18  C   UNL     1       7.696   7.329  18.160  0.00  0.00    +0.000 C 
BRANCH  18  19
ATOM     19  C   UNL     1       8.360   8.525  17.481  0.00  0.00    +0.000 C 
BRANCH  19  20
ATOM     20  C   UNL     1       7.998   9.889  18.084  0.00  0.00    +0.000 C 
BRANCH  20  21
ATOM     21  C   UNL     1       9.239  10.558  18.629  0.00  0.00    +0.000 A 
ATOM     22  C   UNL     1       9.379  10.770  20.008  0.00  0.00    +0.000 A 
ATOM     23  C   UNL     1      10.468  11.485  20.509  0.00  0.00    +0.000 A 
ATOM     24  C   UNL     1      11.431  11.990  19.638  0.00  0.00    +0.000 A 
ATOM     25  C   UNL     1      11.314  11.766  18.267  0.00  0.00    +0.000 A 
ATOM     26  C   UNL     1      10.223  11.054  17.763  0.00  0.00    +0.000 A 
ENDBRANCH  20  21
ENDBRANCH  19  20
ENDBRANCH  18  19
ENDBRANCH   5  18
TORSDOF 6
ENDMDL
MODEL 8
REMARK VINA RESULT:      -7.6      2.730      6.775
REMARK  Name = 
REMARK  6 active torsions:
REMARK  status: ('A' for Active; 'I' for Inactive)
REMARK    1  A    between atoms: N_3  and  C_4
REMARK    2  A    between atoms: C_4  and  C_5
REMARK    3  A    between atoms: N_9  and  C_10
REMARK    4  A    between atoms: C_10  and  C_11
REMARK    5  A    between atoms: C_11  and  C_12
REMARK    6  A    between atoms: C_12  and  C_13
REMARK                            x       y       z     vdW  Elec       q    Type
REMARK                         _______ _______ _______ _____ _____    ______ ____
ROOT
ATOM      1  C   UNL     1       2.193   2.883  19.213  0.00  0.00    +0.000 A 
ATOM      2  N   UNL     1       1.885   2.235  20.327  0.00  0.00    +0.000 NA
ATOM      3  C   UNL     1       1.194   3.119  21.107  0.00  0.00    +0.000 A 
ATOM      4  C   UNL     1       1.096   4.334  20.488  0.00  0.00    +0.000 A 
ATOM      5  N   UNL     1       1.731   4.184  19.280  0.00  0.00    +0.000 N 
ENDROOT
BRANCH   1   6
ATOM      6  C   UNL     1       2.858   2.244  18.030  0.00  0.00    +0.000 C 
BRANCH   6   9
ATOM      7  O   UNL     1       5.083   3.306  19.336  0.00  0.00    +0.000 OA
ATOM      8  C   UNL     1       4.907   3.592  18.152  0.00  0.00    +0.000 C 
ATOM      9  N   UNL     1       3.847   3.122  17.438  0.00  0.00    +0.000 N 
ATOM     10  N   UNL     1       5.772   4.400  17.473  0.00  0.00    +0.000 N 
ATOM     11  C   UNL     1       7.029   4.835  18.070  0.00  0.00    +0.000 C 
ATOM     12  C   UNL     1       7.506   5.895  17.060  0.00  0.00    +0.000 C 
ATOM     13  C   UNL     1       6.608   7.138  17.190  0.00  0.00    +0.000 C 
ATOM     14  C   UNL     1       5.247   6.629  16.669  0.00  0.00    +0.000 C 
ATOM     15  C   UNL     1       5.565   5.177  16.248  0.00  0.00    +0.000 C 
ATOM     16  C   UNL     1       7.000   5.307  15.738  0.00  0.00    +0.000 C 
ATOM     17  H   UNL     1       3.963   3.046  16.439  0.00  0.00    +0.000 HD
ENDBRANCH   6   9
ENDBRANCH   1   6
BRANCH   5  18
ATOM     18  C   UNL     1       1.897   5.271  18.339  0.00  0.00    +0.000 C 
BRANCH  18  19
ATOM     19  C   UNL     1       2.661   6.484  18.868  0.00  0.00    +0.000 C 
BRANCH  19  20
ATOM     20  C   UNL     1       2.189   7.833  18.309  0.00  0.00    +0.000 C 
BRANCH  20  21
ATOM     21  C   UNL     1       1.495   8.626  19.394  0.00  0.00    +0.000 A 
ATOM     22  C   UNL     1       1.482   8.153  20.714  0.00  0.00    +0.000 A 
ATOM     23  C   UNL     1       0.751   8.821  21.698  0.00  0.00    +0.000 A 
ATOM     24  C   UNL     1       0.031   9.969  21.375  0.00  0.00    +0.000 A 
ATOM     25  C   UNL     1       0.055  10.460  20.071  0.00  0.00    +0.000 A 
ATOM     26  C   UNL     1       0.783   9.792  19.084  0.00  0.00    +0.000 A 
ENDBRANCH  20  21
ENDBRANCH  19  20
ENDBRANCH  18  19
ENDBRANCH   5  18
TORSDOF 6
ENDMDL
MODEL 9
REMARK VINA RESULT:      -7.6      2.564      8.859
REMARK  Name = 
REMARK  6 active torsions:
REMARK  status: ('A' for Active; 'I' for Inactive)
REMARK    1  A    between atoms: N_3  and  C_4
REMARK    2  A    between atoms: C_4  and  C_5
REMARK    3  A    between atoms: N_9  and  C_10
REMARK    4  A    between atoms: C_10  and  C_11
REMARK    5  A    between atoms: C_11  and  C_12
REMARK    6  A    between atoms: C_12  and  C_13
REMARK                            x       y       z     vdW  Elec       q    Type
REMARK                         _______ _______ _______ _____ _____    ______ ____
ROOT
ATOM      1  C   UNL     1       7.603   7.411  18.088  0.00  0.00    +0.000 A 
ATOM      2  N   UNL     1       8.387   6.843  18.993  0.00  0.00    +0.000 NA
ATOM      3  C   UNL     1       7.876   5.595  19.217  0.00  0.00    +0.000 A 
ATOM      4  C   UNL     1       6.749   5.396  18.468  0.00  0.00    +0.000 A 
ATOM      5  N   UNL     1       6.575   6.552  17.747  0.00  0.00    +0.000 N 
ENDROOT
BRANCH   1   6
ATOM      6  C   UNL     1       7.873   8.751  17.470  0.00  0.00    +0.000 C 
BRANCH   6   9
ATOM      7  O   UNL     1       7.963  11.536  17.337  0.00  0.00    +0.000 OA
ATOM      8  C   UNL     1       8.583  10.973  18.238  0.00  0.00    +0.000 C 
ATOM      9  N   UNL     1       8.598   9.618  18.377  0.00  0.00    +0.000 N 
ATOM     10  N   UNL     1       9.297  11.675  19.166  0.00  0.00    +0.000 N 
ATOM     11  C   UNL     1       9.231  13.130  19.230  0.00  0.00    +0.000 C 
ATOM     12  C   UNL     1      10.363  13.453  20.221  0.00  0.00    +0.000 C 
ATOM     13  C   UNL     1      11.713  13.193  19.529  0.00  0.00    +0.000 C 
ATOM     14  C   UNL     1      11.716  11.659  19.356  0.00  0.00    +0.000 C 
ATOM     15  C   UNL     1      10.393  11.237  20.034  0.00  0.00    +0.000 C 
ATOM     16  C   UNL     1      10.288  12.252  21.172  0.00  0.00    +0.000 C 
ATOM     17  H   UNL     1       8.760   9.252  19.303  0.00  0.00    +0.000 HD
ENDBRANCH   6   9
ENDBRANCH   1   6
BRANCH   5  18
ATOM     18  C   UNL     1       5.448   6.766  16.866  0.00  0.00    +0.000 C 
BRANCH  18  19
ATOM     19  C   UNL     1       4.078   6.454  17.466  0.00  0.00    +0.000 C 
BRANCH  19  20
ATOM     20  C   UNL     1       3.632   4.993  17.322  0.00  0.00    +0.000 C 
BRANCH  20  21
ATOM     21  C   UNL     1       2.679   4.632  18.439  0.00  0.00    +0.000 A 
ATOM     22  C   UNL     1       2.804   5.241  19.696  0.00  0.00    +0.000 A 
ATOM     23  C   UNL     1       2.002   4.834  20.763  0.00  0.00    +0.000 A 
ATOM     24  C   UNL     1       1.063   3.820  20.584  0.00  0.00    +0.000 A 
ATOM     25  C   UNL     1       0.916   3.223  19.333  0.00  0.00    +0.000 A 
ATOM     26  C   UNL     1       1.720   3.627  18.264  0.00  0.00    +0.000 A 
ENDBRANCH  20  21
ENDBRANCH  19  20
ENDBRANCH  18  19
ENDBRANCH   5  18
TORSDOF 6
ENDMDL
