MODEL 1
REMARK VINA RESULT:      -7.3      0.000      0.000
REMARK  Name = 
REMARK  3 active torsions:
REMARK  status: ('A' for Active; 'I' for Inactive)
REMARK    1  A    between atoms: C_1  and  C_2
REMARK    2  A    between atoms: C_6  and  C_7
REMARK    3  A    between atoms: C_12  and  C_14
REMARK                            x       y       z     vdW  Elec       q    Type
REMARK                         _______ _______ _______ _____ _____    ______ ____
ROOT
ATOM      1  C   UNL     1       1.186   9.308  19.634  0.00  0.00    +0.000 A 
ATOM      2  N   UNL     1       1.209   9.901  18.456  0.00  0.00    +0.000 NA
ATOM      3  N   UNL     1       2.046   9.258  17.559  0.00  0.00    +0.000 NA
ATOM      4  C   UNL     1       2.560   8.159  18.066  0.00  0.00    +0.000 A 
ATOM      5  N   UNL     1       3.406   7.339  17.364  0.00  0.00    +0.000 N 
ATOM      6  C   UNL     1       3.794   6.064  17.715  0.00  0.00    +0.000 C 
ATOM      7  O   UNL     1       3.442   5.460  18.721  0.00  0.00    +0.000 OA
ATOM      8  S   UNL     1       2.136   7.873  19.687  0.00  0.00    +0.000 S 
ATOM      9  H   UNL     1       3.678   7.679  16.451  0.00  0.00    +0.000 HD
ENDROOT
BRANCH   1  15
ATOM     10  C   UNL     1      -2.057  12.482  21.777  0.00  0.00    +0.000 C 
ATOM     11  C   UNL     1      -1.162  11.283  21.878  0.00  0.00    +0.000 A 
ATOM     12  C   UNL     1      -1.027  10.578  23.076  0.00  0.00    +0.000 A 
ATOM     13  C   UNL     1      -0.195   9.459  23.141  0.00  0.00    +0.000 A 
ATOM     14  C   UNL     1       0.517   9.043  22.012  0.00  0.00    +0.000 A 
ATOM     15  C   UNL     1       0.415   9.747  20.803  0.00  0.00    +0.000 A 
ATOM     16  C   UNL     1      -0.440  10.861  20.752  0.00  0.00    +0.000 A 
ENDBRANCH   1  15
BRANCH   6  17
ATOM     17  C   UNL     1       4.668   5.454  16.735  0.00  0.00    +0.000 A 
ATOM     18  C   UNL     1       5.320   5.993  15.641  0.00  0.00    +0.000 A 
ATOM     19  C   UNL     1       6.056   4.942  15.045  0.00  0.00    +0.000 A 
ATOM     20  C   UNL     1       5.804   3.823  15.802  0.00  0.00    +0.000 A 
ATOM     21  O   UNL     1       4.968   4.118  16.831  0.00  0.00    +0.000 OA
ENDBRANCH   6  17
TORSDOF 2
ENDMDL
MODEL 2
REMARK VINA RESULT:      -7.3      2.593      8.192
REMARK  Name = 
REMARK  3 active torsions:
REMARK  status: ('A' for Active; 'I' for Inactive)
REMARK    1  A    between atoms: C_1  and  C_2
REMARK    2  A    between atoms: C_6  and  C_7
REMARK    3  A    between atoms: C_12  and  C_14
REMARK                            x       y       z     vdW  Elec       q    Type
REMARK                         _______ _______ _______ _____ _____    ______ ____
ROOT
ATOM      1  C   UNL     1       2.568   7.472  18.134  0.00  0.00    +0.000 A 
ATOM      2  N   UNL     1       2.423   8.548  17.384  0.00  0.00    +0.000 NA
ATOM      3  N   UNL     1       1.714   9.547  18.030  0.00  0.00    +0.000 NA
ATOM      4  C   UNL     1       1.421   9.221  19.269  0.00  0.00    +0.000 A 
ATOM      5  N   UNL     1       0.739  10.055  20.118  0.00  0.00    +0.000 N 
ATOM      6  C   UNL     1       0.601   9.907  21.481  0.00  0.00    +0.000 C 
ATOM      7  O   UNL     1       1.070   8.996  22.154  0.00  0.00    +0.000 OA
ATOM      8  S   UNL     1       1.906   7.654  19.713  0.00  0.00    +0.000 S 
ATOM      9  H   UNL     1       0.399  10.912  19.702  0.00  0.00    +0.000 HD
ENDROOT
BRANCH   1  15
ATOM     10  C   UNL     1       2.624   2.475  17.671  0.00  0.00    +0.000 C 
ATOM     11  C   UNL     1       3.313   3.798  17.505  0.00  0.00    +0.000 A 
ATOM     12  C   UNL     1       4.610   3.881  16.998  0.00  0.00    +0.000 A 
ATOM     13  C   UNL     1       5.224   5.124  16.844  0.00  0.00    +0.000 A 
ATOM     14  C   UNL     1       4.549   6.294  17.207  0.00  0.00    +0.000 A 
ATOM     15  C   UNL     1       3.253   6.235  17.739  0.00  0.00    +0.000 A 
ATOM     16  C   UNL     1       2.644   4.976  17.871  0.00  0.00    +0.000 A 
ENDBRANCH   1  15
BRANCH   6  17
ATOM     17  C   UNL     1      -0.151  10.984  22.089  0.00  0.00    +0.000 A 
ATOM     18  C   UNL     1      -1.204  10.963  22.986  0.00  0.00    +0.000 A 
ATOM     19  C   UNL     1      -1.539  12.311  23.255  0.00  0.00    +0.000 A 
ATOM     20  C   UNL     1      -0.680  13.075  22.502  0.00  0.00    +0.000 A 
ATOM     21  O   UNL     1       0.168  12.286  21.794  0.00  0.00    +0.000 OA
ENDBRANCH   6  17
TORSDOF 2
ENDMDL
MODEL 3
REMARK VINA RESULT:      -7.2      3.600      8.475
REMARK  Name = 
REMARK  3 active torsions:
REMARK  status: ('A' for Active; 'I' for Inactive)
REMARK    1  A    between atoms: C_1  and  C_2
REMARK    2  A    between atoms: C_6  and  C_7
REMARK    3  A    between atoms: C_12  and  C_14
REMARK                            x       y       z     vdW  Elec       q    Type
REMARK                         _______ _______ _______ _____ _____    ______ ____
ROOT
ATOM      1  C   UNL     1       1.730   7.691  19.995  0.00  0.00    +0.000 A 
ATOM      2  N   UNL     1       1.741   8.630  19.068  0.00  0.00    +0.000 NA
ATOM      3  N   UNL     1       1.039   9.759  19.454  0.00  0.00    +0.000 NA
ATOM      4  C   UNL     1       0.593   9.664  20.688  0.00  0.00    +0.000 A 
ATOM      5  N   UNL     1      -0.116  10.663  21.303  0.00  0.00    +0.000 N 
ATOM      6  C   UNL     1      -0.408  10.756  22.647  0.00  0.00    +0.000 C 
ATOM      7  O   UNL     1      -0.078   9.950  23.509  0.00  0.00    +0.000 OA
ATOM      8  S   UNL     1       0.918   8.172  21.434  0.00  0.00    +0.000 S 
ATOM      9  H   UNL     1      -0.349  11.453  20.716  0.00  0.00    +0.000 HD
ENDROOT
BRANCH   1  15
ATOM     10  C   UNL     1       2.125   2.910  21.471  0.00  0.00    +0.000 C 
ATOM     11  C   UNL     1       2.586   4.035  20.592  0.00  0.00    +0.000 A 
ATOM     12  C   UNL     1       3.628   3.862  19.680  0.00  0.00    +0.000 A 
ATOM     13  C   UNL     1       4.031   4.922  18.866  0.00  0.00    +0.000 A 
ATOM     14  C   UNL     1       3.401   6.167  18.966  0.00  0.00    +0.000 A 
ATOM     15  C   UNL     1       2.366   6.371  19.890  0.00  0.00    +0.000 A 
ATOM     16  C   UNL     1       1.962   5.288  20.689  0.00  0.00    +0.000 A 
ENDBRANCH   1  15
BRANCH   6  17
ATOM     17  C   UNL     1      -1.144  11.958  22.979  0.00  0.00    +0.000 A 
ATOM     18  C   UNL     1      -2.502  12.184  23.109  0.00  0.00    +0.000 A 
ATOM     19  C   UNL     1      -2.659  13.544  23.466  0.00  0.00    +0.000 A 
ATOM     20  C   UNL     1      -1.391  14.071  23.525  0.00  0.00    +0.000 A 
ATOM     21  O   UNL     1      -0.463  13.122  23.235  0.00  0.00    +0.000 OA
ENDBRANCH   6  17
TORSDOF 2
ENDMDL
MODEL 4
REMARK VINA RESULT:      -7.1      3.289      8.602
REMARK  Name = 
REMARK  3 active torsions:
REMARK  status: ('A' for Active; 'I' for Inactive)
REMARK    1  A    between atoms: C_1  and  C_2
REMARK    2  A    between atoms: C_6  and  C_7
REMARK    3  A    between atoms: C_12  and  C_14
REMARK                            x       y       z     vdW  Elec       q    Type
REMARK                         _______ _______ _______ _____ _____    ______ ____
ROOT
ATOM      1  C   UNL     1       1.406   8.756  19.304  0.00  0.00    +0.000 A 
ATOM      2  N   UNL     1       0.980   9.680  18.465  0.00  0.00    +0.000 NA
ATOM      3  N   UNL     1       0.110  10.575  19.065  0.00  0.00    +0.000 NA
ATOM      4  C   UNL     1      -0.025  10.344  20.352  0.00  0.00    +0.000 A 
ATOM      5  N   UNL     1      -0.819  11.109  21.167  0.00  0.00    +0.000 N 
ATOM      6  C   UNL     1      -0.834  11.097  22.546  0.00  0.00    +0.000 C 
ATOM      7  O   UNL     1      -0.133  10.393  23.264  0.00  0.00    +0.000 OA
ATOM      8  S   UNL     1       0.821   8.979  20.908  0.00  0.00    +0.000 S 
ATOM      9  H   UNL     1      -1.365  11.818  20.698  0.00  0.00    +0.000 HD
ENDROOT
BRANCH   1  15
ATOM     10  C   UNL     1       4.842   6.687  16.288  0.00  0.00    +0.000 C 
ATOM     11  C   UNL     1       3.996   6.617  17.525  0.00  0.00    +0.000 A 
ATOM     12  C   UNL     1       4.043   5.510  18.373  0.00  0.00    +0.000 A 
ATOM     13  C   UNL     1       3.253   5.474  19.523  0.00  0.00    +0.000 A 
ATOM     14  C   UNL     1       2.401   6.540  19.827  0.00  0.00    +0.000 A 
ATOM     15  C   UNL     1       2.321   7.654  18.979  0.00  0.00    +0.000 A 
ATOM     16  C   UNL     1       3.136   7.681  17.835  0.00  0.00    +0.000 A 
ENDBRANCH   1  15
BRANCH   6  17
ATOM     17  C   UNL     1      -1.765  12.055  23.104  0.00  0.00    +0.000 A 
ATOM     18  C   UNL     1      -1.655  13.419  23.302  0.00  0.00    +0.000 A 
ATOM     19  C   UNL     1      -2.877  13.851  23.868  0.00  0.00    +0.000 A 
ATOM     20  C   UNL     1      -3.659  12.727  23.990  0.00  0.00    +0.000 A 
ATOM     21  O   UNL     1      -3.000  11.632  23.529  0.00  0.00    +0.000 OA
ENDBRANCH   6  17
TORSDOF 2
ENDMDL
MODEL 5
REMARK VINA RESULT:      -7.0      2.414      8.242
REMARK  Name = 
REMARK  3 active torsions:
REMARK  status: ('A' for Active; 'I' for Inactive)
REMARK    1  A    between atoms: C_1  and  C_2
REMARK    2  A    between atoms: C_6  and  C_7
REMARK    3  A    between atoms: C_12  and  C_14
REMARK                            x       y       z     vdW  Elec       q    Type
REMARK                         _______ _______ _______ _____ _____    ______ ____
ROOT
ATOM      1  C   UNL     1       2.729   7.427  18.120  0.00  0.00    +0.000 A 
ATOM      2  N   UNL     1       2.473   8.477  17.364  0.00  0.00    +0.000 NA
ATOM      3  N   UNL     1       1.689   9.416  18.014  0.00  0.00    +0.000 NA
ATOM      4  C   UNL     1       1.451   9.079  19.262  0.00  0.00    +0.000 A 
ATOM      5  N   UNL     1       0.712   9.857  20.116  0.00  0.00    +0.000 N 
ATOM      6  C   UNL     1       0.615   9.712  21.483  0.00  0.00    +0.000 C 
ATOM      7  O   UNL     1       1.177   8.855  22.155  0.00  0.00    +0.000 OA
ATOM      8  S   UNL     1       2.084   7.566  19.710  0.00  0.00    +0.000 S 
ATOM      9  H   UNL     1       0.289  10.675  19.699  0.00  0.00    +0.000 HD
ENDROOT
BRANCH   1  15
ATOM     10  C   UNL     1       6.962   5.416  16.323  0.00  0.00    +0.000 C 
ATOM     11  C   UNL     1       5.566   5.242  16.845  0.00  0.00    +0.000 A 
ATOM     12  C   UNL     1       4.983   3.978  16.945  0.00  0.00    +0.000 A 
ATOM     13  C   UNL     1       3.686   3.841  17.443  0.00  0.00    +0.000 A 
ATOM     14  C   UNL     1       2.959   4.970  17.835  0.00  0.00    +0.000 A 
ATOM     15  C   UNL     1       3.515   6.252  17.724  0.00  0.00    +0.000 A 
ATOM     16  C   UNL     1       4.828   6.369  17.236  0.00  0.00    +0.000 A 
ENDBRANCH   1  15
BRANCH   6  17
ATOM     17  C   UNL     1      -0.220  10.725  22.096  0.00  0.00    +0.000 A 
ATOM     18  C   UNL     1      -1.140  10.641  23.125  0.00  0.00    +0.000 A 
ATOM     19  C   UNL     1      -1.650  11.945  23.324  0.00  0.00    +0.000 A 
ATOM     20  C   UNL     1      -1.020  12.747  22.403  0.00  0.00    +0.000 A 
ATOM     21  O   UNL     1      -0.149  12.022  21.654  0.00  0.00    +0.000 OA
ENDBRANCH   6  17
TORSDOF 2
ENDMDL
MODEL 6
REMARK VINA RESULT:      -6.9      3.024      8.444
REMARK  Name = 
REMARK  3 active torsions:
REMARK  status: ('A' for Active; 'I' for Inactive)
REMARK    1  A    between atoms: C_1  and  C_2
REMARK    2  A    between atoms: C_6  and  C_7
REMARK    3  A    between atoms: C_12  and  C_14
REMARK                            x       y       z     vdW  Elec       q    Type
REMARK                         _______ _______ _______ _____ _____    ______ ____
ROOT
ATOM      1  C   UNL     1       1.890   8.439  18.949  0.00  0.00    +0.000 A 
ATOM      2  N   UNL     1       1.636   9.457  18.148  0.00  0.00    +0.000 NA
ATOM      3  N   UNL     1       0.866  10.430  18.762  0.00  0.00    +0.000 NA
ATOM      4  C   UNL     1       0.635  10.152  20.026  0.00  0.00    +0.000 A 
ATOM      5  N   UNL     1      -0.090  10.974  20.850  0.00  0.00    +0.000 N 
ATOM      6  C   UNL     1      -0.177  10.891  22.223  0.00  0.00    +0.000 C 
ATOM      7  O   UNL     1       0.384  10.060  22.928  0.00  0.00    +0.000 OA
ATOM      8  S   UNL     1       1.259   8.656  20.536  0.00  0.00    +0.000 S 
ATOM      9  H   UNL     1      -0.510  11.775  20.400  0.00  0.00    +0.000 HD
ENDROOT
BRANCH   1  15
ATOM     10  C   UNL     1       5.303   6.137  16.079  0.00  0.00    +0.000 C 
ATOM     11  C   UNL     1       4.321   6.089  17.213  0.00  0.00    +0.000 A 
ATOM     12  C   UNL     1       4.107   4.916  17.938  0.00  0.00    +0.000 A 
ATOM     13  C   UNL     1       3.196   4.901  18.994  0.00  0.00    +0.000 A 
ATOM     14  C   UNL     1       2.482   6.057  19.326  0.00  0.00    +0.000 A 
ATOM     15  C   UNL     1       2.663   7.242  18.599  0.00  0.00    +0.000 A 
ATOM     16  C   UNL     1       3.598   7.243  17.550  0.00  0.00    +0.000 A 
ENDBRANCH   1  15
BRANCH   6  17
ATOM     17  C   UNL     1      -0.998  11.937  22.797  0.00  0.00    +0.000 A 
ATOM     18  C   UNL     1      -2.343  11.962  23.116  0.00  0.00    +0.000 A 
ATOM     19  C   UNL     1      -2.609  13.238  23.666  0.00  0.00    +0.000 A 
ATOM     20  C   UNL     1      -1.417  13.920  23.643  0.00  0.00    +0.000 A 
ATOM     21  O   UNL     1      -0.431  13.144  23.122  0.00  0.00    +0.000 OA
ENDBRANCH   6  17
TORSDOF 2
ENDMDL
MODEL 7
REMARK VINA RESULT:      -6.9      3.472      8.664
REMARK  Name = 
REMARK  3 active torsions:
REMARK  status: ('A' for Active; 'I' for Inactive)
REMARK    1  A    between atoms: C_1  and  C_2
REMARK    2  A    between atoms: C_6  and  C_7
REMARK    3  A    between atoms: C_12  and  C_14
REMARK                            x       y       z     vdW  Elec       q    Type
REMARK                         _______ _______ _______ _____ _____    ______ ____
ROOT
ATOM      1  C   UNL     1       1.306   8.975  19.257  0.00  0.00    +0.000 A 
ATOM      2  N   UNL     1       0.870   9.924  18.450  0.00  0.00    +0.000 NA
ATOM      3  N   UNL     1       0.002  10.797  19.084  0.00  0.00    +0.000 NA
ATOM      4  C   UNL     1      -0.122  10.525  20.364  0.00  0.00    +0.000 A 
ATOM      5  N   UNL     1      -0.913  11.261  21.209  0.00  0.00    +0.000 N 
ATOM      6  C   UNL     1      -0.917  11.206  22.586  0.00  0.00    +0.000 C 
ATOM      7  O   UNL     1      -0.209  10.482  23.277  0.00  0.00    +0.000 OA
ATOM      8  S   UNL     1       0.732   9.146  20.871  0.00  0.00    +0.000 S 
ATOM      9  H   UNL     1      -1.464  11.983  20.765  0.00  0.00    +0.000 HD
ENDROOT
BRANCH   1  15
ATOM     10  C   UNL     1       3.218   4.413  20.104  0.00  0.00    +0.000 C 
ATOM     11  C   UNL     1       3.177   5.667  19.281  0.00  0.00    +0.000 A 
ATOM     12  C   UNL     1       4.011   5.834  18.174  0.00  0.00    +0.000 A 
ATOM     13  C   UNL     1       3.946   7.006  17.419  0.00  0.00    +0.000 A 
ATOM     14  C   UNL     1       3.054   8.023  17.771  0.00  0.00    +0.000 A 
ATOM     15  C   UNL     1       2.221   7.887  18.890  0.00  0.00    +0.000 A 
ATOM     16  C   UNL     1       2.288   6.694  19.629  0.00  0.00    +0.000 A 
ENDBRANCH   1  15
BRANCH   6  17
ATOM     17  C   UNL     1      -1.847  12.143  23.181  0.00  0.00    +0.000 A 
ATOM     18  C   UNL     1      -1.729  13.495  23.446  0.00  0.00    +0.000 A 
ATOM     19  C   UNL     1      -2.954  13.908  24.020  0.00  0.00    +0.000 A 
ATOM     20  C   UNL     1      -3.745  12.786  24.080  0.00  0.00    +0.000 A 
ATOM     21  O   UNL     1      -3.089  11.710  23.574  0.00  0.00    +0.000 OA
ENDBRANCH   6  17
TORSDOF 2
ENDMDL
MODEL 8
REMARK VINA RESULT:      -6.9      3.288      8.455
REMARK  Name = 
REMARK  3 active torsions:
REMARK  status: ('A' for Active; 'I' for Inactive)
REMARK    1  A    between atoms: C_1  and  C_2
REMARK    2  A    between atoms: C_6  and  C_7
REMARK    3  A    between atoms: C_12  and  C_14
REMARK                            x       y       z     vdW  Elec       q    Type
REMARK                         _______ _______ _______ _____ _____    ______ ____
ROOT
ATOM      1  C   UNL     1       1.829   7.761  19.747  0.00  0.00    +0.000 A 
ATOM      2  N   UNL     1       1.809   8.723  18.843  0.00  0.00    +0.000 NA
ATOM      3  N   UNL     1       1.107   9.836  19.275  0.00  0.00    +0.000 NA
ATOM      4  C   UNL     1       0.693   9.706  20.516  0.00  0.00    +0.000 A 
ATOM      5  N   UNL     1      -0.010  10.684  21.174  0.00  0.00    +0.000 N 
ATOM      6  C   UNL     1      -0.269  10.740  22.526  0.00  0.00    +0.000 C 
ATOM      7  O   UNL     1       0.089   9.917  23.360  0.00  0.00    +0.000 OA
ATOM      8  S   UNL     1       1.048   8.199  21.217  0.00  0.00    +0.000 S 
ATOM      9  H   UNL     1      -0.264  11.485  20.612  0.00  0.00    +0.000 HD
ENDROOT
BRANCH   1  15
ATOM     10  C   UNL     1       4.936   4.691  17.275  0.00  0.00    +0.000 C 
ATOM     11  C   UNL     1       3.978   4.927  18.406  0.00  0.00    +0.000 A 
ATOM     12  C   UNL     1       3.666   3.915  19.315  0.00  0.00    +0.000 A 
ATOM     13  C   UNL     1       2.781   4.164  20.364  0.00  0.00    +0.000 A 
ATOM     14  C   UNL     1       2.192   5.424  20.506  0.00  0.00    +0.000 A 
ATOM     15  C   UNL     1       2.473   6.451  19.593  0.00  0.00    +0.000 A 
ATOM     16  C   UNL     1       3.380   6.187  18.553  0.00  0.00    +0.000 A 
ENDBRANCH   1  15
BRANCH   6  17
ATOM     17  C   UNL     1      -1.007  11.927  22.906  0.00  0.00    +0.000 A 
ATOM     18  C   UNL     1      -2.349  12.112  23.180  0.00  0.00    +0.000 A 
ATOM     19  C   UNL     1      -2.515  13.476  23.516  0.00  0.00    +0.000 A 
ATOM     20  C   UNL     1      -1.268  14.047  23.418  0.00  0.00    +0.000 A 
ATOM     21  O   UNL     1      -0.345  13.120  23.052  0.00  0.00    +0.000 OA
ENDBRANCH   6  17
TORSDOF 2
ENDMDL
MODEL 9
REMARK VINA RESULT:      -6.8      2.523      8.334
REMARK  Name = 
REMARK  3 active torsions:
REMARK  status: ('A' for Active; 'I' for Inactive)
REMARK    1  A    between atoms: C_1  and  C_2
REMARK    2  A    between atoms: C_6  and  C_7
REMARK    3  A    between atoms: C_12  and  C_14
REMARK                            x       y       z     vdW  Elec       q    Type
REMARK                         _______ _______ _______ _____ _____    ______ ____
ROOT
ATOM      1  C   UNL     1       4.075   6.090  18.245  0.00  0.00    +0.000 A 
ATOM      2  N   UNL     1       3.431   5.554  19.265  0.00  0.00    +0.000 NA
ATOM      3  N   UNL     1       2.472   6.405  19.788  0.00  0.00    +0.000 NA
ATOM      4  C   UNL     1       2.370   7.518  19.095  0.00  0.00    +0.000 A 
ATOM      5  N   UNL     1       1.476   8.510  19.405  0.00  0.00    +0.000 N 
ATOM      6  C   UNL     1       1.131   9.583  18.612  0.00  0.00    +0.000 C 
ATOM      7  O   UNL     1       1.576   9.821  17.495  0.00  0.00    +0.000 OA
ATOM      8  S   UNL     1       3.484   7.650  17.818  0.00  0.00    +0.000 S 
ATOM      9  H   UNL     1       0.951   8.368  20.258  0.00  0.00    +0.000 HD
ENDROOT
BRANCH   1  15
ATOM     10  C   UNL     1       5.809   4.058  13.997  0.00  0.00    +0.000 C 
ATOM     11  C   UNL     1       6.032   4.456  15.426  0.00  0.00    +0.000 A 
ATOM     12  C   UNL     1       7.251   4.218  16.063  0.00  0.00    +0.000 A 
ATOM     13  C   UNL     1       7.436   4.607  17.390  0.00  0.00    +0.000 A 
ATOM     14  C   UNL     1       6.400   5.227  18.095  0.00  0.00    +0.000 A 
ATOM     15  C   UNL     1       5.159   5.457  17.484  0.00  0.00    +0.000 A 
ATOM     16  C   UNL     1       4.996   5.074  16.142  0.00  0.00    +0.000 A 
ENDBRANCH   1  15
BRANCH   6  17
ATOM     17  C   UNL     1       0.127  10.430  19.221  0.00  0.00    +0.000 A 
ATOM     18  C   UNL     1      -1.021  10.997  18.697  0.00  0.00    +0.000 A 
ATOM     19  C   UNL     1      -1.637  11.717  19.747  0.00  0.00    +0.000 A 
ATOM     20  C   UNL     1      -0.828  11.556  20.847  0.00  0.00    +0.000 A 
ATOM     21  O   UNL     1       0.242  10.777  20.544  0.00  0.00    +0.000 OA
ENDBRANCH   6  17
TORSDOF 2
ENDMDL
