MODEL 1
REMARK VINA RESULT:      -8.3      0.000      0.000
REMARK  Name = 
REMARK  8 active torsions:
REMARK  status: ('A' for Active; 'I' for Inactive)
REMARK    1  A    between atoms: C_1  and  O_2
REMARK    2  A    between atoms: O_2  and  C_3
REMARK    3  A    between atoms: C_6  and  C_7
REMARK    4  A    between atoms: C_8  and  C_9
REMARK    5  A    between atoms: C_9  and  C_10
REMARK    6  A    between atoms: C_10  and  C_11
REMARK    7  A    between atoms: C_11  and  C_12
REMARK    8  A    between atoms: N_20  and  C_21
REMARK                            x       y       z     vdW  Elec       q    Type
REMARK                         _______ _______ _______ _____ _____    ______ ____
ROOT
ATOM      1  C   UNL     1       6.464   6.146  17.703  0.00  0.00    +0.000 C 
ATOM      2  C   UNL     1       7.879   6.276  18.369  0.00  0.00    +0.000 C 
ATOM      3  C   UNL     1       7.254   5.532  19.547  0.00  0.00    +0.000 C 
ATOM      4  O   UNL     1       7.628   5.221  20.658  0.00  0.00    +0.000 OA
ATOM      5  N   UNL     1       6.087   5.361  18.883  0.00  0.00    +0.000 N 
ENDROOT
BRANCH   1   9
ATOM      6  C   UNL     1       6.263   4.273  13.685  0.00  0.00    +0.000 A 
ATOM      7  C   UNL     1       7.436   4.870  14.134  0.00  0.00    +0.000 A 
ATOM      8  C   UNL     1       7.505   5.431  15.408  0.00  0.00    +0.000 A 
ATOM      9  C   UNL     1       6.395   5.458  16.272  0.00  0.00    +0.000 A 
ATOM     10  C   UNL     1       5.219   4.843  15.792  0.00  0.00    +0.000 A 
ATOM     11  C   UNL     1       5.145   4.267  14.515  0.00  0.00    +0.000 A 
BRANCH   6  13
ATOM     12  C   UNL     1       5.231   2.940  12.031  0.00  0.00    +0.000 C 
ATOM     13  O   UNL     1       6.324   3.760  12.422  0.00  0.00    +0.000 OA
ENDBRANCH   6  13
ENDBRANCH   1   9
BRANCH   5  14
ATOM     14  C   UNL     1       4.893   4.772  19.261  0.00  0.00    +0.000 A 
ATOM     15  C   UNL     1       4.739   3.380  19.219  0.00  0.00    +0.000 A 
ATOM     16  C   UNL     1       3.512   2.793  19.510  0.00  0.00    +0.000 A 
ATOM     17  C   UNL     1       2.417   3.592  19.825  0.00  0.00    +0.000 A 
ATOM     18  C   UNL     1       2.561   4.977  19.883  0.00  0.00    +0.000 A 
ATOM     19  C   UNL     1       3.800   5.563  19.632  0.00  0.00    +0.000 A 
ENDBRANCH   5  14
BRANCH   2  20
ATOM     20  C   UNL     1       8.368   7.673  18.712  0.00  0.00    +0.000 C 
BRANCH  20  21
ATOM     21  C   UNL     1       8.180   8.584  17.498  0.00  0.00    +0.000 C 
BRANCH  21  22
ATOM     22  C   UNL     1       7.906  10.022  17.920  0.00  0.00    +0.000 C 
BRANCH  22  23
ATOM     23  C   UNL     1       9.128  10.667  18.505  0.00  0.00    +0.000 A 
ATOM     24  C   UNL     1      10.150  11.156  17.689  0.00  0.00    +0.000 A 
ATOM     25  C   UNL     1      11.290  11.702  18.267  0.00  0.00    +0.000 A 
ATOM     26  C   UNL     1      11.358  11.764  19.649  0.00  0.00    +0.000 A 
ATOM     27  N   UNL     1      10.376  11.337  20.472  0.00  0.00    +0.000 NA
ATOM     28  C   UNL     1       9.285  10.800  19.881  0.00  0.00    +0.000 A 
ENDBRANCH  22  23
ENDBRANCH  21  22
ENDBRANCH  20  21
ENDBRANCH   2  20
TORSDOF 7
ENDMDL
MODEL 2
REMARK VINA RESULT:      -8.0      4.591      6.542
REMARK  Name = 
REMARK  8 active torsions:
REMARK  status: ('A' for Active; 'I' for Inactive)
REMARK    1  A    between atoms: C_1  and  O_2
REMARK    2  A    between atoms: O_2  and  C_3
REMARK    3  A    between atoms: C_6  and  C_7
REMARK    4  A    between atoms: C_8  and  C_9
REMARK    5  A    between atoms: C_9  and  C_10
REMARK    6  A    between atoms: C_10  and  C_11
REMARK    7  A    between atoms: C_11  and  C_12
REMARK    8  A    between atoms: N_20  and  C_21
REMARK                            x       y       z     vdW  Elec       q    Type
REMARK                         _______ _______ _______ _____ _____    ______ ____
ROOT
ATOM      1  C   UNL     1       2.483   6.497  18.019  0.00  0.00    +0.000 C 
ATOM      2  C   UNL     1       2.451   7.974  18.545  0.00  0.00    +0.000 C 
ATOM      3  C   UNL     1       2.033   7.358  19.878  0.00  0.00    +0.000 C 
ATOM      4  O   UNL     1       1.686   7.800  20.952  0.00  0.00    +0.000 OA
ATOM      5  N   UNL     1       2.176   6.102  19.397  0.00  0.00    +0.000 N 
ENDROOT
BRANCH   1   9
ATOM      6  C   UNL     1       6.246   5.089  16.134  0.00  0.00    +0.000 A 
ATOM      7  C   UNL     1       6.010   6.446  16.324  0.00  0.00    +0.000 A 
ATOM      8  C   UNL     1       4.841   6.884  16.944  0.00  0.00    +0.000 A 
ATOM      9  C   UNL     1       3.838   5.989  17.361  0.00  0.00    +0.000 A 
ATOM     10  C   UNL     1       4.106   4.618  17.159  0.00  0.00    +0.000 A 
ATOM     11  C   UNL     1       5.286   4.169  16.546  0.00  0.00    +0.000 A 
BRANCH   6  13
ATOM     12  C   UNL     1       7.427   4.878  14.099  0.00  0.00    +0.000 C 
ATOM     13  O   UNL     1       7.427   4.790  15.518  0.00  0.00    +0.000 OA
ENDBRANCH   6  13
ENDBRANCH   1   9
BRANCH   5  14
ATOM     14  C   UNL     1       1.956   4.865  19.979  0.00  0.00    +0.000 A 
ATOM     15  C   UNL     1       1.085   3.942  19.386  0.00  0.00    +0.000 A 
ATOM     16  C   UNL     1       0.792   2.738  20.017  0.00  0.00    +0.000 A 
ATOM     17  C   UNL     1       1.349   2.450  21.259  0.00  0.00    +0.000 A 
ATOM     18  C   UNL     1       2.229   3.354  21.852  0.00  0.00    +0.000 A 
ATOM     19  C   UNL     1       2.554   4.542  21.202  0.00  0.00    +0.000 A 
ENDBRANCH   5  14
BRANCH   2  20
ATOM     20  C   UNL     1       1.414   8.910  17.945  0.00  0.00    +0.000 C 
BRANCH  20  21
ATOM     21  C   UNL     1       1.404  10.221  18.731  0.00  0.00    +0.000 C 
BRANCH  21  22
ATOM     22  C   UNL     1       0.011  10.835  18.768  0.00  0.00    +0.000 C 
BRANCH  22  23
ATOM     23  C   UNL     1      -0.408  11.168  20.170  0.00  0.00    +0.000 A 
ATOM     24  C   UNL     1      -1.548  11.933  20.423  0.00  0.00    +0.000 A 
ATOM     25  C   UNL     1      -1.877  12.264  21.733  0.00  0.00    +0.000 A 
ATOM     26  C   UNL     1      -1.065  11.794  22.751  0.00  0.00    +0.000 A 
ATOM     27  N   UNL     1       0.024  11.021  22.550  0.00  0.00    +0.000 NA
ATOM     28  C   UNL     1       0.326  10.726  21.266  0.00  0.00    +0.000 A 
ENDBRANCH  22  23
ENDBRANCH  21  22
ENDBRANCH  20  21
ENDBRANCH   2  20
TORSDOF 7
ENDMDL
MODEL 3
REMARK VINA RESULT:      -7.9      1.304      1.865
REMARK  Name = 
REMARK  8 active torsions:
REMARK  status: ('A' for Active; 'I' for Inactive)
REMARK    1  A    between atoms: C_1  and  O_2
REMARK    2  A    between atoms: O_2  and  C_3
REMARK    3  A    between atoms: C_6  and  C_7
REMARK    4  A    between atoms: C_8  and  C_9
REMARK    5  A    between atoms: C_9  and  C_10
REMARK    6  A    between atoms: C_10  and  C_11
REMARK    7  A    between atoms: C_11  and  C_12
REMARK    8  A    between atoms: N_20  and  C_21
REMARK                            x       y       z     vdW  Elec       q    Type
REMARK                         _______ _______ _______ _____ _____    ______ ____
ROOT
ATOM      1  C   UNL     1       5.476   5.866  16.572  0.00  0.00    +0.000 C 
ATOM      2  C   UNL     1       6.666   6.365  17.463  0.00  0.00    +0.000 C 
ATOM      3  C   UNL     1       6.029   5.523  18.566  0.00  0.00    +0.000 C 
ATOM      4  O   UNL     1       6.252   5.348  19.745  0.00  0.00    +0.000 OA
ATOM      5  N   UNL     1       5.085   5.046  17.722  0.00  0.00    +0.000 N 
ENDROOT
BRANCH   1   9
ATOM      6  C   UNL     1       6.515   3.796  12.787  0.00  0.00    +0.000 A 
ATOM      7  C   UNL     1       5.222   3.743  13.294  0.00  0.00    +0.000 A 
ATOM      8  C   UNL     1       4.891   4.419  14.467  0.00  0.00    +0.000 A 
ATOM      9  C   UNL     1       5.845   5.141  15.206  0.00  0.00    +0.000 A 
ATOM     10  C   UNL     1       7.149   5.180  14.666  0.00  0.00    +0.000 A 
ATOM     11  C   UNL     1       7.488   4.511  13.480  0.00  0.00    +0.000 A 
BRANCH   6  13
ATOM     12  C   UNL     1       5.901   1.937  11.464  0.00  0.00    +0.000 C 
ATOM     13  O   UNL     1       6.711   3.094  11.632  0.00  0.00    +0.000 OA
ENDBRANCH   6  13
ENDBRANCH   1   9
BRANCH   5  14
ATOM     14  C   UNL     1       4.018   4.187  17.928  0.00  0.00    +0.000 A 
ATOM     15  C   UNL     1       4.212   2.800  17.943  0.00  0.00    +0.000 A 
ATOM     16  C   UNL     1       3.130   1.934  18.058  0.00  0.00    +0.000 A 
ATOM     17  C   UNL     1       1.837   2.444  18.137  0.00  0.00    +0.000 A 
ATOM     18  C   UNL     1       1.633   3.823  18.138  0.00  0.00    +0.000 A 
ATOM     19  C   UNL     1       2.720   4.691  18.064  0.00  0.00    +0.000 A 
ENDBRANCH   5  14
BRANCH   2  20
ATOM     20  C   UNL     1       6.730   7.850  17.780  0.00  0.00    +0.000 C 
BRANCH  20  21
ATOM     21  C   UNL     1       8.187   8.254  18.008  0.00  0.00    +0.000 C 
BRANCH  21  22
ATOM     22  C   UNL     1       8.491   9.609  17.382  0.00  0.00    +0.000 C 
BRANCH  22  23
ATOM     23  C   UNL     1       9.150  10.534  18.364  0.00  0.00    +0.000 A 
ATOM     24  C   UNL     1       9.165  10.248  19.730  0.00  0.00    +0.000 A 
ATOM     25  C   UNL     1       9.741  11.152  20.615  0.00  0.00    +0.000 A 
ATOM     26  C   UNL     1      10.309  12.304  20.099  0.00  0.00    +0.000 A 
ATOM     27  N   UNL     1      10.349  12.598  18.781  0.00  0.00    +0.000 NA
ATOM     28  C   UNL     1       9.771  11.707  17.946  0.00  0.00    +0.000 A 
ENDBRANCH  22  23
ENDBRANCH  21  22
ENDBRANCH  20  21
ENDBRANCH   2  20
TORSDOF 7
ENDMDL
MODEL 4
REMARK VINA RESULT:      -7.9      4.140      7.428
REMARK  Name = 
REMARK  8 active torsions:
REMARK  status: ('A' for Active; 'I' for Inactive)
REMARK    1  A    between atoms: C_1  and  O_2
REMARK    2  A    between atoms: O_2  and  C_3
REMARK    3  A    between atoms: C_6  and  C_7
REMARK    4  A    between atoms: C_8  and  C_9
REMARK    5  A    between atoms: C_9  and  C_10
REMARK    6  A    between atoms: C_10  and  C_11
REMARK    7  A    between atoms: C_11  and  C_12
REMARK    8  A    between atoms: N_20  and  C_21
REMARK                            x       y       z     vdW  Elec       q    Type
REMARK                         _______ _______ _______ _____ _____    ______ ____
ROOT
ATOM      1  C   UNL     1       3.380   6.753  18.922  0.00  0.00    +0.000 C 
ATOM      2  C   UNL     1       3.950   6.607  17.467  0.00  0.00    +0.000 C 
ATOM      3  C   UNL     1       3.519   5.147  17.579  0.00  0.00    +0.000 C 
ATOM      4  O   UNL     1       3.640   4.164  16.880  0.00  0.00    +0.000 OA
ATOM      5  N   UNL     1       2.953   5.357  18.790  0.00  0.00    +0.000 N 
ENDROOT
BRANCH   1   9
ATOM      6  C   UNL     1       0.260   9.839  19.579  0.00  0.00    +0.000 A 
ATOM      7  C   UNL     1       0.656   8.997  20.612  0.00  0.00    +0.000 A 
ATOM      8  C   UNL     1       1.657   8.048  20.411  0.00  0.00    +0.000 A 
ATOM      9  C   UNL     1       2.277   7.872  19.160  0.00  0.00    +0.000 A 
ATOM     10  C   UNL     1       1.857   8.743  18.131  0.00  0.00    +0.000 A 
ATOM     11  C   UNL     1       0.857   9.707  18.329  0.00  0.00    +0.000 A 
BRANCH   6  13
ATOM     12  C   UNL     1      -0.685  11.245  21.225  0.00  0.00    +0.000 C 
ATOM     13  O   UNL     1      -0.728  10.724  19.903  0.00  0.00    +0.000 OA
ENDBRANCH   6  13
ENDBRANCH   1   9
BRANCH   5  14
ATOM     14  C   UNL     1       2.318   4.495  19.669  0.00  0.00    +0.000 A 
ATOM     15  C   UNL     1       2.808   4.312  20.968  0.00  0.00    +0.000 A 
ATOM     16  C   UNL     1       2.228   3.379  21.820  0.00  0.00    +0.000 A 
ATOM     17  C   UNL     1       1.162   2.601  21.377  0.00  0.00    +0.000 A 
ATOM     18  C   UNL     1       0.656   2.785  20.091  0.00  0.00    +0.000 A 
ATOM     19  C   UNL     1       1.212   3.748  19.251  0.00  0.00    +0.000 A 
ENDBRANCH   5  14
BRANCH   2  20
ATOM     20  C   UNL     1       5.447   6.796  17.278  0.00  0.00    +0.000 C 
BRANCH  20  21
ATOM     21  C   UNL     1       5.811   6.503  15.823  0.00  0.00    +0.000 C 
BRANCH  21  22
ATOM     22  C   UNL     1       6.690   5.264  15.710  0.00  0.00    +0.000 C 
BRANCH  22  23
ATOM     23  C   UNL     1       6.739   4.750  14.301  0.00  0.00    +0.000 A 
ATOM     24  C   UNL     1       5.867   3.751  13.863  0.00  0.00    +0.000 A 
ATOM     25  C   UNL     1       5.975   3.265  12.565  0.00  0.00    +0.000 A 
ATOM     26  C   UNL     1       6.938   3.815  11.737  0.00  0.00    +0.000 A 
ATOM     27  N   UNL     1       7.775   4.808  12.110  0.00  0.00    +0.000 NA
ATOM     28  C   UNL     1       7.655   5.252  13.381  0.00  0.00    +0.000 A 
ENDBRANCH  22  23
ENDBRANCH  21  22
ENDBRANCH  20  21
ENDBRANCH   2  20
TORSDOF 7
ENDMDL
MODEL 5
REMARK VINA RESULT:      -7.9      4.761      6.945
REMARK  Name = 
REMARK  8 active torsions:
REMARK  status: ('A' for Active; 'I' for Inactive)
REMARK    1  A    between atoms: C_1  and  O_2
REMARK    2  A    between atoms: O_2  and  C_3
REMARK    3  A    between atoms: C_6  and  C_7
REMARK    4  A    between atoms: C_8  and  C_9
REMARK    5  A    between atoms: C_9  and  C_10
REMARK    6  A    between atoms: C_10  and  C_11
REMARK    7  A    between atoms: C_11  and  C_12
REMARK    8  A    between atoms: N_20  and  C_21
REMARK                            x       y       z     vdW  Elec       q    Type
REMARK                         _______ _______ _______ _____ _____    ______ ____
ROOT
ATOM      1  C   UNL     1       2.421   6.501  18.050  0.00  0.00    +0.000 C 
ATOM      2  C   UNL     1       2.383   7.992  18.537  0.00  0.00    +0.000 C 
ATOM      3  C   UNL     1       1.951   7.409  19.881  0.00  0.00    +0.000 C 
ATOM      4  O   UNL     1       1.593   7.878  20.941  0.00  0.00    +0.000 OA
ATOM      5  N   UNL     1       2.100   6.141  19.434  0.00  0.00    +0.000 N 
ENDROOT
BRANCH   1   9
ATOM      6  C   UNL     1       6.206   5.054  16.240  0.00  0.00    +0.000 A 
ATOM      7  C   UNL     1       6.027   6.402  16.532  0.00  0.00    +0.000 A 
ATOM      8  C   UNL     1       4.848   6.849  17.128  0.00  0.00    +0.000 A 
ATOM      9  C   UNL     1       3.783   5.978  17.419  0.00  0.00    +0.000 A 
ATOM     10  C   UNL     1       3.994   4.616  17.115  0.00  0.00    +0.000 A 
ATOM     11  C   UNL     1       5.181   4.156  16.525  0.00  0.00    +0.000 A 
BRANCH   6  13
ATOM     12  C   UNL     1       7.419   4.734  14.238  0.00  0.00    +0.000 C 
ATOM     13  O   UNL     1       7.402   4.745  15.660  0.00  0.00    +0.000 OA
ENDBRANCH   6  13
ENDBRANCH   1   9
BRANCH   5  14
ATOM     14  C   UNL     1       1.874   4.919  20.045  0.00  0.00    +0.000 A 
ATOM     15  C   UNL     1       2.487   4.609  21.267  0.00  0.00    +0.000 A 
ATOM     16  C   UNL     1       2.335   3.349  21.835  0.00  0.00    +0.000 A 
ATOM     17  C   UNL     1       1.587   2.376  21.180  0.00  0.00    +0.000 A 
ATOM     18  C   UNL     1       0.961   2.677  19.972  0.00  0.00    +0.000 A 
ATOM     19  C   UNL     1       1.079   3.952  19.422  0.00  0.00    +0.000 A 
ENDBRANCH   5  14
BRANCH   2  20
ATOM     20  C   UNL     1       1.352   8.911  17.903  0.00  0.00    +0.000 C 
BRANCH  20  21
ATOM     21  C   UNL     1       1.605  10.346  18.365  0.00  0.00    +0.000 C 
BRANCH  21  22
ATOM     22  C   UNL     1       0.658  10.742  19.491  0.00  0.00    +0.000 C 
BRANCH  22  23
ATOM     23  C   UNL     1      -0.741  10.946  18.988  0.00  0.00    +0.000 A 
ATOM     24  C   UNL     1      -1.209  10.276  17.856  0.00  0.00    +0.000 A 
ATOM     25  C   UNL     1      -2.494  10.529  17.390  0.00  0.00    +0.000 A 
ATOM     26  C   UNL     1      -3.281  11.427  18.091  0.00  0.00    +0.000 A 
ATOM     27  N   UNL     1      -2.879  12.067  19.210  0.00  0.00    +0.000 NA
ATOM     28  C   UNL     1      -1.621  11.811  19.633  0.00  0.00    +0.000 A 
ENDBRANCH  22  23
ENDBRANCH  21  22
ENDBRANCH  20  21
ENDBRANCH   2  20
TORSDOF 7
ENDMDL
MODEL 6
REMARK VINA RESULT:      -7.9      4.098      7.307
REMARK  Name = 
REMARK  8 active torsions:
REMARK  status: ('A' for Active; 'I' for Inactive)
REMARK    1  A    between atoms: C_1  and  O_2
REMARK    2  A    between atoms: O_2  and  C_3
REMARK    3  A    between atoms: C_6  and  C_7
REMARK    4  A    between atoms: C_8  and  C_9
REMARK    5  A    between atoms: C_9  and  C_10
REMARK    6  A    between atoms: C_10  and  C_11
REMARK    7  A    between atoms: C_11  and  C_12
REMARK    8  A    between atoms: N_20  and  C_21
REMARK                            x       y       z     vdW  Elec       q    Type
REMARK                         _______ _______ _______ _____ _____    ______ ____
ROOT
ATOM      1  C   UNL     1       3.427   6.756  18.839  0.00  0.00    +0.000 C 
ATOM      2  C   UNL     1       4.067   6.581  17.418  0.00  0.00    +0.000 C 
ATOM      3  C   UNL     1       3.639   5.120  17.542  0.00  0.00    +0.000 C 
ATOM      4  O   UNL     1       3.799   4.123  16.872  0.00  0.00    +0.000 OA
ATOM      5  N   UNL     1       3.013   5.354  18.719  0.00  0.00    +0.000 N 
ENDROOT
BRANCH   1   9
ATOM      6  C   UNL     1       0.339   9.912  19.286  0.00  0.00    +0.000 A 
ATOM      7  C   UNL     1       0.885   9.622  18.040  0.00  0.00    +0.000 A 
ATOM      8  C   UNL     1       1.833   8.610  17.898  0.00  0.00    +0.000 A 
ATOM      9  C   UNL     1       2.307   7.872  18.998  0.00  0.00    +0.000 A 
ATOM     10  C   UNL     1       1.732   8.185  20.250  0.00  0.00    +0.000 A 
ATOM     11  C   UNL     1       0.771   9.196  20.399  0.00  0.00    +0.000 A 
BRANCH   6  13
ATOM     12  C   UNL     1      -1.068  11.310  20.569  0.00  0.00    +0.000 C 
ATOM     13  O   UNL     1      -0.579  10.923  19.292  0.00  0.00    +0.000 OA
ENDBRANCH   6  13
ENDBRANCH   1   9
BRANCH   5  14
ATOM     14  C   UNL     1       2.341   4.508  19.585  0.00  0.00    +0.000 A 
ATOM     15  C   UNL     1       2.786   4.335  20.902  0.00  0.00    +0.000 A 
ATOM     16  C   UNL     1       2.168   3.418  21.744  0.00  0.00    +0.000 A 
ATOM     17  C   UNL     1       1.110   2.645  21.274  0.00  0.00    +0.000 A 
ATOM     18  C   UNL     1       0.649   2.819  19.970  0.00  0.00    +0.000 A 
ATOM     19  C   UNL     1       1.242   3.767  19.138  0.00  0.00    +0.000 A 
ENDBRANCH   5  14
BRANCH   2  20
ATOM     20  C   UNL     1       5.570   6.775  17.297  0.00  0.00    +0.000 C 
BRANCH  20  21
ATOM     21  C   UNL     1       5.993   6.545  15.847  0.00  0.00    +0.000 C 
BRANCH  21  22
ATOM     22  C   UNL     1       6.885   5.316  15.716  0.00  0.00    +0.000 C 
BRANCH  22  23
ATOM     23  C   UNL     1       6.847   4.753  14.326  0.00  0.00    +0.000 A 
ATOM     24  C   UNL     1       7.713   5.215  13.333  0.00  0.00    +0.000 A 
ATOM     25  C   UNL     1       7.615   4.705  12.044  0.00  0.00    +0.000 A 
ATOM     26  C   UNL     1       6.667   3.727  11.796  0.00  0.00    +0.000 A 
ATOM     27  N   UNL     1       5.837   3.228  12.736  0.00  0.00    +0.000 NA
ATOM     28  C   UNL     1       5.946   3.750  13.978  0.00  0.00    +0.000 A 
ENDBRANCH  22  23
ENDBRANCH  21  22
ENDBRANCH  20  21
ENDBRANCH   2  20
TORSDOF 7
ENDMDL
MODEL 7
REMARK VINA RESULT:      -7.9      3.111      5.080
REMARK  Name = 
REMARK  8 active torsions:
REMARK  status: ('A' for Active; 'I' for Inactive)
REMARK    1  A    between atoms: C_1  and  O_2
REMARK    2  A    between atoms: O_2  and  C_3
REMARK    3  A    between atoms: C_6  and  C_7
REMARK    4  A    between atoms: C_8  and  C_9
REMARK    5  A    between atoms: C_9  and  C_10
REMARK    6  A    between atoms: C_10  and  C_11
REMARK    7  A    between atoms: C_11  and  C_12
REMARK    8  A    between atoms: N_20  and  C_21
REMARK                            x       y       z     vdW  Elec       q    Type
REMARK                         _______ _______ _______ _____ _____    ______ ____
ROOT
ATOM      1  C   UNL     1       4.272   6.362  18.280  0.00  0.00    +0.000 C 
ATOM      2  C   UNL     1       5.107   6.540  16.964  0.00  0.00    +0.000 C 
ATOM      3  C   UNL     1       4.681   5.108  16.649  0.00  0.00    +0.000 C 
ATOM      4  O   UNL     1       4.944   4.310  15.774  0.00  0.00    +0.000 OA
ATOM      5  N   UNL     1       3.895   5.049  17.749  0.00  0.00    +0.000 N 
ENDROOT
BRANCH   1   9
ATOM      6  C   UNL     1       1.043   9.306  19.058  0.00  0.00    +0.000 A 
ATOM      7  C   UNL     1       1.369   8.340  20.004  0.00  0.00    +0.000 A 
ATOM      8  C   UNL     1       2.404   7.436  19.770  0.00  0.00    +0.000 A 
ATOM      9  C   UNL     1       3.129   7.429  18.564  0.00  0.00    +0.000 A 
ATOM     10  C   UNL     1       2.779   8.422  17.624  0.00  0.00    +0.000 A 
ATOM     11  C   UNL     1       1.746   9.342  17.857  0.00  0.00    +0.000 A 
BRANCH   6  13
ATOM     12  C   UNL     1      -0.828  10.558  18.344  0.00  0.00    +0.000 C 
ATOM     13  O   UNL     1       0.014  10.131  19.407  0.00  0.00    +0.000 OA
ENDBRANCH   6  13
ENDBRANCH   1   9
BRANCH   5  14
ATOM     14  C   UNL     1       3.118   4.027  18.268  0.00  0.00    +0.000 A 
ATOM     15  C   UNL     1       1.777   3.887  17.888  0.00  0.00    +0.000 A 
ATOM     16  C   UNL     1       0.970   2.920  18.477  0.00  0.00    +0.000 A 
ATOM     17  C   UNL     1       1.487   2.095  19.471  0.00  0.00    +0.000 A 
ATOM     18  C   UNL     1       2.824   2.215  19.848  0.00  0.00    +0.000 A 
ATOM     19  C   UNL     1       3.643   3.157  19.229  0.00  0.00    +0.000 A 
ENDBRANCH   5  14
BRANCH   2  20
ATOM     20  C   UNL     1       6.609   6.720  17.105  0.00  0.00    +0.000 C 
BRANCH  20  21
ATOM     21  C   UNL     1       6.907   8.160  17.521  0.00  0.00    +0.000 C 
BRANCH  21  22
ATOM     22  C   UNL     1       8.285   8.280  18.160  0.00  0.00    +0.000 C 
BRANCH  22  23
ATOM     23  C   UNL     1       8.650   9.713  18.418  0.00  0.00    +0.000 A 
ATOM     24  C   UNL     1       9.388  10.081  19.544  0.00  0.00    +0.000 A 
ATOM     25  C   UNL     1       9.665  11.423  19.776  0.00  0.00    +0.000 A 
ATOM     26  C   UNL     1       9.214  12.354  18.856  0.00  0.00    +0.000 A 
ATOM     27  N   UNL     1       8.529  12.035  17.736  0.00  0.00    +0.000 NA
ATOM     28  C   UNL     1       8.265  10.724  17.543  0.00  0.00    +0.000 A 
ENDBRANCH  22  23
ENDBRANCH  21  22
ENDBRANCH  20  21
ENDBRANCH   2  20
TORSDOF 7
ENDMDL
MODEL 8
REMARK VINA RESULT:      -7.8      3.075      5.050
REMARK  Name = 
REMARK  8 active torsions:
REMARK  status: ('A' for Active; 'I' for Inactive)
REMARK    1  A    between atoms: C_1  and  O_2
REMARK    2  A    between atoms: O_2  and  C_3
REMARK    3  A    between atoms: C_6  and  C_7
REMARK    4  A    between atoms: C_8  and  C_9
REMARK    5  A    between atoms: C_9  and  C_10
REMARK    6  A    between atoms: C_10  and  C_11
REMARK    7  A    between atoms: C_11  and  C_12
REMARK    8  A    between atoms: N_20  and  C_21
REMARK                            x       y       z     vdW  Elec       q    Type
REMARK                         _______ _______ _______ _____ _____    ______ ____
ROOT
ATOM      1  C   UNL     1       4.275   6.374  18.261  0.00  0.00    +0.000 C 
ATOM      2  C   UNL     1       5.107   6.509  16.938  0.00  0.00    +0.000 C 
ATOM      3  C   UNL     1       4.688   5.065  16.675  0.00  0.00    +0.000 C 
ATOM      4  O   UNL     1       4.954   4.238  15.829  0.00  0.00    +0.000 OA
ATOM      5  N   UNL     1       3.904   5.041  17.778  0.00  0.00    +0.000 N 
ENDROOT
BRANCH   1   9
ATOM      6  C   UNL     1       1.107   9.399  18.973  0.00  0.00    +0.000 A 
ATOM      7  C   UNL     1       1.869   9.427  17.811  0.00  0.00    +0.000 A 
ATOM      8  C   UNL     1       2.843   8.458  17.576  0.00  0.00    +0.000 A 
ATOM      9  C   UNL     1       3.127   7.445  18.509  0.00  0.00    +0.000 A 
ATOM     10  C   UNL     1       2.336   7.439  19.679  0.00  0.00    +0.000 A 
ATOM     11  C   UNL     1       1.346   8.404  19.917  0.00  0.00    +0.000 A 
BRANCH   6  13
ATOM     12  C   UNL     1       0.372  11.298  20.171  0.00  0.00    +0.000 C 
ATOM     13  O   UNL     1       0.186  10.401  19.084  0.00  0.00    +0.000 OA
ENDBRANCH   6  13
ENDBRANCH   1   9
BRANCH   5  14
ATOM     14  C   UNL     1       3.133   4.035  18.334  0.00  0.00    +0.000 A 
ATOM     15  C   UNL     1       1.812   3.831  17.912  0.00  0.00    +0.000 A 
ATOM     16  C   UNL     1       1.008   2.883  18.534  0.00  0.00    +0.000 A 
ATOM     17  C   UNL     1       1.505   2.141  19.601  0.00  0.00    +0.000 A 
ATOM     18  C   UNL     1       2.822   2.324  20.020  0.00  0.00    +0.000 A 
ATOM     19  C   UNL     1       3.641   3.245  19.371  0.00  0.00    +0.000 A 
ENDBRANCH   5  14
BRANCH   2  20
ATOM     20  C   UNL     1       6.609   6.702  17.070  0.00  0.00    +0.000 C 
BRANCH  20  21
ATOM     21  C   UNL     1       6.897   8.144  17.486  0.00  0.00    +0.000 C 
BRANCH  21  22
ATOM     22  C   UNL     1       8.260   8.268  18.155  0.00  0.00    +0.000 C 
BRANCH  22  23
ATOM     23  C   UNL     1       8.619   9.702  18.414  0.00  0.00    +0.000 A 
ATOM     24  C   UNL     1       8.218  10.717  17.543  0.00  0.00    +0.000 A 
ATOM     25  C   UNL     1       8.612  12.027  17.789  0.00  0.00    +0.000 A 
ATOM     26  C   UNL     1       9.374  12.283  18.916  0.00  0.00    +0.000 A 
ATOM     27  N   UNL     1       9.750  11.335  19.802  0.00  0.00    +0.000 NA
ATOM     28  C   UNL     1       9.363  10.069  19.531  0.00  0.00    +0.000 A 
ENDBRANCH  22  23
ENDBRANCH  21  22
ENDBRANCH  20  21
ENDBRANCH   2  20
TORSDOF 7
ENDMDL
MODEL 9
REMARK VINA RESULT:      -7.8      3.035      4.940
REMARK  Name = 
REMARK  8 active torsions:
REMARK  status: ('A' for Active; 'I' for Inactive)
REMARK    1  A    between atoms: C_1  and  O_2
REMARK    2  A    between atoms: O_2  and  C_3
REMARK    3  A    between atoms: C_6  and  C_7
REMARK    4  A    between atoms: C_8  and  C_9
REMARK    5  A    between atoms: C_9  and  C_10
REMARK    6  A    between atoms: C_10  and  C_11
REMARK    7  A    between atoms: C_11  and  C_12
REMARK    8  A    between atoms: N_20  and  C_21
REMARK                            x       y       z     vdW  Elec       q    Type
REMARK                         _______ _______ _______ _____ _____    ______ ____
ROOT
ATOM      1  C   UNL     1       4.327   6.351  18.222  0.00  0.00    +0.000 C 
ATOM      2  C   UNL     1       5.154   6.639  16.921  0.00  0.00    +0.000 C 
ATOM      3  C   UNL     1       4.766   5.220  16.511  0.00  0.00    +0.000 C 
ATOM      4  O   UNL     1       5.049   4.490  15.585  0.00  0.00    +0.000 OA
ATOM      5  N   UNL     1       3.984   5.067  17.605  0.00  0.00    +0.000 N 
ENDROOT
BRANCH   1   9
ATOM      6  C   UNL     1       1.095   9.221  19.229  0.00  0.00    +0.000 A 
ATOM      7  C   UNL     1       1.742   9.281  17.999  0.00  0.00    +0.000 A 
ATOM      8  C   UNL     1       2.735   8.359  17.674  0.00  0.00    +0.000 A 
ATOM      9  C   UNL     1       3.156   7.366  18.577  0.00  0.00    +0.000 A 
ATOM     10  C   UNL     1       2.480   7.328  19.816  0.00  0.00    +0.000 A 
ATOM     11  C   UNL     1       1.471   8.245  20.147  0.00  0.00    +0.000 A 
BRANCH   6  13
ATOM     12  C   UNL     1      -0.644  10.515  18.288  0.00  0.00    +0.000 C 
ATOM     13  O   UNL     1       0.141  10.178  19.425  0.00  0.00    +0.000 OA
ENDBRANCH   6  13
ENDBRANCH   1   9
BRANCH   5  14
ATOM     14  C   UNL     1       3.235   3.992  18.055  0.00  0.00    +0.000 A 
ATOM     15  C   UNL     1       3.858   2.793  18.424  0.00  0.00    +0.000 A 
ATOM     16  C   UNL     1       3.102   1.684  18.787  0.00  0.00    +0.000 A 
ATOM     17  C   UNL     1       1.712   1.753  18.766  0.00  0.00    +0.000 A 
ATOM     18  C   UNL     1       1.081   2.946  18.415  0.00  0.00    +0.000 A 
ATOM     19  C   UNL     1       1.838   4.069  18.090  0.00  0.00    +0.000 A 
ENDBRANCH   5  14
BRANCH   2  20
ATOM     20  C   UNL     1       6.652   6.849  17.074  0.00  0.00    +0.000 C 
BRANCH  20  21
ATOM     21  C   UNL     1       6.909   8.255  17.616  0.00  0.00    +0.000 C 
BRANCH  21  22
ATOM     22  C   UNL     1       8.360   8.424  18.053  0.00  0.00    +0.000 C 
BRANCH  22  23
ATOM     23  C   UNL     1       8.667   9.851  18.402  0.00  0.00    +0.000 A 
ATOM     24  C   UNL     1       8.307  10.898  17.552  0.00  0.00    +0.000 A 
ATOM     25  C   UNL     1       8.652  12.203  17.885  0.00  0.00    +0.000 A 
ATOM     26  C   UNL     1       9.326  12.420  19.075  0.00  0.00    +0.000 A 
ATOM     27  N   UNL     1       9.659  11.438  19.941  0.00  0.00    +0.000 NA
ATOM     28  C   UNL     1       9.321  10.179  19.586  0.00  0.00    +0.000 A 
ENDBRANCH  22  23
ENDBRANCH  21  22
ENDBRANCH  20  21
ENDBRANCH   2  20
TORSDOF 7
ENDMDL
