MODEL 1
REMARK VINA RESULT:      -7.7      0.000      0.000
REMARK  Name = 
REMARK  7 active torsions:
REMARK  status: ('A' for Active; 'I' for Inactive)
REMARK    1  A    between atoms: C_1  and  C_2
REMARK    2  A    between atoms: C_7  and  C_8
REMARK    3  A    between atoms: C_14  and  O_15
REMARK    4  A    between atoms: O_15  and  C_16
REMARK    5  A    between atoms: C_16  and  C_17
REMARK    6  A    between atoms: C_17  and  O_18
REMARK    7  A    between atoms: O_18  and  C_19
REMARK                            x       y       z     vdW  Elec       q    Type
REMARK                         _______ _______ _______ _____ _____    ______ ____
ROOT
ATOM      1  C   UNL     1       8.231   8.880  17.493  0.00  0.00    +0.000 C 
ATOM      2  C   UNL     1       7.520   7.653  17.970  0.00  0.00    +0.000 A 
ATOM      3  C   UNL     1       8.219   6.547  18.601  0.00  0.00    +0.000 A 
ATOM      4  C   UNL     1       7.555   5.454  19.014  0.00  0.00    +0.000 A 
ATOM      5  C   UNL     1       6.143   5.347  18.838  0.00  0.00    +0.000 A 
ATOM      6  N   UNL     1       5.321   4.377  19.154  0.00  0.00    +0.000 NA
ATOM      7  C   UNL     1       4.063   4.795  18.764  0.00  0.00    +0.000 A 
ATOM      8  C   UNL     1       4.115   6.065  18.180  0.00  0.00    +0.000 A 
ATOM      9  N   UNL     1       5.480   6.414  18.235  0.00  0.00    +0.000 N 
ATOM     10  C   UNL     1       6.192   7.548  17.815  0.00  0.00    +0.000 A 
ENDROOT
BRANCH   7  11
ATOM     11  C   UNL     1       2.895   3.935  18.998  0.00  0.00    +0.000 A 
ATOM     12  C   UNL     1       2.022   4.253  20.057  0.00  0.00    +0.000 A 
ATOM     13  C   UNL     1       0.875   3.493  20.316  0.00  0.00    +0.000 A 
ATOM     14  C   UNL     1       0.577   2.394  19.518  0.00  0.00    +0.000 A 
ATOM     15  C   UNL     1       1.430   2.056  18.469  0.00  0.00    +0.000 A 
ATOM     16  C   UNL     1       2.582   2.817  18.216  0.00  0.00    +0.000 A 
ENDBRANCH   7  11
BRANCH   8  17
ATOM     17  O   UNL     1       3.102   6.806  17.670  0.00  0.00    +0.000 OA
BRANCH  17  18
ATOM     18  C   UNL     1       2.458   7.725  18.537  0.00  0.00    +0.000 C 
BRANCH  18  19
ATOM     19  C   UNL     1       1.701   8.846  17.864  0.00  0.00    +0.000 C 
BRANCH  19  20
ATOM     20  O   UNL     1       1.062   9.643  18.852  0.00  0.00    +0.000 OA
BRANCH  20  21
ATOM     21  C   UNL     1      -0.078  10.275  18.438  0.00  0.00    +0.000 A 
ATOM     22  C   UNL     1      -0.486  11.555  18.826  0.00  0.00    +0.000 A 
ATOM     23  C   UNL     1      -1.671  12.094  18.326  0.00  0.00    +0.000 A 
ATOM     24  C   UNL     1      -2.436  11.349  17.439  0.00  0.00    +0.000 A 
ATOM     25  F   UNL     1      -3.567  11.866  16.950  0.00  0.00    +0.000 F 
ATOM     26  C   UNL     1      -2.045  10.073  17.050  0.00  0.00    +0.000 A 
ATOM     27  C   UNL     1      -0.863   9.531  17.555  0.00  0.00    +0.000 A 
ENDBRANCH  20  21
ENDBRANCH  19  20
ENDBRANCH  18  19
ENDBRANCH  17  18
ENDBRANCH   8  17
TORSDOF 6
ENDMDL
MODEL 2
REMARK VINA RESULT:      -7.6      3.892      6.236
REMARK  Name = 
REMARK  7 active torsions:
REMARK  status: ('A' for Active; 'I' for Inactive)
REMARK    1  A    between atoms: C_1  and  C_2
REMARK    2  A    between atoms: C_7  and  C_8
REMARK    3  A    between atoms: C_14  and  O_15
REMARK    4  A    between atoms: O_15  and  C_16
REMARK    5  A    between atoms: C_16  and  C_17
REMARK    6  A    between atoms: C_17  and  O_18
REMARK    7  A    between atoms: O_18  and  C_19
REMARK                            x       y       z     vdW  Elec       q    Type
REMARK                         _______ _______ _______ _____ _____    ______ ____
ROOT
ATOM      1  C   UNL     1       3.952   2.870  10.978  0.00  0.00    +0.000 C 
ATOM      2  C   UNL     1       4.990   3.421  11.904  0.00  0.00    +0.000 A 
ATOM      3  C   UNL     1       6.384   3.550  11.519  0.00  0.00    +0.000 A 
ATOM      4  C   UNL     1       7.296   4.044  12.374  0.00  0.00    +0.000 A 
ATOM      5  C   UNL     1       6.920   4.448  13.689  0.00  0.00    +0.000 A 
ATOM      6  N   UNL     1       7.645   4.937  14.666  0.00  0.00    +0.000 NA
ATOM      7  C   UNL     1       6.776   5.159  15.718  0.00  0.00    +0.000 A 
ATOM      8  C   UNL     1       5.472   4.786  15.378  0.00  0.00    +0.000 A 
ATOM      9  N   UNL     1       5.580   4.325  14.050  0.00  0.00    +0.000 N 
ATOM     10  C   UNL     1       4.643   3.812  13.140  0.00  0.00    +0.000 A 
ENDROOT
BRANCH   7  11
ATOM     11  C   UNL     1       7.274   5.729  16.977  0.00  0.00    +0.000 A 
ATOM     12  C   UNL     1       7.545   7.110  17.033  0.00  0.00    +0.000 A 
ATOM     13  C   UNL     1       7.993   7.723  18.209  0.00  0.00    +0.000 A 
ATOM     14  C   UNL     1       8.181   6.963  19.358  0.00  0.00    +0.000 A 
ATOM     15  C   UNL     1       7.927   5.594  19.324  0.00  0.00    +0.000 A 
ATOM     16  C   UNL     1       7.483   4.981  18.141  0.00  0.00    +0.000 A 
ENDBRANCH   7  11
BRANCH   8  17
ATOM     17  O   UNL     1       4.349   4.844  16.134  0.00  0.00    +0.000 OA
BRANCH  17  18
ATOM     18  C   UNL     1       4.038   3.718  16.937  0.00  0.00    +0.000 C 
BRANCH  18  19
ATOM     19  C   UNL     1       3.956   3.972  18.425  0.00  0.00    +0.000 C 
BRANCH  19  20
ATOM     20  O   UNL     1       2.608   4.244  18.783  0.00  0.00    +0.000 OA
BRANCH  20  21
ATOM     21  C   UNL     1       2.352   5.541  19.129  0.00  0.00    +0.000 A 
ATOM     22  C   UNL     1       2.548   6.658  18.309  0.00  0.00    +0.000 A 
ATOM     23  C   UNL     1       2.238   7.934  18.778  0.00  0.00    +0.000 A 
ATOM     24  C   UNL     1       1.732   8.083  20.062  0.00  0.00    +0.000 A 
ATOM     25  F   UNL     1       1.425   9.304  20.511  0.00  0.00    +0.000 F 
ATOM     26  C   UNL     1       1.538   6.983  20.890  0.00  0.00    +0.000 A 
ATOM     27  C   UNL     1       1.853   5.706  20.423  0.00  0.00    +0.000 A 
ENDBRANCH  20  21
ENDBRANCH  19  20
ENDBRANCH  18  19
ENDBRANCH  17  18
ENDBRANCH   8  17
TORSDOF 6
ENDMDL
MODEL 3
REMARK VINA RESULT:      -7.6      2.058      2.454
REMARK  Name = 
REMARK  7 active torsions:
REMARK  status: ('A' for Active; 'I' for Inactive)
REMARK    1  A    between atoms: C_1  and  C_2
REMARK    2  A    between atoms: C_7  and  C_8
REMARK    3  A    between atoms: C_14  and  O_15
REMARK    4  A    between atoms: O_15  and  C_16
REMARK    5  A    between atoms: C_16  and  C_17
REMARK    6  A    between atoms: C_17  and  O_18
REMARK    7  A    between atoms: O_18  and  C_19
REMARK                            x       y       z     vdW  Elec       q    Type
REMARK                         _______ _______ _______ _____ _____    ______ ____
ROOT
ATOM      1  C   UNL     1       8.368   8.796  17.372  0.00  0.00    +0.000 C 
ATOM      2  C   UNL     1       7.619   7.630  17.936  0.00  0.00    +0.000 A 
ATOM      3  C   UNL     1       8.264   6.610  18.743  0.00  0.00    +0.000 A 
ATOM      4  C   UNL     1       7.567   5.570  19.232  0.00  0.00    +0.000 A 
ATOM      5  C   UNL     1       6.172   5.436  18.963  0.00  0.00    +0.000 A 
ATOM      6  N   UNL     1       5.324   4.506  19.330  0.00  0.00    +0.000 NA
ATOM      7  C   UNL     1       4.101   4.868  18.800  0.00  0.00    +0.000 A 
ATOM      8  C   UNL     1       4.201   6.060  18.075  0.00  0.00    +0.000 A 
ATOM      9  N   UNL     1       5.560   6.420  18.191  0.00  0.00    +0.000 N 
ATOM     10  C   UNL     1       6.305   7.501  17.695  0.00  0.00    +0.000 A 
ENDROOT
BRANCH   7  11
ATOM     11  C   UNL     1       2.916   4.035  19.045  0.00  0.00    +0.000 A 
ATOM     12  C   UNL     1       2.117   4.310  20.173  0.00  0.00    +0.000 A 
ATOM     13  C   UNL     1       0.959   3.574  20.449  0.00  0.00    +0.000 A 
ATOM     14  C   UNL     1       0.573   2.545  19.599  0.00  0.00    +0.000 A 
ATOM     15  C   UNL     1       1.350   2.250  18.481  0.00  0.00    +0.000 A 
ATOM     16  C   UNL     1       2.515   2.986  18.210  0.00  0.00    +0.000 A 
ENDBRANCH   7  11
BRANCH   8  17
ATOM     17  O   UNL     1       3.233   6.731  17.407  0.00  0.00    +0.000 OA
BRANCH  17  18
ATOM     18  C   UNL     1       2.980   8.073  17.788  0.00  0.00    +0.000 C 
BRANCH  18  19
ATOM     19  C   UNL     1       1.673   8.319  18.506  0.00  0.00    +0.000 C 
BRANCH  19  20
ATOM     20  O   UNL     1       1.854   8.105  19.899  0.00  0.00    +0.000 OA
BRANCH  20  21
ATOM     21  C   UNL     1       1.054   8.860  20.711  0.00  0.00    +0.000 A 
ATOM     22  C   UNL     1       0.469   8.431  21.907  0.00  0.00    +0.000 A 
ATOM     23  C   UNL     1      -0.324   9.303  22.651  0.00  0.00    +0.000 A 
ATOM     24  C   UNL     1      -0.522  10.599  22.195  0.00  0.00    +0.000 A 
ATOM     25  F   UNL     1      -1.273  11.441  22.911  0.00  0.00    +0.000 F 
ATOM     26  C   UNL     1       0.048  11.037  21.006  0.00  0.00    +0.000 A 
ATOM     27  C   UNL     1       0.837  10.163  20.257  0.00  0.00    +0.000 A 
ENDBRANCH  20  21
ENDBRANCH  19  20
ENDBRANCH  18  19
ENDBRANCH  17  18
ENDBRANCH   8  17
TORSDOF 6
ENDMDL
MODEL 4
REMARK VINA RESULT:      -7.6      1.031      1.213
REMARK  Name = 
REMARK  7 active torsions:
REMARK  status: ('A' for Active; 'I' for Inactive)
REMARK    1  A    between atoms: C_1  and  C_2
REMARK    2  A    between atoms: C_7  and  C_8
REMARK    3  A    between atoms: C_14  and  O_15
REMARK    4  A    between atoms: O_15  and  C_16
REMARK    5  A    between atoms: C_16  and  C_17
REMARK    6  A    between atoms: C_17  and  O_18
REMARK    7  A    between atoms: O_18  and  C_19
REMARK                            x       y       z     vdW  Elec       q    Type
REMARK                         _______ _______ _______ _____ _____    ______ ____
ROOT
ATOM      1  C   UNL     1       8.315   8.726  17.369  0.00  0.00    +0.000 C 
ATOM      2  C   UNL     1       7.600   7.553  17.960  0.00  0.00    +0.000 A 
ATOM      3  C   UNL     1       8.263   6.596  18.828  0.00  0.00    +0.000 A 
ATOM      4  C   UNL     1       7.596   5.547  19.340  0.00  0.00    +0.000 A 
ATOM      5  C   UNL     1       6.217   5.341  19.038  0.00  0.00    +0.000 A 
ATOM      6  N   UNL     1       5.399   4.391  19.419  0.00  0.00    +0.000 NA
ATOM      7  C   UNL     1       4.177   4.677  18.839  0.00  0.00    +0.000 A 
ATOM      8  C   UNL     1       4.249   5.842  18.069  0.00  0.00    +0.000 A 
ATOM      9  N   UNL     1       5.587   6.266  18.208  0.00  0.00    +0.000 N 
ATOM     10  C   UNL     1       6.301   7.356  17.688  0.00  0.00    +0.000 A 
ENDROOT
BRANCH   7  11
ATOM     11  C   UNL     1       3.022   3.804  19.086  0.00  0.00    +0.000 A 
ATOM     12  C   UNL     1       2.234   4.032  20.231  0.00  0.00    +0.000 A 
ATOM     13  C   UNL     1       1.102   3.257  20.510  0.00  0.00    +0.000 A 
ATOM     14  C   UNL     1       0.734   2.233  19.645  0.00  0.00    +0.000 A 
ATOM     15  C   UNL     1       1.502   1.984  18.510  0.00  0.00    +0.000 A 
ATOM     16  C   UNL     1       2.640   2.760  18.236  0.00  0.00    +0.000 A 
ENDBRANCH   7  11
BRANCH   8  17
ATOM     17  O   UNL     1       3.274   6.442  17.345  0.00  0.00    +0.000 OA
BRANCH  17  18
ATOM     18  C   UNL     1       2.318   7.220  18.047  0.00  0.00    +0.000 C 
BRANCH  18  19
ATOM     19  C   UNL     1       2.578   8.708  18.081  0.00  0.00    +0.000 C 
BRANCH  19  20
ATOM     20  O   UNL     1       1.515   9.387  17.426  0.00  0.00    +0.000 OA
BRANCH  20  21
ATOM     21  C   UNL     1       0.647  10.040  18.256  0.00  0.00    +0.000 A 
ATOM     22  C   UNL     1       0.992  10.704  19.438  0.00  0.00    +0.000 A 
ATOM     23  C   UNL     1       0.011  11.343  20.195  0.00  0.00    +0.000 A 
ATOM     24  C   UNL     1      -1.308  11.315  19.762  0.00  0.00    +0.000 A 
ATOM     25  F   UNL     1      -2.249  11.934  20.481  0.00  0.00    +0.000 F 
ATOM     26  C   UNL     1      -1.666  10.654  18.593  0.00  0.00    +0.000 A 
ATOM     27  C   UNL     1      -0.686  10.010  17.838  0.00  0.00    +0.000 A 
ENDBRANCH  20  21
ENDBRANCH  19  20
ENDBRANCH  18  19
ENDBRANCH  17  18
ENDBRANCH   8  17
TORSDOF 6
ENDMDL
MODEL 5
REMARK VINA RESULT:      -7.6      4.376      6.902
REMARK  Name = 
REMARK  7 active torsions:
REMARK  status: ('A' for Active; 'I' for Inactive)
REMARK    1  A    between atoms: C_1  and  C_2
REMARK    2  A    between atoms: C_7  and  C_8
REMARK    3  A    between atoms: C_14  and  O_15
REMARK    4  A    between atoms: O_15  and  C_16
REMARK    5  A    between atoms: C_16  and  C_17
REMARK    6  A    between atoms: C_17  and  O_18
REMARK    7  A    between atoms: O_18  and  C_19
REMARK                            x       y       z     vdW  Elec       q    Type
REMARK                         _______ _______ _______ _____ _____    ______ ____
ROOT
ATOM      1  C   UNL     1       4.845   2.238  11.163  0.00  0.00    +0.000 C 
ATOM      2  C   UNL     1       5.649   3.141  12.045  0.00  0.00    +0.000 A 
ATOM      3  C   UNL     1       6.718   3.979  11.530  0.00  0.00    +0.000 A 
ATOM      4  C   UNL     1       7.427   4.776  12.346  0.00  0.00    +0.000 A 
ATOM      5  C   UNL     1       7.155   4.815  13.746  0.00  0.00    +0.000 A 
ATOM      6  N   UNL     1       7.730   5.503  14.702  0.00  0.00    +0.000 NA
ATOM      7  C   UNL     1       7.071   5.166  15.870  0.00  0.00    +0.000 A 
ATOM      8  C   UNL     1       6.061   4.231  15.623  0.00  0.00    +0.000 A 
ATOM      9  N   UNL     1       6.127   4.011  14.232  0.00  0.00    +0.000 N 
ATOM     10  C   UNL     1       5.394   3.190  13.361  0.00  0.00    +0.000 A 
ENDROOT
BRANCH   7  11
ATOM     11  C   UNL     1       7.464   5.786  17.142  0.00  0.00    +0.000 A 
ATOM     12  C   UNL     1       7.685   4.956  18.260  0.00  0.00    +0.000 A 
ATOM     13  C   UNL     1       8.089   5.479  19.493  0.00  0.00    +0.000 A 
ATOM     14  C   UNL     1       8.282   6.848  19.637  0.00  0.00    +0.000 A 
ATOM     15  C   UNL     1       8.061   7.689  18.548  0.00  0.00    +0.000 A 
ATOM     16  C   UNL     1       7.650   7.162  17.313  0.00  0.00    +0.000 A 
ENDBRANCH   7  11
BRANCH   8  17
ATOM     17  O   UNL     1       5.207   3.654  16.502  0.00  0.00    +0.000 OA
BRANCH  17  18
ATOM     18  C   UNL     1       3.973   4.309  16.747  0.00  0.00    +0.000 C 
BRANCH  18  19
ATOM     19  C   UNL     1       4.071   5.691  17.352  0.00  0.00    +0.000 C 
BRANCH  19  20
ATOM     20  O   UNL     1       2.811   6.055  17.899  0.00  0.00    +0.000 OA
BRANCH  20  21
ATOM     21  C   UNL     1       2.286   5.163  18.791  0.00  0.00    +0.000 A 
ATOM     22  C   UNL     1       1.483   4.063  18.468  0.00  0.00    +0.000 A 
ATOM     23  C   UNL     1       1.015   3.219  19.473  0.00  0.00    +0.000 A 
ATOM     24  C   UNL     1       1.355   3.479  20.794  0.00  0.00    +0.000 A 
ATOM     25  F   UNL     1       0.915   2.666  21.758  0.00  0.00    +0.000 F 
ATOM     26  C   UNL     1       2.146   4.571  21.130  0.00  0.00    +0.000 A 
ATOM     27  C   UNL     1       2.611   5.420  20.125  0.00  0.00    +0.000 A 
ENDBRANCH  20  21
ENDBRANCH  19  20
ENDBRANCH  18  19
ENDBRANCH  17  18
ENDBRANCH   8  17
TORSDOF 6
ENDMDL
MODEL 6
REMARK VINA RESULT:      -7.5      2.094      2.404
REMARK  Name = 
REMARK  7 active torsions:
REMARK  status: ('A' for Active; 'I' for Inactive)
REMARK    1  A    between atoms: C_1  and  C_2
REMARK    2  A    between atoms: C_7  and  C_8
REMARK    3  A    between atoms: C_14  and  O_15
REMARK    4  A    between atoms: O_15  and  C_16
REMARK    5  A    between atoms: C_16  and  C_17
REMARK    6  A    between atoms: C_17  and  O_18
REMARK    7  A    between atoms: O_18  and  C_19
REMARK                            x       y       z     vdW  Elec       q    Type
REMARK                         _______ _______ _______ _____ _____    ______ ____
ROOT
ATOM      1  C   UNL     1       8.321   8.692  17.322  0.00  0.00    +0.000 C 
ATOM      2  C   UNL     1       7.599   7.522  17.912  0.00  0.00    +0.000 A 
ATOM      3  C   UNL     1       8.274   6.515  18.712  0.00  0.00    +0.000 A 
ATOM      4  C   UNL     1       7.601   5.471  19.224  0.00  0.00    +0.000 A 
ATOM      5  C   UNL     1       6.202   5.319  18.990  0.00  0.00    +0.000 A 
ATOM      6  N   UNL     1       5.374   4.382  19.383  0.00  0.00    +0.000 NA
ATOM      7  C   UNL     1       4.134   4.727  18.880  0.00  0.00    +0.000 A 
ATOM      8  C   UNL     1       4.204   5.915  18.145  0.00  0.00    +0.000 A 
ATOM      9  N   UNL     1       5.560   6.291  18.226  0.00  0.00    +0.000 N 
ATOM     10  C   UNL     1       6.281   7.376  17.704  0.00  0.00    +0.000 A 
ENDROOT
BRANCH   7  11
ATOM     11  C   UNL     1       2.964   3.883  19.159  0.00  0.00    +0.000 A 
ATOM     12  C   UNL     1       2.761   3.422  20.475  0.00  0.00    +0.000 A 
ATOM     13  C   UNL     1       1.652   2.639  20.816  0.00  0.00    +0.000 A 
ATOM     14  C   UNL     1       0.719   2.299  19.843  0.00  0.00    +0.000 A 
ATOM     15  C   UNL     1       0.903   2.737  18.533  0.00  0.00    +0.000 A 
ATOM     16  C   UNL     1       2.020   3.518  18.194  0.00  0.00    +0.000 A 
ENDBRANCH   7  11
BRANCH   8  17
ATOM     17  O   UNL     1       3.212   6.569  17.495  0.00  0.00    +0.000 OA
BRANCH  17  18
ATOM     18  C   UNL     1       2.952   7.911  17.873  0.00  0.00    +0.000 C 
BRANCH  18  19
ATOM     19  C   UNL     1       2.182   8.095  19.160  0.00  0.00    +0.000 C 
BRANCH  19  20
ATOM     20  O   UNL     1       1.126   9.022  18.949  0.00  0.00    +0.000 OA
BRANCH  20  21
ATOM     21  C   UNL     1       0.581   9.549  20.087  0.00  0.00    +0.000 A 
ATOM     22  C   UNL     1       0.359  10.909  20.331  0.00  0.00    +0.000 A 
ATOM     23  C   UNL     1      -0.214  11.321  21.533  0.00  0.00    +0.000 A 
ATOM     24  C   UNL     1      -0.563  10.368  22.482  0.00  0.00    +0.000 A 
ATOM     25  F   UNL     1      -1.121  10.759  23.632  0.00  0.00    +0.000 F 
ATOM     26  C   UNL     1      -0.342   9.015  22.256  0.00  0.00    +0.000 A 
ATOM     27  C   UNL     1       0.237   8.602  21.055  0.00  0.00    +0.000 A 
ENDBRANCH  20  21
ENDBRANCH  19  20
ENDBRANCH  18  19
ENDBRANCH  17  18
ENDBRANCH   8  17
TORSDOF 6
ENDMDL
MODEL 7
REMARK VINA RESULT:      -7.5      2.054      2.624
REMARK  Name = 
REMARK  7 active torsions:
REMARK  status: ('A' for Active; 'I' for Inactive)
REMARK    1  A    between atoms: C_1  and  C_2
REMARK    2  A    between atoms: C_7  and  C_8
REMARK    3  A    between atoms: C_14  and  O_15
REMARK    4  A    between atoms: O_15  and  C_16
REMARK    5  A    between atoms: C_16  and  C_17
REMARK    6  A    between atoms: C_17  and  O_18
REMARK    7  A    between atoms: O_18  and  C_19
REMARK                            x       y       z     vdW  Elec       q    Type
REMARK                         _______ _______ _______ _____ _____    ______ ____
ROOT
ATOM      1  C   UNL     1       8.379   8.730  17.330  0.00  0.00    +0.000 C 
ATOM      2  C   UNL     1       7.629   7.587  17.937  0.00  0.00    +0.000 A 
ATOM      3  C   UNL     1       8.263   6.625  18.823  0.00  0.00    +0.000 A 
ATOM      4  C   UNL     1       7.566   5.605  19.349  0.00  0.00    +0.000 A 
ATOM      5  C   UNL     1       6.182   5.433  19.047  0.00  0.00    +0.000 A 
ATOM      6  N   UNL     1       5.337   4.512  19.441  0.00  0.00    +0.000 NA
ATOM      7  C   UNL     1       4.125   4.824  18.854  0.00  0.00    +0.000 A 
ATOM      8  C   UNL     1       4.231   5.974  18.065  0.00  0.00    +0.000 A 
ATOM      9  N   UNL     1       5.580   6.361  18.201  0.00  0.00    +0.000 N 
ATOM     10  C   UNL     1       6.326   7.423  17.665  0.00  0.00    +0.000 A 
ENDROOT
BRANCH   7  11
ATOM     11  C   UNL     1       2.945   3.988  19.112  0.00  0.00    +0.000 A 
ATOM     12  C   UNL     1       2.581   3.019  18.156  0.00  0.00    +0.000 A 
ATOM     13  C   UNL     1       1.485   2.170  18.353  0.00  0.00    +0.000 A 
ATOM     14  C   UNL     1       0.728   2.273  19.513  0.00  0.00    +0.000 A 
ATOM     15  C   UNL     1       1.064   3.229  20.469  0.00  0.00    +0.000 A 
ATOM     16  C   UNL     1       2.160   4.084  20.267  0.00  0.00    +0.000 A 
ENDBRANCH   7  11
BRANCH   8  17
ATOM     17  O   UNL     1       3.275   6.589  17.330  0.00  0.00    +0.000 OA
BRANCH  17  18
ATOM     18  C   UNL     1       2.081   6.972  17.992  0.00  0.00    +0.000 C 
BRANCH  18  19
ATOM     19  C   UNL     1       2.142   8.271  18.762  0.00  0.00    +0.000 C 
BRANCH  19  20
ATOM     20  O   UNL     1       1.885   8.017  20.136  0.00  0.00    +0.000 OA
BRANCH  20  21
ATOM     21  C   UNL     1       1.089   8.939  20.757  0.00  0.00    +0.000 A 
ATOM     22  C   UNL     1       0.500  10.051  20.145  0.00  0.00    +0.000 A 
ATOM     23  C   UNL     1      -0.302  10.916  20.888  0.00  0.00    +0.000 A 
ATOM     24  C   UNL     1      -0.511  10.660  22.236  0.00  0.00    +0.000 A 
ATOM     25  F   UNL     1      -1.287  11.482  22.949  0.00  0.00    +0.000 F 
ATOM     26  C   UNL     1       0.073   9.563  22.858  0.00  0.00    +0.000 A 
ATOM     27  C   UNL     1       0.880   8.700  22.117  0.00  0.00    +0.000 A 
ENDBRANCH  20  21
ENDBRANCH  19  20
ENDBRANCH  18  19
ENDBRANCH  17  18
ENDBRANCH   8  17
TORSDOF 6
ENDMDL
MODEL 8
REMARK VINA RESULT:      -7.4      1.799      2.167
REMARK  Name = 
REMARK  7 active torsions:
REMARK  status: ('A' for Active; 'I' for Inactive)
REMARK    1  A    between atoms: C_1  and  C_2
REMARK    2  A    between atoms: C_7  and  C_8
REMARK    3  A    between atoms: C_14  and  O_15
REMARK    4  A    between atoms: O_15  and  C_16
REMARK    5  A    between atoms: C_16  and  C_17
REMARK    6  A    between atoms: C_17  and  O_18
REMARK    7  A    between atoms: O_18  and  C_19
REMARK                            x       y       z     vdW  Elec       q    Type
REMARK                         _______ _______ _______ _____ _____    ______ ____
ROOT
ATOM      1  C   UNL     1       8.279   8.704  17.333  0.00  0.00    +0.000 C 
ATOM      2  C   UNL     1       7.559   7.540  17.935  0.00  0.00    +0.000 A 
ATOM      3  C   UNL     1       8.240   6.532  18.730  0.00  0.00    +0.000 A 
ATOM      4  C   UNL     1       7.569   5.493  19.254  0.00  0.00    +0.000 A 
ATOM      5  C   UNL     1       6.166   5.346  19.038  0.00  0.00    +0.000 A 
ATOM      6  N   UNL     1       5.339   4.415  19.445  0.00  0.00    +0.000 NA
ATOM      7  C   UNL     1       4.094   4.764  18.956  0.00  0.00    +0.000 A 
ATOM      8  C   UNL     1       4.160   5.949  18.216  0.00  0.00    +0.000 A 
ATOM      9  N   UNL     1       5.519   6.319  18.279  0.00  0.00    +0.000 N 
ATOM     10  C   UNL     1       6.239   7.399  17.744  0.00  0.00    +0.000 A 
ENDROOT
BRANCH   7  11
ATOM     11  C   UNL     1       2.924   3.926  19.253  0.00  0.00    +0.000 A 
ATOM     12  C   UNL     1       2.340   3.185  18.206  0.00  0.00    +0.000 A 
ATOM     13  C   UNL     1       1.242   2.344  18.426  0.00  0.00    +0.000 A 
ATOM     14  C   UNL     1       0.705   2.226  19.702  0.00  0.00    +0.000 A 
ATOM     15  C   UNL     1       1.261   2.955  20.752  0.00  0.00    +0.000 A 
ATOM     16  C   UNL     1       2.359   3.802  20.527  0.00  0.00    +0.000 A 
ENDBRANCH   7  11
BRANCH   8  17
ATOM     17  O   UNL     1       3.163   6.606  17.576  0.00  0.00    +0.000 OA
BRANCH  17  18
ATOM     18  C   UNL     1       2.367   7.497  18.340  0.00  0.00    +0.000 C 
BRANCH  18  19
ATOM     19  C   UNL     1       2.356   8.935  17.873  0.00  0.00    +0.000 C 
BRANCH  19  20
ATOM     20  O   UNL     1       1.031   9.443  17.945  0.00  0.00    +0.000 OA
BRANCH  20  21
ATOM     21  C   UNL     1       0.810  10.344  18.949  0.00  0.00    +0.000 A 
ATOM     22  C   UNL     1       1.193  11.690  18.937  0.00  0.00    +0.000 A 
ATOM     23  C   UNL     1       0.901  12.511  20.024  0.00  0.00    +0.000 A 
ATOM     24  C   UNL     1       0.225  11.981  21.115  0.00  0.00    +0.000 A 
ATOM     25  F   UNL     1      -0.065  12.769  22.155  0.00  0.00    +0.000 F 
ATOM     26  C   UNL     1      -0.155  10.645  21.144  0.00  0.00    +0.000 A 
ATOM     27  C   UNL     1       0.142   9.820  20.058  0.00  0.00    +0.000 A 
ENDBRANCH  20  21
ENDBRANCH  19  20
ENDBRANCH  18  19
ENDBRANCH  17  18
ENDBRANCH   8  17
TORSDOF 6
ENDMDL
MODEL 9
REMARK VINA RESULT:      -7.3      3.166      7.022
REMARK  Name = 
REMARK  7 active torsions:
REMARK  status: ('A' for Active; 'I' for Inactive)
REMARK    1  A    between atoms: C_1  and  C_2
REMARK    2  A    between atoms: C_7  and  C_8
REMARK    3  A    between atoms: C_14  and  O_15
REMARK    4  A    between atoms: O_15  and  C_16
REMARK    5  A    between atoms: C_16  and  C_17
REMARK    6  A    between atoms: C_17  and  O_18
REMARK    7  A    between atoms: O_18  and  C_19
REMARK                            x       y       z     vdW  Elec       q    Type
REMARK                         _______ _______ _______ _____ _____    ______ ____
ROOT
ATOM      1  C   UNL     1       0.134   9.140  21.305  0.00  0.00    +0.000 C 
ATOM      2  C   UNL     1       0.981   8.871  20.102  0.00  0.00    +0.000 A 
ATOM      3  C   UNL     1       0.933   9.709  18.915  0.00  0.00    +0.000 A 
ATOM      4  C   UNL     1       1.701   9.440  17.846  0.00  0.00    +0.000 A 
ATOM      5  C   UNL     1       2.582   8.317  17.844  0.00  0.00    +0.000 A 
ATOM      6  N   UNL     1       3.395   7.880  16.913  0.00  0.00    +0.000 NA
ATOM      7  C   UNL     1       4.014   6.761  17.436  0.00  0.00    +0.000 A 
ATOM      8  C   UNL     1       3.560   6.496  18.732  0.00  0.00    +0.000 A 
ATOM      9  N   UNL     1       2.626   7.521  18.986  0.00  0.00    +0.000 N 
ATOM     10  C   UNL     1       1.819   7.823  20.094  0.00  0.00    +0.000 A 
ENDROOT
BRANCH   7  11
ATOM     11  C   UNL     1       5.013   6.033  16.643  0.00  0.00    +0.000 A 
ATOM     12  C   UNL     1       4.614   4.870  15.955  0.00  0.00    +0.000 A 
ATOM     13  C   UNL     1       5.508   4.146  15.157  0.00  0.00    +0.000 A 
ATOM     14  C   UNL     1       6.825   4.572  15.030  0.00  0.00    +0.000 A 
ATOM     15  C   UNL     1       7.245   5.715  15.707  0.00  0.00    +0.000 A 
ATOM     16  C   UNL     1       6.347   6.436  16.511  0.00  0.00    +0.000 A 
ENDBRANCH   7  11
BRANCH   8  17
ATOM     17  O   UNL     1       3.919   5.493  19.568  0.00  0.00    +0.000 OA
BRANCH  17  18
ATOM     18  C   UNL     1       5.303   5.225  19.718  0.00  0.00    +0.000 C 
BRANCH  18  19
ATOM     19  C   UNL     1       5.785   3.910  19.150  0.00  0.00    +0.000 C 
BRANCH  19  20
ATOM     20  O   UNL     1       5.191   2.839  19.871  0.00  0.00    +0.000 OA
BRANCH  20  21
ATOM     21  C   UNL     1       3.863   2.637  19.619  0.00  0.00    +0.000 A 
ATOM     22  C   UNL     1       2.832   2.721  20.562  0.00  0.00    +0.000 A 
ATOM     23  C   UNL     1       1.511   2.501  20.177  0.00  0.00    +0.000 A 
ATOM     24  C   UNL     1       1.230   2.201  18.850  0.00  0.00    +0.000 A 
ATOM     25  F   UNL     1      -0.037   1.999  18.476  0.00  0.00    +0.000 F 
ATOM     26  C   UNL     1       2.244   2.108  17.905  0.00  0.00    +0.000 A 
ATOM     27  C   UNL     1       3.567   2.323  18.291  0.00  0.00    +0.000 A 
ENDBRANCH  20  21
ENDBRANCH  19  20
ENDBRANCH  18  19
ENDBRANCH  17  18
ENDBRANCH   8  17
TORSDOF 6
ENDMDL
