MODEL 1
REMARK VINA RESULT:      -7.4      0.000      0.000
REMARK  Name = 
REMARK  6 active torsions:
REMARK  status: ('A' for Active; 'I' for Inactive)
REMARK    1  A    between atoms: C_2  and  O_3
REMARK    2  A    between atoms: C_2  and  C_4
REMARK    3  A    between atoms: C_4  and  N_5
REMARK    4  A    between atoms: C_7  and  C_8
REMARK    5  A    between atoms: C_12  and  C_13
REMARK    6  A    between atoms: C_18  and  C_19
REMARK                            x       y       z     vdW  Elec       q    Type
REMARK                         _______ _______ _______ _____ _____    ______ ____
ROOT
ATOM      1  N   UNL     1       4.758   5.266  16.943  0.00  0.00    +0.000 N 
ATOM      2  N   UNL     1       4.912   4.031  17.428  0.00  0.00    +0.000 NA
ATOM      3  C   UNL     1       4.017   3.952  18.424  0.00  0.00    +0.000 A 
ATOM      4  C   UNL     1       3.280   5.168  18.599  0.00  0.00    +0.000 A 
ATOM      5  C   UNL     1       2.282   5.753  19.416  0.00  0.00    +0.000 A 
ATOM      6  C   UNL     1       1.932   7.097  19.108  0.00  0.00    +0.000 A 
ATOM      7  C   UNL     1       2.530   7.812  18.070  0.00  0.00    +0.000 A 
ATOM      8  N   UNL     1       3.463   7.250  17.273  0.00  0.00    +0.000 NA
ATOM      9  C   UNL     1       3.799   5.987  17.595  0.00  0.00    +0.000 A 
ENDROOT
BRANCH   5  10
ATOM     10  C   UNL     1       1.552   5.137  20.584  0.00  0.00    +0.000 C 
ATOM     11  F   UNL     1       2.325   4.493  21.488  0.00  0.00    +0.000 F 
ATOM     12  F   UNL     1       0.865   6.074  21.301  0.00  0.00    +0.000 F 
ATOM     13  F   UNL     1       0.616   4.232  20.179  0.00  0.00    +0.000 F 
ENDBRANCH   5  10
BRANCH   3  14
ATOM     14  C   UNL     1       3.911   2.650  19.220  0.00  0.00    +0.000 C 
ATOM     15  C   UNL     1       2.573   1.935  19.286  0.00  0.00    +0.000 C 
ATOM     16  C   UNL     1       3.658   1.369  18.439  0.00  0.00    +0.000 C 
ENDBRANCH   3  14
BRANCH   7  17
ATOM     17  C   UNL     1       2.209   9.274  17.848  0.00  0.00    +0.000 C 
ATOM     18  C   UNL     1       0.774   9.747  17.884  0.00  0.00    +0.000 C 
ATOM     19  C   UNL     1       1.720  10.157  18.973  0.00  0.00    +0.000 C 
ENDBRANCH   7  17
BRANCH   1  20
ATOM     20  C   UNL     1       5.674   5.777  15.937  0.00  0.00    +0.000 C 
BRANCH  20  22
ATOM     21  O   UNL     1       7.743   6.868  16.430  0.00  0.00    +0.000 OA
ATOM     22  C   UNL     1       7.111   5.818  16.372  0.00  0.00    +0.000 C 
BRANCH  22  23
ATOM     23  O   UNL     1       7.727   4.634  16.592  0.00  0.00    +0.000 OA
ATOM     24  H   UNL     1       8.453   4.407  15.966  0.00  0.00    +0.000 HD
ENDBRANCH  22  23
ENDBRANCH  20  22
ENDBRANCH   1  20
TORSDOF 6
ENDMDL
MODEL 2
REMARK VINA RESULT:      -7.1      0.531      1.012
REMARK  Name = 
REMARK  6 active torsions:
REMARK  status: ('A' for Active; 'I' for Inactive)
REMARK    1  A    between atoms: C_2  and  O_3
REMARK    2  A    between atoms: C_2  and  C_4
REMARK    3  A    between atoms: C_4  and  N_5
REMARK    4  A    between atoms: C_7  and  C_8
REMARK    5  A    between atoms: C_12  and  C_13
REMARK    6  A    between atoms: C_18  and  C_19
REMARK                            x       y       z     vdW  Elec       q    Type
REMARK                         _______ _______ _______ _____ _____    ______ ____
ROOT
ATOM      1  N   UNL     1       4.927   5.360  17.034  0.00  0.00    +0.000 N 
ATOM      2  N   UNL     1       5.084   4.120  17.507  0.00  0.00    +0.000 NA
ATOM      3  C   UNL     1       4.139   4.005  18.452  0.00  0.00    +0.000 A 
ATOM      4  C   UNL     1       3.365   5.202  18.606  0.00  0.00    +0.000 A 
ATOM      5  C   UNL     1       2.312   5.750  19.376  0.00  0.00    +0.000 A 
ATOM      6  C   UNL     1       1.948   7.092  19.071  0.00  0.00    +0.000 A 
ATOM      7  C   UNL     1       2.583   7.836  18.077  0.00  0.00    +0.000 A 
ATOM      8  N   UNL     1       3.570   7.309  17.323  0.00  0.00    +0.000 NA
ATOM      9  C   UNL     1       3.918   6.048  17.643  0.00  0.00    +0.000 A 
ENDROOT
BRANCH   5  10
ATOM     10  C   UNL     1       1.534   5.099  20.494  0.00  0.00    +0.000 C 
ATOM     11  F   UNL     1       0.749   5.926  21.223  0.00  0.00    +0.000 F 
ATOM     12  F   UNL     1       0.698   4.127  20.028  0.00  0.00    +0.000 F 
ATOM     13  F   UNL     1       2.353   4.477  21.388  0.00  0.00    +0.000 F 
ENDBRANCH   5  10
BRANCH   3  14
ATOM     14  C   UNL     1       4.021   2.689  19.221  0.00  0.00    +0.000 C 
ATOM     15  C   UNL     1       2.678   1.978  19.263  0.00  0.00    +0.000 C 
ATOM     16  C   UNL     1       3.769   1.424  18.414  0.00  0.00    +0.000 C 
ENDBRANCH   3  14
BRANCH   7  17
ATOM     17  C   UNL     1       2.241   9.294  17.861  0.00  0.00    +0.000 C 
ATOM     18  C   UNL     1       0.797   9.740  17.861  0.00  0.00    +0.000 C 
ATOM     19  C   UNL     1       1.705  10.157  18.980  0.00  0.00    +0.000 C 
ENDBRANCH   7  17
BRANCH   1  20
ATOM     20  C   UNL     1       5.883   5.907  16.086  0.00  0.00    +0.000 C 
BRANCH  20  22
ATOM     21  O   UNL     1       7.446   4.652  14.783  0.00  0.00    +0.000 OA
ATOM     22  C   UNL     1       7.111   5.064  15.889  0.00  0.00    +0.000 C 
BRANCH  22  23
ATOM     23  O   UNL     1       7.781   4.675  16.998  0.00  0.00    +0.000 OA
ATOM     24  H   UNL     1       7.618   5.214  17.807  0.00  0.00    +0.000 HD
ENDBRANCH  22  23
ENDBRANCH  20  22
ENDBRANCH   1  20
TORSDOF 6
ENDMDL
MODEL 3
REMARK VINA RESULT:      -7.1      0.672      1.029
REMARK  Name = 
REMARK  6 active torsions:
REMARK  status: ('A' for Active; 'I' for Inactive)
REMARK    1  A    between atoms: C_2  and  O_3
REMARK    2  A    between atoms: C_2  and  C_4
REMARK    3  A    between atoms: C_4  and  N_5
REMARK    4  A    between atoms: C_7  and  C_8
REMARK    5  A    between atoms: C_12  and  C_13
REMARK    6  A    between atoms: C_18  and  C_19
REMARK                            x       y       z     vdW  Elec       q    Type
REMARK                         _______ _______ _______ _____ _____    ______ ____
ROOT
ATOM      1  N   UNL     1       5.186   5.434  17.376  0.00  0.00    +0.000 N 
ATOM      2  N   UNL     1       5.342   4.196  17.854  0.00  0.00    +0.000 NA
ATOM      3  C   UNL     1       4.298   4.025  18.678  0.00  0.00    +0.000 A 
ATOM      4  C   UNL     1       3.457   5.183  18.749  0.00  0.00    +0.000 A 
ATOM      5  C   UNL     1       2.296   5.672  19.393  0.00  0.00    +0.000 A 
ATOM      6  C   UNL     1       1.908   7.001  19.058  0.00  0.00    +0.000 A 
ATOM      7  C   UNL     1       2.623   7.787  18.154  0.00  0.00    +0.000 A 
ATOM      8  N   UNL     1       3.715   7.316  17.519  0.00  0.00    +0.000 NA
ATOM      9  C   UNL     1       4.081   6.068  17.867  0.00  0.00    +0.000 A 
ENDROOT
BRANCH   5  10
ATOM     10  C   UNL     1       1.422   4.971  20.404  0.00  0.00    +0.000 C 
ATOM     11  F   UNL     1       0.637   3.982  19.917  0.00  0.00    +0.000 F 
ATOM     12  F   UNL     1       2.160   4.390  21.393  0.00  0.00    +0.000 F 
ATOM     13  F   UNL     1       0.582   5.837  21.038  0.00  0.00    +0.000 F 
ENDBRANCH   5  10
BRANCH   3  14
ATOM     14  C   UNL     1       4.151   2.693  19.415  0.00  0.00    +0.000 C 
ATOM     15  C   UNL     1       2.825   1.954  19.342  0.00  0.00    +0.000 C 
ATOM     16  C   UNL     1       3.990   1.438  18.571  0.00  0.00    +0.000 C 
ENDBRANCH   3  14
BRANCH   7  17
ATOM     17  C   UNL     1       2.241   9.231  17.912  0.00  0.00    +0.000 C 
ATOM     18  C   UNL     1       0.785   9.629  17.854  0.00  0.00    +0.000 C 
ATOM     19  C   UNL     1       1.636  10.085  19.002  0.00  0.00    +0.000 C 
ENDBRANCH   7  17
BRANCH   1  20
ATOM     20  C   UNL     1       6.222   6.037  16.554  0.00  0.00    +0.000 C 
BRANCH  20  22
ATOM     21  O   UNL     1       7.772   7.812  16.956  0.00  0.00    +0.000 OA
ATOM     22  C   UNL     1       7.294   6.746  17.331  0.00  0.00    +0.000 C 
BRANCH  22  23
ATOM     23  O   UNL     1       7.801   6.109  18.411  0.00  0.00    +0.000 OA
ATOM     24  H   UNL     1       7.299   5.318  18.716  0.00  0.00    +0.000 HD
ENDBRANCH  22  23
ENDBRANCH  20  22
ENDBRANCH   1  20
TORSDOF 6
ENDMDL
MODEL 4
REMARK VINA RESULT:      -6.8      0.529      1.037
REMARK  Name = 
REMARK  6 active torsions:
REMARK  status: ('A' for Active; 'I' for Inactive)
REMARK    1  A    between atoms: C_2  and  O_3
REMARK    2  A    between atoms: C_2  and  C_4
REMARK    3  A    between atoms: C_4  and  N_5
REMARK    4  A    between atoms: C_7  and  C_8
REMARK    5  A    between atoms: C_12  and  C_13
REMARK    6  A    between atoms: C_18  and  C_19
REMARK                            x       y       z     vdW  Elec       q    Type
REMARK                         _______ _______ _______ _____ _____    ______ ____
ROOT
ATOM      1  N   UNL     1       4.675   4.893  16.894  0.00  0.00    +0.000 N 
ATOM      2  N   UNL     1       4.724   3.638  17.353  0.00  0.00    +0.000 NA
ATOM      3  C   UNL     1       3.829   3.616  18.352  0.00  0.00    +0.000 A 
ATOM      4  C   UNL     1       3.199   4.888  18.555  0.00  0.00    +0.000 A 
ATOM      5  C   UNL     1       2.258   5.538  19.388  0.00  0.00    +0.000 A 
ATOM      6  C   UNL     1       2.023   6.914  19.110  0.00  0.00    +0.000 A 
ATOM      7  C   UNL     1       2.677   7.595  18.084  0.00  0.00    +0.000 A 
ATOM      8  N   UNL     1       3.555   6.973  17.271  0.00  0.00    +0.000 NA
ATOM      9  C   UNL     1       3.784   5.679  17.565  0.00  0.00    +0.000 A 
ENDROOT
BRANCH   5  10
ATOM     10  C   UNL     1       1.481   4.963  20.547  0.00  0.00    +0.000 C 
ATOM     11  F   UNL     1       0.743   3.863  20.273  0.00  0.00    +0.000 F 
ATOM     12  F   UNL     1       2.302   4.597  21.574  0.00  0.00    +0.000 F 
ATOM     13  F   UNL     1       0.616   5.871  21.080  0.00  0.00    +0.000 F 
ENDBRANCH   5  10
BRANCH   3  14
ATOM     14  C   UNL     1       3.615   2.312  19.122  0.00  0.00    +0.000 C 
ATOM     15  C   UNL     1       4.809   1.414  19.395  0.00  0.00    +0.000 C 
ATOM     16  C   UNL     1       4.226   2.209  20.511  0.00  0.00    +0.000 C 
ENDBRANCH   3  14
BRANCH   7  17
ATOM     17  C   UNL     1       2.482   9.084  17.893  0.00  0.00    +0.000 C 
ATOM     18  C   UNL     1       1.091   9.649  17.720  0.00  0.00    +0.000 C 
ATOM     19  C   UNL     1       1.864   9.946  18.970  0.00  0.00    +0.000 C 
ENDBRANCH   7  17
BRANCH   1  20
ATOM     20  C   UNL     1       5.628   5.343  15.894  0.00  0.00    +0.000 C 
BRANCH  20  22
ATOM     21  O   UNL     1       7.524   6.655  16.525  0.00  0.00    +0.000 OA
ATOM     22  C   UNL     1       7.023   5.540  16.413  0.00  0.00    +0.000 C 
BRANCH  22  23
ATOM     23  O   UNL     1       7.759   4.430  16.650  0.00  0.00    +0.000 OA
ATOM     24  H   UNL     1       7.490   3.898  17.434  0.00  0.00    +0.000 HD
ENDBRANCH  22  23
ENDBRANCH  20  22
ENDBRANCH   1  20
TORSDOF 6
ENDMDL
MODEL 5
REMARK VINA RESULT:      -6.8      0.925      1.141
REMARK  Name = 
REMARK  6 active torsions:
REMARK  status: ('A' for Active; 'I' for Inactive)
REMARK    1  A    between atoms: C_2  and  O_3
REMARK    2  A    between atoms: C_2  and  C_4
REMARK    3  A    between atoms: C_4  and  N_5
REMARK    4  A    between atoms: C_7  and  C_8
REMARK    5  A    between atoms: C_12  and  C_13
REMARK    6  A    between atoms: C_18  and  C_19
REMARK                            x       y       z     vdW  Elec       q    Type
REMARK                         _______ _______ _______ _____ _____    ______ ____
ROOT
ATOM      1  N   UNL     1       5.415   5.556  17.642  0.00  0.00    +0.000 N 
ATOM      2  N   UNL     1       5.621   4.383  18.246  0.00  0.00    +0.000 NA
ATOM      3  C   UNL     1       4.540   4.217  19.022  0.00  0.00    +0.000 A 
ATOM      4  C   UNL     1       3.623   5.315  18.932  0.00  0.00    +0.000 A 
ATOM      5  C   UNL     1       2.394   5.779  19.457  0.00  0.00    +0.000 A 
ATOM      6  C   UNL     1       1.944   7.039  18.973  0.00  0.00    +0.000 A 
ATOM      7  C   UNL     1       2.662   7.786  18.039  0.00  0.00    +0.000 A 
ATOM      8  N   UNL     1       3.821   7.335  17.516  0.00  0.00    +0.000 NA
ATOM      9  C   UNL     1       4.243   6.154  18.005  0.00  0.00    +0.000 A 
ENDROOT
BRANCH   5  10
ATOM     10  C   UNL     1       1.504   5.116  20.480  0.00  0.00    +0.000 C 
ATOM     11  F   UNL     1       2.141   4.517  21.513  0.00  0.00    +0.000 F 
ATOM     12  F   UNL     1       0.645   6.006  21.056  0.00  0.00    +0.000 F 
ATOM     13  F   UNL     1       0.713   4.157  19.921  0.00  0.00    +0.000 F 
ENDBRANCH   5  10
BRANCH   3  14
ATOM     14  C   UNL     1       4.432   2.953  19.877  0.00  0.00    +0.000 C 
ATOM     15  C   UNL     1       3.168   2.114  19.793  0.00  0.00    +0.000 C 
ATOM     16  C   UNL     1       4.416   1.615  19.152  0.00  0.00    +0.000 C 
ENDBRANCH   3  14
BRANCH   7  17
ATOM     17  C   UNL     1       2.204   9.171  17.635  0.00  0.00    +0.000 C 
ATOM     18  C   UNL     1       0.822   9.651  18.012  0.00  0.00    +0.000 C 
ATOM     19  C   UNL     1       2.026  10.275  18.652  0.00  0.00    +0.000 C 
ENDBRANCH   7  17
BRANCH   1  20
ATOM     20  C   UNL     1       6.460   6.151  16.825  0.00  0.00    +0.000 C 
BRANCH  20  22
ATOM     21  O   UNL     1       8.004   6.558  18.605  0.00  0.00    +0.000 OA
ATOM     22  C   UNL     1       7.450   6.979  17.594  0.00  0.00    +0.000 C 
BRANCH  22  23
ATOM     23  O   UNL     1       7.629   8.260  17.196  0.00  0.00    +0.000 OA
ATOM     24  H   UNL     1       6.917   8.635  16.629  0.00  0.00    +0.000 HD
ENDBRANCH  22  23
ENDBRANCH  20  22
ENDBRANCH   1  20
TORSDOF 6
ENDMDL
MODEL 6
REMARK VINA RESULT:      -6.7      3.072      5.126
REMARK  Name = 
REMARK  6 active torsions:
REMARK  status: ('A' for Active; 'I' for Inactive)
REMARK    1  A    between atoms: C_2  and  O_3
REMARK    2  A    between atoms: C_2  and  C_4
REMARK    3  A    between atoms: C_4  and  N_5
REMARK    4  A    between atoms: C_7  and  C_8
REMARK    5  A    between atoms: C_12  and  C_13
REMARK    6  A    between atoms: C_18  and  C_19
REMARK                            x       y       z     vdW  Elec       q    Type
REMARK                         _______ _______ _______ _____ _____    ______ ____
ROOT
ATOM      1  N   UNL     1       2.879   6.786  18.492  0.00  0.00    +0.000 N 
ATOM      2  N   UNL     1       2.116   6.293  19.472  0.00  0.00    +0.000 NA
ATOM      3  C   UNL     1       2.315   4.968  19.412  0.00  0.00    +0.000 A 
ATOM      4  C   UNL     1       3.213   4.594  18.359  0.00  0.00    +0.000 A 
ATOM      5  C   UNL     1       3.798   3.457  17.753  0.00  0.00    +0.000 A 
ATOM      6  C   UNL     1       4.666   3.712  16.654  0.00  0.00    +0.000 A 
ATOM      7  C   UNL     1       4.931   4.999  16.188  0.00  0.00    +0.000 A 
ATOM      8  N   UNL     1       4.396   6.088  16.780  0.00  0.00    +0.000 NA
ATOM      9  C   UNL     1       3.558   5.826  17.800  0.00  0.00    +0.000 A 
ENDROOT
BRANCH   5  10
ATOM     10  C   UNL     1       3.607   2.003  18.111  0.00  0.00    +0.000 C 
ATOM     11  F   UNL     1       4.110   1.622  19.308  0.00  0.00    +0.000 F 
ATOM     12  F   UNL     1       2.286   1.662  18.152  0.00  0.00    +0.000 F 
ATOM     13  F   UNL     1       4.168   1.173  17.188  0.00  0.00    +0.000 F 
ENDBRANCH   5  10
BRANCH   3  14
ATOM     14  C   UNL     1       1.586   4.066  20.408  0.00  0.00    +0.000 C 
ATOM     15  C   UNL     1       2.317   2.867  20.987  0.00  0.00    +0.000 C 
ATOM     16  C   UNL     1       2.084   4.061  21.845  0.00  0.00    +0.000 C 
ENDBRANCH   3  14
BRANCH   7  17
ATOM     17  C   UNL     1       5.770   5.219  14.948  0.00  0.00    +0.000 C 
ATOM     18  C   UNL     1       7.149   4.609  14.850  0.00  0.00    +0.000 C 
ATOM     19  C   UNL     1       6.047   4.100  13.970  0.00  0.00    +0.000 C 
ENDBRANCH   7  17
BRANCH   1  20
ATOM     20  C   UNL     1       2.807   8.196  18.148  0.00  0.00    +0.000 C 
BRANCH  20  22
ATOM     21  O   UNL     1       0.800   9.458  17.837  0.00  0.00    +0.000 OA
ATOM     22  C   UNL     1       1.555   8.884  18.615  0.00  0.00    +0.000 C 
BRANCH  22  23
ATOM     23  O   UNL     1       1.343   8.947  19.949  0.00  0.00    +0.000 OA
ATOM     24  H   UNL     1       0.513   9.398  20.230  0.00  0.00    +0.000 HD
ENDBRANCH  22  23
ENDBRANCH  20  22
ENDBRANCH   1  20
TORSDOF 6
ENDMDL
MODEL 7
REMARK VINA RESULT:      -6.7      3.278      5.150
REMARK  Name = 
REMARK  6 active torsions:
REMARK  status: ('A' for Active; 'I' for Inactive)
REMARK    1  A    between atoms: C_2  and  O_3
REMARK    2  A    between atoms: C_2  and  C_4
REMARK    3  A    between atoms: C_4  and  N_5
REMARK    4  A    between atoms: C_7  and  C_8
REMARK    5  A    between atoms: C_12  and  C_13
REMARK    6  A    between atoms: C_18  and  C_19
REMARK                            x       y       z     vdW  Elec       q    Type
REMARK                         _______ _______ _______ _____ _____    ______ ____
ROOT
ATOM      1  N   UNL     1       2.415   6.403  19.238  0.00  0.00    +0.000 N 
ATOM      2  N   UNL     1       1.628   5.689  20.048  0.00  0.00    +0.000 NA
ATOM      3  C   UNL     1       1.942   4.414  19.775  0.00  0.00    +0.000 A 
ATOM      4  C   UNL     1       2.942   4.300  18.753  0.00  0.00    +0.000 A 
ATOM      5  C   UNL     1       3.662   3.335  18.010  0.00  0.00    +0.000 A 
ATOM      6  C   UNL     1       4.581   3.845  17.050  0.00  0.00    +0.000 A 
ATOM      7  C   UNL     1       4.769   5.211  16.841  0.00  0.00    +0.000 A 
ATOM      8  N   UNL     1       4.104   6.134  17.565  0.00  0.00    +0.000 NA
ATOM      9  C   UNL     1       3.220   5.634  18.449  0.00  0.00    +0.000 A 
ENDROOT
BRANCH   5  10
ATOM     10  C   UNL     1       3.569   1.831  18.092  0.00  0.00    +0.000 C 
ATOM     11  F   UNL     1       4.196   1.148  17.106  0.00  0.00    +0.000 F 
ATOM     12  F   UNL     1       4.103   1.355  19.254  0.00  0.00    +0.000 F 
ATOM     13  F   UNL     1       2.277   1.400  18.083  0.00  0.00    +0.000 F 
ENDBRANCH   5  10
BRANCH   3  14
ATOM     14  C   UNL     1       1.223   3.298  20.533  0.00  0.00    +0.000 C 
ATOM     15  C   UNL     1       2.041   2.159  21.117  0.00  0.00    +0.000 C 
ATOM     16  C   UNL     1       1.474   3.190  22.029  0.00  0.00    +0.000 C 
ENDBRANCH   3  14
BRANCH   7  17
ATOM     17  C   UNL     1       5.673   5.709  15.734  0.00  0.00    +0.000 C 
ATOM     18  C   UNL     1       6.947   4.966  15.405  0.00  0.00    +0.000 C 
ATOM     19  C   UNL     1       5.810   4.963  14.427  0.00  0.00    +0.000 C 
ENDBRANCH   7  17
BRANCH   1  20
ATOM     20  C   UNL     1       2.248   7.844  19.140  0.00  0.00    +0.000 C 
BRANCH  20  22
ATOM     21  O   UNL     1       0.666   9.343  20.122  0.00  0.00    +0.000 OA
ATOM     22  C   UNL     1       1.501   8.459  20.288  0.00  0.00    +0.000 C 
BRANCH  22  23
ATOM     23  O   UNL     1       1.862   8.083  21.536  0.00  0.00    +0.000 OA
ATOM     24  H   UNL     1       1.333   8.474  22.270  0.00  0.00    +0.000 HD
ENDBRANCH  22  23
ENDBRANCH  20  22
ENDBRANCH   1  20
TORSDOF 6
ENDMDL
MODEL 8
REMARK VINA RESULT:      -6.7      1.024      1.192
REMARK  Name = 
REMARK  6 active torsions:
REMARK  status: ('A' for Active; 'I' for Inactive)
REMARK    1  A    between atoms: C_2  and  O_3
REMARK    2  A    between atoms: C_2  and  C_4
REMARK    3  A    between atoms: C_4  and  N_5
REMARK    4  A    between atoms: C_7  and  C_8
REMARK    5  A    between atoms: C_12  and  C_13
REMARK    6  A    between atoms: C_18  and  C_19
REMARK                            x       y       z     vdW  Elec       q    Type
REMARK                         _______ _______ _______ _____ _____    ______ ____
ROOT
ATOM      1  N   UNL     1       4.471   4.991  16.673  0.00  0.00    +0.000 N 
ATOM      2  N   UNL     1       4.460   3.655  16.715  0.00  0.00    +0.000 NA
ATOM      3  C   UNL     1       3.532   3.361  17.638  0.00  0.00    +0.000 A 
ATOM      4  C   UNL     1       2.942   4.531  18.218  0.00  0.00    +0.000 A 
ATOM      5  C   UNL     1       1.998   4.929  19.195  0.00  0.00    +0.000 A 
ATOM      6  C   UNL     1       1.823   6.332  19.359  0.00  0.00    +0.000 A 
ATOM      7  C   UNL     1       2.534   7.271  18.612  0.00  0.00    +0.000 A 
ATOM      8  N   UNL     1       3.415   6.896  17.662  0.00  0.00    +0.000 NA
ATOM      9  C   UNL     1       3.587   5.566  17.539  0.00  0.00    +0.000 A 
ENDROOT
BRANCH   5  10
ATOM     10  C   UNL     1       1.163   4.056  20.099  0.00  0.00    +0.000 C 
ATOM     11  F   UNL     1       1.817   3.493  21.141  0.00  0.00    +0.000 F 
ATOM     12  F   UNL     1       0.128   4.749  20.656  0.00  0.00    +0.000 F 
ATOM     13  F   UNL     1       0.586   3.025  19.419  0.00  0.00    +0.000 F 
ENDBRANCH   5  10
BRANCH   3  14
ATOM     14  C   UNL     1       3.245   1.892  17.954  0.00  0.00    +0.000 C 
ATOM     15  C   UNL     1       4.411   0.958  18.229  0.00  0.00    +0.000 C 
ATOM     16  C   UNL     1       3.554   1.405  19.362  0.00  0.00    +0.000 C 
ENDBRANCH   3  14
BRANCH   7  17
ATOM     17  C   UNL     1       2.399   8.752  18.895  0.00  0.00    +0.000 C 
ATOM     18  C   UNL     1       2.040   9.706  17.780  0.00  0.00    +0.000 C 
ATOM     19  C   UNL     1       1.055   9.442  18.880  0.00  0.00    +0.000 C 
ENDBRANCH   7  17
BRANCH   1  20
ATOM     20  C   UNL     1       5.472   5.689  15.884  0.00  0.00    +0.000 C 
BRANCH  20  22
ATOM     21  O   UNL     1       7.621   5.137  14.993  0.00  0.00    +0.000 OA
ATOM     22  C   UNL     1       6.842   5.076  15.940  0.00  0.00    +0.000 C 
BRANCH  22  23
ATOM     23  O   UNL     1       7.152   4.349  17.037  0.00  0.00    +0.000 OA
ATOM     24  H   UNL     1       6.400   3.876  17.464  0.00  0.00    +0.000 HD
ENDBRANCH  22  23
ENDBRANCH  20  22
ENDBRANCH   1  20
TORSDOF 6
ENDMDL
MODEL 9
REMARK VINA RESULT:      -6.6      1.002      1.113
REMARK  Name = 
REMARK  6 active torsions:
REMARK  status: ('A' for Active; 'I' for Inactive)
REMARK    1  A    between atoms: C_2  and  O_3
REMARK    2  A    between atoms: C_2  and  C_4
REMARK    3  A    between atoms: C_4  and  N_5
REMARK    4  A    between atoms: C_7  and  C_8
REMARK    5  A    between atoms: C_12  and  C_13
REMARK    6  A    between atoms: C_18  and  C_19
REMARK                            x       y       z     vdW  Elec       q    Type
REMARK                         _______ _______ _______ _____ _____    ______ ____
ROOT
ATOM      1  N   UNL     1       5.591   5.401  17.879  0.00  0.00    +0.000 N 
ATOM      2  N   UNL     1       5.761   4.238  18.515  0.00  0.00    +0.000 NA
ATOM      3  C   UNL     1       4.637   4.084  19.230  0.00  0.00    +0.000 A 
ATOM      4  C   UNL     1       3.726   5.179  19.067  0.00  0.00    +0.000 A 
ATOM      5  C   UNL     1       2.468   5.652  19.511  0.00  0.00    +0.000 A 
ATOM      6  C   UNL     1       2.047   6.903  18.980  0.00  0.00    +0.000 A 
ATOM      7  C   UNL     1       2.819   7.634  18.076  0.00  0.00    +0.000 A 
ATOM      8  N   UNL     1       4.006   7.175  17.630  0.00  0.00    +0.000 NA
ATOM      9  C   UNL     1       4.400   6.003  18.163  0.00  0.00    +0.000 A 
ENDROOT
BRANCH   5  10
ATOM     10  C   UNL     1       1.521   5.005  20.492  0.00  0.00    +0.000 C 
ATOM     11  F   UNL     1       2.094   4.444  21.581  0.00  0.00    +0.000 F 
ATOM     12  F   UNL     1       0.615   5.900  20.984  0.00  0.00    +0.000 F 
ATOM     13  F   UNL     1       0.780   4.021  19.910  0.00  0.00    +0.000 F 
ENDBRANCH   5  10
BRANCH   3  14
ATOM     14  C   UNL     1       4.479   2.836  20.098  0.00  0.00    +0.000 C 
ATOM     15  C   UNL     1       3.238   1.975  19.932  0.00  0.00    +0.000 C 
ATOM     16  C   UNL     1       4.540   1.484  19.402  0.00  0.00    +0.000 C 
ENDBRANCH   3  14
BRANCH   7  17
ATOM     17  C   UNL     1       2.385   9.011  17.622  0.00  0.00    +0.000 C 
ATOM     18  C   UNL     1       0.952   9.453  17.811  0.00  0.00    +0.000 C 
ATOM     19  C   UNL     1       2.043  10.100  18.612  0.00  0.00    +0.000 C 
ENDBRANCH   7  17
BRANCH   1  20
ATOM     20  C   UNL     1       6.682   5.983  17.115  0.00  0.00    +0.000 C 
BRANCH  20  22
ATOM     21  O   UNL     1       7.586   5.236  15.031  0.00  0.00    +0.000 OA
ATOM     22  C   UNL     1       6.626   5.697  15.641  0.00  0.00    +0.000 C 
BRANCH  22  23
ATOM     23  O   UNL     1       5.508   6.071  14.978  0.00  0.00    +0.000 OA
ATOM     24  H   UNL     1       4.664   5.985  15.480  0.00  0.00    +0.000 HD
ENDBRANCH  22  23
ENDBRANCH  20  22
ENDBRANCH   1  20
TORSDOF 6
ENDMDL
