MODEL 1
REMARK VINA RESULT:      -8.3      0.000      0.000
REMARK  Name = 
REMARK  8 active torsions:
REMARK  status: ('A' for Active; 'I' for Inactive)
REMARK    1  A    between atoms: C_1  and  O_2
REMARK    2  A    between atoms: O_2  and  C_3
REMARK    3  A    between atoms: C_9  and  C_10
REMARK    4  A    between atoms: C_10  and  C_11
REMARK    5  A    between atoms: C_10  and  C_20
REMARK    6  A    between atoms: C_16  and  N_17
REMARK    7  A    between atoms: C_26  and  O_27
REMARK    8  A    between atoms: O_27  and  C_28
REMARK                            x       y       z     vdW  Elec       q    Type
REMARK                         _______ _______ _______ _____ _____    ______ ____
ROOT
ATOM      1  C   UNL     1       3.732   5.606  19.476  0.00  0.00    +0.000 C 
ENDROOT
BRANCH   1   8
ATOM      2  C   UNL     1       0.582   8.689  21.232  0.00  0.00    +0.000 A 
ATOM      3  C   UNL     1       0.277   9.710  20.334  0.00  0.00    +0.000 A 
ATOM      4  C   UNL     1       0.878   9.762  19.073  0.00  0.00    +0.000 A 
ATOM      5  C   UNL     1       1.797   8.760  18.746  0.00  0.00    +0.000 A 
ATOM      6  N   UNL     1       2.543   8.598  17.608  0.00  0.00    +0.000 N 
ATOM      7  C   UNL     1       3.335   7.495  17.719  0.00  0.00    +0.000 A 
ATOM      8  C   UNL     1       3.082   6.876  18.938  0.00  0.00    +0.000 A 
ATOM      9  C   UNL     1       2.116   7.707  19.607  0.00  0.00    +0.000 A 
ATOM     10  C   UNL     1       1.484   7.676  20.869  0.00  0.00    +0.000 A 
ATOM     11  H   UNL     1       2.523   9.224  16.813  0.00  0.00    +0.000 HD
BRANCH   2  13
ATOM     12  C   UNL     1      -0.398   9.753  23.118  0.00  0.00    +0.000 C 
ATOM     13  O   UNL     1       0.061   8.561  22.493  0.00  0.00    +0.000 OA
ENDBRANCH   2  13
ENDBRANCH   1   8
BRANCH   1  14
ATOM     14  C   UNL     1       5.170   5.419  19.007  0.00  0.00    +0.000 A 
ATOM     15  C   UNL     1       6.355   5.484  19.727  0.00  0.00    +0.000 A 
ATOM     16  N   UNL     1       7.381   5.057  18.930  0.00  0.00    +0.000 N 
ATOM     17  C   UNL     1       6.921   4.791  17.666  0.00  0.00    +0.000 A 
ATOM     18  C   UNL     1       7.600   4.302  16.545  0.00  0.00    +0.000 A 
ATOM     19  C   UNL     1       6.875   4.152  15.357  0.00  0.00    +0.000 A 
ATOM     20  C   UNL     1       5.528   4.502  15.286  0.00  0.00    +0.000 A 
ATOM     21  C   UNL     1       4.866   4.971  16.430  0.00  0.00    +0.000 A 
ATOM     22  C   UNL     1       5.561   5.095  17.654  0.00  0.00    +0.000 A 
ATOM     23  H   UNL     1       8.340   4.942  19.228  0.00  0.00    +0.000 HD
BRANCH  20  24
ATOM     24  O   UNL     1       4.742   4.427  14.166  0.00  0.00    +0.000 OA
ATOM     25  C   UNL     1       5.286   3.749  13.042  0.00  0.00    +0.000 C 
ENDBRANCH  20  24
ENDBRANCH   1  14
BRANCH   1  26
ATOM     26  C   UNL     1       2.871   4.460  18.930  0.00  0.00    +0.000 A 
ATOM     27  C   UNL     1       1.957   4.676  17.870  0.00  0.00    +0.000 A 
ATOM     28  C   UNL     1       1.140   3.659  17.368  0.00  0.00    +0.000 A 
ATOM     29  C   UNL     1       1.195   2.384  17.916  0.00  0.00    +0.000 A 
ATOM     30  C   UNL     1       2.083   2.122  18.957  0.00  0.00    +0.000 A 
ATOM     31  C   UNL     1       2.913   3.148  19.447  0.00  0.00    +0.000 A 
BRANCH  31  32
ATOM     32  N   UNL     1       3.840   2.768  20.501  0.00  0.00    +0.000 N 
ATOM     33  O   UNL     1       4.978   2.418  20.158  0.00  0.00    +0.000 OA
ATOM     34  O   UNL     1       3.412   2.774  21.662  0.00  0.00    +0.000 OA
ENDBRANCH  31  32
ENDBRANCH   1  26
TORSDOF 6
ENDMDL
MODEL 2
REMARK VINA RESULT:      -8.3      7.692      9.965
REMARK  Name = 
REMARK  8 active torsions:
REMARK  status: ('A' for Active; 'I' for Inactive)
REMARK    1  A    between atoms: C_1  and  O_2
REMARK    2  A    between atoms: O_2  and  C_3
REMARK    3  A    between atoms: C_9  and  C_10
REMARK    4  A    between atoms: C_10  and  C_11
REMARK    5  A    between atoms: C_10  and  C_20
REMARK    6  A    between atoms: C_16  and  N_17
REMARK    7  A    between atoms: C_26  and  O_27
REMARK    8  A    between atoms: O_27  and  C_28
REMARK                            x       y       z     vdW  Elec       q    Type
REMARK                         _______ _______ _______ _____ _____    ______ ____
ROOT
ATOM      1  C   UNL     1      -1.007  12.751  20.185  0.00  0.00    +0.000 C 
ENDROOT
BRANCH   1   8
ATOM      2  C   UNL     1      -5.502  11.747  19.042  0.00  0.00    +0.000 A 
ATOM      3  C   UNL     1      -5.631  11.291  17.732  0.00  0.00    +0.000 A 
ATOM      4  C   UNL     1      -4.514  11.174  16.898  0.00  0.00    +0.000 A 
ATOM      5  C   UNL     1      -3.269  11.534  17.421  0.00  0.00    +0.000 A 
ATOM      6  N   UNL     1      -2.039  11.548  16.816  0.00  0.00    +0.000 N 
ATOM      7  C   UNL     1      -1.093  11.997  17.687  0.00  0.00    +0.000 A 
ATOM      8  C   UNL     1      -1.690  12.246  18.917  0.00  0.00    +0.000 A 
ATOM      9  C   UNL     1      -3.092  11.976  18.735  0.00  0.00    +0.000 A 
ATOM     10  C   UNL     1      -4.237  12.074  19.555  0.00  0.00    +0.000 A 
ATOM     11  H   UNL     1      -1.868  11.284  15.855  0.00  0.00    +0.000 HD
BRANCH   2  13
ATOM     12  C   UNL     1      -6.197  12.413  21.216  0.00  0.00    +0.000 C 
ATOM     13  O   UNL     1      -6.535  11.914  19.928  0.00  0.00    +0.000 OA
ENDBRANCH   2  13
ENDBRANCH   1   8
BRANCH   1  14
ATOM     14  C   UNL     1       0.327  13.438  19.918  0.00  0.00    +0.000 A 
ATOM     15  C   UNL     1       1.620  12.974  20.119  0.00  0.00    +0.000 A 
ATOM     16  N   UNL     1       2.499  13.857  19.554  0.00  0.00    +0.000 N 
ATOM     17  C   UNL     1       1.826  14.943  19.056  0.00  0.00    +0.000 A 
ATOM     18  C   UNL     1       2.307  16.062  18.369  0.00  0.00    +0.000 A 
ATOM     19  C   UNL     1       1.384  17.048  17.998  0.00  0.00    +0.000 A 
ATOM     20  C   UNL     1       0.034  16.929  18.325  0.00  0.00    +0.000 A 
ATOM     21  C   UNL     1      -0.425  15.787  18.998  0.00  0.00    +0.000 A 
ATOM     22  C   UNL     1       0.476  14.757  19.349  0.00  0.00    +0.000 A 
ATOM     23  H   UNL     1       3.499  13.727  19.500  0.00  0.00    +0.000 HD
BRANCH  20  24
ATOM     24  O   UNL     1      -0.940  17.849  18.041  0.00  0.00    +0.000 OA
ATOM     25  C   UNL     1      -1.929  18.068  19.038  0.00  0.00    +0.000 C 
ENDBRANCH  20  24
ENDBRANCH   1  14
BRANCH   1  26
ATOM     26  C   UNL     1      -0.767  11.494  21.030  0.00  0.00    +0.000 A 
ATOM     27  C   UNL     1      -0.333  10.286  20.434  0.00  0.00    +0.000 A 
ATOM     28  C   UNL     1      -0.131   9.117  21.173  0.00  0.00    +0.000 A 
ATOM     29  C   UNL     1      -0.368   9.106  22.541  0.00  0.00    +0.000 A 
ATOM     30  C   UNL     1      -0.791  10.273  23.174  0.00  0.00    +0.000 A 
ATOM     31  C   UNL     1      -0.979  11.449  22.424  0.00  0.00    +0.000 A 
BRANCH  31  32
ATOM     32  N   UNL     1      -1.375  12.628  23.179  0.00  0.00    +0.000 N 
ATOM     33  O   UNL     1      -2.582  12.772  23.416  0.00  0.00    +0.000 OA
ATOM     34  O   UNL     1      -0.483  13.428  23.489  0.00  0.00    +0.000 OA
ENDBRANCH  31  32
ENDBRANCH   1  26
TORSDOF 6
ENDMDL
MODEL 3
REMARK VINA RESULT:      -7.9      7.437      9.585
REMARK  Name = 
REMARK  8 active torsions:
REMARK  status: ('A' for Active; 'I' for Inactive)
REMARK    1  A    between atoms: C_1  and  O_2
REMARK    2  A    between atoms: O_2  and  C_3
REMARK    3  A    between atoms: C_9  and  C_10
REMARK    4  A    between atoms: C_10  and  C_11
REMARK    5  A    between atoms: C_10  and  C_20
REMARK    6  A    between atoms: C_16  and  N_17
REMARK    7  A    between atoms: C_26  and  O_27
REMARK    8  A    between atoms: O_27  and  C_28
REMARK                            x       y       z     vdW  Elec       q    Type
REMARK                         _______ _______ _______ _____ _____    ______ ____
ROOT
ATOM      1  C   UNL     1      -0.690  12.539  19.830  0.00  0.00    +0.000 C 
ENDROOT
BRANCH   1   8
ATOM      2  C   UNL     1      -5.420  12.249  20.084  0.00  0.00    +0.000 A 
ATOM      3  C   UNL     1      -5.991  11.790  18.899  0.00  0.00    +0.000 A 
ATOM      4  C   UNL     1      -5.196  11.476  17.792  0.00  0.00    +0.000 A 
ATOM      5  C   UNL     1      -3.813  11.642  17.914  0.00  0.00    +0.000 A 
ATOM      6  N   UNL     1      -2.826  11.443  16.984  0.00  0.00    +0.000 N 
ATOM      7  C   UNL     1      -1.611  11.753  17.517  0.00  0.00    +0.000 A 
ATOM      8  C   UNL     1      -1.779  12.123  18.846  0.00  0.00    +0.000 A 
ATOM      9  C   UNL     1      -3.198  12.079  19.089  0.00  0.00    +0.000 A 
ATOM     10  C   UNL     1      -4.026  12.379  20.193  0.00  0.00    +0.000 A 
ATOM     11  H   UNL     1      -2.983  11.134  16.034  0.00  0.00    +0.000 HD
BRANCH   2  13
ATOM     12  C   UNL     1      -7.365  11.959  21.419  0.00  0.00    +0.000 C 
ATOM     13  O   UNL     1      -6.113  12.600  21.214  0.00  0.00    +0.000 OA
ENDBRANCH   2  13
ENDBRANCH   1   8
BRANCH   1  14
ATOM     14  C   UNL     1       0.666  12.756  19.171  0.00  0.00    +0.000 A 
ATOM     15  C   UNL     1       1.529  11.836  18.592  0.00  0.00    +0.000 A 
ATOM     16  N   UNL     1       2.535  12.511  17.956  0.00  0.00    +0.000 N 
ATOM     17  C   UNL     1       2.410  13.859  18.171  0.00  0.00    +0.000 A 
ATOM     18  C   UNL     1       3.180  14.923  17.690  0.00  0.00    +0.000 A 
ATOM     19  C   UNL     1       2.838  16.216  18.102  0.00  0.00    +0.000 A 
ATOM     20  C   UNL     1       1.779  16.435  18.981  0.00  0.00    +0.000 A 
ATOM     21  C   UNL     1       1.009  15.353  19.433  0.00  0.00    +0.000 A 
ATOM     22  C   UNL     1       1.306  14.041  19.003  0.00  0.00    +0.000 A 
ATOM     23  H   UNL     1       3.260  12.083  17.398  0.00  0.00    +0.000 HD
BRANCH  20  24
ATOM     24  O   UNL     1       1.386  17.654  19.470  0.00  0.00    +0.000 OA
ATOM     25  C   UNL     1       0.768  18.547  18.552  0.00  0.00    +0.000 C 
ENDBRANCH  20  24
ENDBRANCH   1  14
BRANCH   1  26
ATOM     26  C   UNL     1      -0.588  11.374  20.822  0.00  0.00    +0.000 A 
ATOM     27  C   UNL     1      -0.299  10.061  20.377  0.00  0.00    +0.000 A 
ATOM     28  C   UNL     1      -0.226   8.973  21.253  0.00  0.00    +0.000 A 
ATOM     29  C   UNL     1      -0.452   9.154  22.611  0.00  0.00    +0.000 A 
ATOM     30  C   UNL     1      -0.734  10.429  23.097  0.00  0.00    +0.000 A 
ATOM     31  C   UNL     1      -0.792  11.521  22.210  0.00  0.00    +0.000 A 
BRANCH  31  32
ATOM     32  N   UNL     1      -1.045  12.818  22.815  0.00  0.00    +0.000 N 
ATOM     33  O   UNL     1      -2.226  13.125  23.031  0.00  0.00    +0.000 OA
ATOM     34  O   UNL     1      -0.066  13.546  23.027  0.00  0.00    +0.000 OA
ENDBRANCH  31  32
ENDBRANCH   1  26
TORSDOF 6
ENDMDL
MODEL 4
REMARK VINA RESULT:      -7.7      4.785      8.408
REMARK  Name = 
REMARK  8 active torsions:
REMARK  status: ('A' for Active; 'I' for Inactive)
REMARK    1  A    between atoms: C_1  and  O_2
REMARK    2  A    between atoms: O_2  and  C_3
REMARK    3  A    between atoms: C_9  and  C_10
REMARK    4  A    between atoms: C_10  and  C_11
REMARK    5  A    between atoms: C_10  and  C_20
REMARK    6  A    between atoms: C_16  and  N_17
REMARK    7  A    between atoms: C_26  and  O_27
REMARK    8  A    between atoms: O_27  and  C_28
REMARK                            x       y       z     vdW  Elec       q    Type
REMARK                         _______ _______ _______ _____ _____    ______ ____
ROOT
ATOM      1  C   UNL     1       0.410  10.943  19.513  0.00  0.00    +0.000 C 
ENDROOT
BRANCH   1   8
ATOM      2  C   UNL     1      -3.998  12.645  19.944  0.00  0.00    +0.000 A 
ATOM      3  C   UNL     1      -4.848  12.186  18.940  0.00  0.00    +0.000 A 
ATOM      4  C   UNL     1      -4.382  11.327  17.940  0.00  0.00    +0.000 A 
ATOM      5  C   UNL     1      -3.037  10.948  17.981  0.00  0.00    +0.000 A 
ATOM      6  N   UNL     1      -2.327  10.155  17.117  0.00  0.00    +0.000 N 
ATOM      7  C   UNL     1      -1.029  10.068  17.519  0.00  0.00    +0.000 A 
ATOM      8  C   UNL     1      -0.872  10.779  18.702  0.00  0.00    +0.000 A 
ATOM      9  C   UNL     1      -2.156  11.366  18.981  0.00  0.00    +0.000 A 
ATOM     10  C   UNL     1      -2.659  12.226  19.982  0.00  0.00    +0.000 A 
ATOM     11  H   UNL     1      -2.712   9.719  16.289  0.00  0.00    +0.000 HD
BRANCH   2  13
ATOM     12  C   UNL     1      -4.646  12.915  22.215  0.00  0.00    +0.000 C 
ATOM     13  O   UNL     1      -4.354  13.501  20.954  0.00  0.00    +0.000 OA
ENDBRANCH   2  13
ENDBRANCH   1   8
BRANCH   1  14
ATOM     14  C   UNL     1       1.320  12.046  18.985  0.00  0.00    +0.000 A 
ATOM     15  C   UNL     1       2.385  11.970  18.097  0.00  0.00    +0.000 A 
ATOM     16  N   UNL     1       2.776  13.239  17.766  0.00  0.00    +0.000 N 
ATOM     17  C   UNL     1       2.052  14.159  18.479  0.00  0.00    +0.000 A 
ATOM     18  C   UNL     1       2.086  15.557  18.439  0.00  0.00    +0.000 A 
ATOM     19  C   UNL     1       1.245  16.256  19.314  0.00  0.00    +0.000 A 
ATOM     20  C   UNL     1       0.418  15.581  20.211  0.00  0.00    +0.000 A 
ATOM     21  C   UNL     1       0.389  14.179  20.217  0.00  0.00    +0.000 A 
ATOM     22  C   UNL     1       1.197  13.447  19.319  0.00  0.00    +0.000 A 
ATOM     23  H   UNL     1       3.487  13.469  17.087  0.00  0.00    +0.000 HD
BRANCH  20  24
ATOM     24  O   UNL     1      -0.413  16.169  21.128  0.00  0.00    +0.000 OA
ATOM     25  C   UNL     1      -1.805  15.917  20.990  0.00  0.00    +0.000 C 
ENDBRANCH  20  24
ENDBRANCH   1  14
BRANCH   1  26
ATOM     26  C   UNL     1       1.130   9.595  19.391  0.00  0.00    +0.000 A 
ATOM     27  C   UNL     1       1.709   9.185  18.165  0.00  0.00    +0.000 A 
ATOM     28  C   UNL     1       2.349   7.951  18.015  0.00  0.00    +0.000 A 
ATOM     29  C   UNL     1       2.425   7.069  19.084  0.00  0.00    +0.000 A 
ATOM     30  C   UNL     1       1.875   7.430  20.313  0.00  0.00    +0.000 A 
ATOM     31  C   UNL     1       1.245   8.681  20.459  0.00  0.00    +0.000 A 
BRANCH  31  32
ATOM     32  N   UNL     1       0.744   8.988  21.789  0.00  0.00    +0.000 N 
ATOM     33  O   UNL     1       1.542   9.485  22.597  0.00  0.00    +0.000 OA
ATOM     34  O   UNL     1      -0.431   8.687  22.036  0.00  0.00    +0.000 OA
ENDBRANCH  31  32
ENDBRANCH   1  26
TORSDOF 6
ENDMDL
MODEL 5
REMARK VINA RESULT:      -7.6      4.993      9.005
REMARK  Name = 
REMARK  8 active torsions:
REMARK  status: ('A' for Active; 'I' for Inactive)
REMARK    1  A    between atoms: C_1  and  O_2
REMARK    2  A    between atoms: O_2  and  C_3
REMARK    3  A    between atoms: C_9  and  C_10
REMARK    4  A    between atoms: C_10  and  C_11
REMARK    5  A    between atoms: C_10  and  C_20
REMARK    6  A    between atoms: C_16  and  N_17
REMARK    7  A    between atoms: C_26  and  O_27
REMARK    8  A    between atoms: O_27  and  C_28
REMARK                            x       y       z     vdW  Elec       q    Type
REMARK                         _______ _______ _______ _____ _____    ______ ____
ROOT
ATOM      1  C   UNL     1      -0.426  10.952  19.671  0.00  0.00    +0.000 C 
ENDROOT
BRANCH   1   8
ATOM      2  C   UNL     1      -4.858  12.566  19.157  0.00  0.00    +0.000 A 
ATOM      3  C   UNL     1      -5.469  12.090  17.998  0.00  0.00    +0.000 A 
ATOM      4  C   UNL     1      -4.786  11.239  17.123  0.00  0.00    +0.000 A 
ATOM      5  C   UNL     1      -3.473  10.887  17.448  0.00  0.00    +0.000 A 
ATOM      6  N   UNL     1      -2.582  10.107  16.756  0.00  0.00    +0.000 N 
ATOM      7  C   UNL     1      -1.396  10.046  17.423  0.00  0.00    +0.000 A 
ATOM      8  C   UNL     1      -1.505  10.761  18.610  0.00  0.00    +0.000 A 
ATOM      9  C   UNL     1      -2.830  11.323  18.609  0.00  0.00    +0.000 A 
ATOM     10  C   UNL     1      -3.549  12.174  19.477  0.00  0.00    +0.000 A 
ATOM     11  H   UNL     1      -2.775   9.663  15.868  0.00  0.00    +0.000 HD
BRANCH   2  13
ATOM     12  C   UNL     1      -4.702  13.671  21.255  0.00  0.00    +0.000 C 
ATOM     13  O   UNL     1      -5.435  13.416  20.065  0.00  0.00    +0.000 OA
ENDBRANCH   2  13
ENDBRANCH   1   8
BRANCH   1  14
ATOM     14  C   UNL     1       0.302  12.285  19.557  0.00  0.00    +0.000 A 
ATOM     15  C   UNL     1       1.065  12.795  18.515  0.00  0.00    +0.000 A 
ATOM     16  N   UNL     1       1.355  14.105  18.778  0.00  0.00    +0.000 N 
ATOM     17  C   UNL     1       0.878  14.457  20.014  0.00  0.00    +0.000 A 
ATOM     18  C   UNL     1       0.912  15.690  20.674  0.00  0.00    +0.000 A 
ATOM     19  C   UNL     1       0.366  15.756  21.962  0.00  0.00    +0.000 A 
ATOM     20  C   UNL     1      -0.172  14.626  22.575  0.00  0.00    +0.000 A 
ATOM     21  C   UNL     1      -0.212  13.407  21.883  0.00  0.00    +0.000 A 
ATOM     22  C   UNL     1       0.295  13.318  20.568  0.00  0.00    +0.000 A 
ATOM     23  H   UNL     1       1.842  14.730  18.151  0.00  0.00    +0.000 HD
BRANCH  20  24
ATOM     24  O   UNL     1      -0.697  14.578  23.840  0.00  0.00    +0.000 OA
ATOM     25  C   UNL     1      -2.071  14.231  23.954  0.00  0.00    +0.000 C 
ENDBRANCH  20  24
ENDBRANCH   1  14
BRANCH   1  26
ATOM     26  C   UNL     1       0.570   9.811  19.431  0.00  0.00    +0.000 A 
ATOM     27  C   UNL     1       1.196   9.643  18.171  0.00  0.00    +0.000 A 
ATOM     28  C   UNL     1       2.088   8.598  17.913  0.00  0.00    +0.000 A 
ATOM     29  C   UNL     1       2.382   7.669  18.902  0.00  0.00    +0.000 A 
ATOM     30  C   UNL     1       1.795   7.796  20.159  0.00  0.00    +0.000 A 
ATOM     31  C   UNL     1       0.908   8.859  20.415  0.00  0.00    +0.000 A 
BRANCH  31  32
ATOM     32  N   UNL     1       0.383   8.937  21.769  0.00  0.00    +0.000 N 
ATOM     33  O   UNL     1       1.033   9.593  22.595  0.00  0.00    +0.000 OA
ATOM     34  O   UNL     1      -0.651   8.301  22.014  0.00  0.00    +0.000 OA
ENDBRANCH  31  32
ENDBRANCH   1  26
TORSDOF 6
ENDMDL
MODEL 6
REMARK VINA RESULT:      -7.6      5.611      9.377
REMARK  Name = 
REMARK  8 active torsions:
REMARK  status: ('A' for Active; 'I' for Inactive)
REMARK    1  A    between atoms: C_1  and  O_2
REMARK    2  A    between atoms: O_2  and  C_3
REMARK    3  A    between atoms: C_9  and  C_10
REMARK    4  A    between atoms: C_10  and  C_11
REMARK    5  A    between atoms: C_10  and  C_20
REMARK    6  A    between atoms: C_16  and  N_17
REMARK    7  A    between atoms: C_26  and  O_27
REMARK    8  A    between atoms: O_27  and  C_28
REMARK                            x       y       z     vdW  Elec       q    Type
REMARK                         _______ _______ _______ _____ _____    ______ ____
ROOT
ATOM      1  C   UNL     1      -0.170  11.860  19.428  0.00  0.00    +0.000 C 
ENDROOT
BRANCH   1   8
ATOM      2  C   UNL     1       0.021  16.528  18.596  0.00  0.00    +0.000 A 
ATOM      3  C   UNL     1       1.081  17.145  19.256  0.00  0.00    +0.000 A 
ATOM      4  C   UNL     1       1.950  16.408  20.066  0.00  0.00    +0.000 A 
ATOM      5  C   UNL     1       1.716  15.036  20.194  0.00  0.00    +0.000 A 
ATOM      6  N   UNL     1       2.386  14.103  20.943  0.00  0.00    +0.000 N 
ATOM      7  C   UNL     1       1.805  12.880  20.797  0.00  0.00    +0.000 A 
ATOM      8  C   UNL     1       0.752  12.982  19.897  0.00  0.00    +0.000 A 
ATOM      9  C   UNL     1       0.679  14.373  19.534  0.00  0.00    +0.000 A 
ATOM     10  C   UNL     1      -0.176  15.143  18.715  0.00  0.00    +0.000 A 
ATOM     11  H   UNL     1       3.182  14.304  21.534  0.00  0.00    +0.000 HD
BRANCH   2  13
ATOM     12  C   UNL     1      -0.502  18.418  17.251  0.00  0.00    +0.000 C 
ATOM     13  O   UNL     1      -0.894  17.164  17.797  0.00  0.00    +0.000 OA
ENDBRANCH   2  13
ENDBRANCH   1   8
BRANCH   1  14
ATOM     14  C   UNL     1      -1.631  12.086  19.799  0.00  0.00    +0.000 A 
ATOM     15  C   UNL     1      -2.184  12.561  20.981  0.00  0.00    +0.000 A 
ATOM     16  N   UNL     1      -3.520  12.781  20.787  0.00  0.00    +0.000 N 
ATOM     17  C   UNL     1      -3.888  12.381  19.528  0.00  0.00    +0.000 A 
ATOM     18  C   UNL     1      -5.130  12.450  18.889  0.00  0.00    +0.000 A 
ATOM     19  C   UNL     1      -5.228  11.931  17.592  0.00  0.00    +0.000 A 
ATOM     20  C   UNL     1      -4.129  11.344  16.967  0.00  0.00    +0.000 A 
ATOM     21  C   UNL     1      -2.890  11.305  17.623  0.00  0.00    +0.000 A 
ATOM     22  C   UNL     1      -2.751  11.856  18.916  0.00  0.00    +0.000 A 
ATOM     23  H   UNL     1      -4.147  13.188  21.466  0.00  0.00    +0.000 HD
BRANCH  20  24
ATOM     24  O   UNL     1      -4.129  10.778  15.720  0.00  0.00    +0.000 OA
ATOM     25  C   UNL     1      -2.892  10.259  15.249  0.00  0.00    +0.000 C 
ENDBRANCH  20  24
ENDBRANCH   1  14
BRANCH   1  26
ATOM     26  C   UNL     1       0.343  10.604  20.142  0.00  0.00    +0.000 A 
ATOM     27  C   UNL     1       0.235  10.469  21.548  0.00  0.00    +0.000 A 
ATOM     28  C   UNL     1       0.717   9.348  22.231  0.00  0.00    +0.000 A 
ATOM     29  C   UNL     1       1.338   8.320  21.535  0.00  0.00    +0.000 A 
ATOM     30  C   UNL     1       1.463   8.405  20.150  0.00  0.00    +0.000 A 
ATOM     31  C   UNL     1       0.963   9.531  19.468  0.00  0.00    +0.000 A 
BRANCH  31  32
ATOM     32  N   UNL     1       1.095   9.508  18.021  0.00  0.00    +0.000 N 
ATOM     33  O   UNL     1       2.213   9.755  17.548  0.00  0.00    +0.000 OA
ATOM     34  O   UNL     1       0.071   9.292  17.361  0.00  0.00    +0.000 OA
ENDBRANCH  31  32
ENDBRANCH   1  26
TORSDOF 6
ENDMDL
MODEL 7
REMARK VINA RESULT:      -7.5      5.760      9.316
REMARK  Name = 
REMARK  8 active torsions:
REMARK  status: ('A' for Active; 'I' for Inactive)
REMARK    1  A    between atoms: C_1  and  O_2
REMARK    2  A    between atoms: O_2  and  C_3
REMARK    3  A    between atoms: C_9  and  C_10
REMARK    4  A    between atoms: C_10  and  C_11
REMARK    5  A    between atoms: C_10  and  C_20
REMARK    6  A    between atoms: C_16  and  N_17
REMARK    7  A    between atoms: C_26  and  O_27
REMARK    8  A    between atoms: O_27  and  C_28
REMARK                            x       y       z     vdW  Elec       q    Type
REMARK                         _______ _______ _______ _____ _____    ______ ____
ROOT
ATOM      1  C   UNL     1      -0.365  12.052  19.268  0.00  0.00    +0.000 C 
ENDROOT
BRANCH   1   8
ATOM      2  C   UNL     1      -0.068  16.753  18.692  0.00  0.00    +0.000 A 
ATOM      3  C   UNL     1       0.525  17.388  19.782  0.00  0.00    +0.000 A 
ATOM      4  C   UNL     1       0.955  16.657  20.894  0.00  0.00    +0.000 A 
ATOM      5  C   UNL     1       0.765  15.272  20.877  0.00  0.00    +0.000 A 
ATOM      6  N   UNL     1       1.058  14.339  21.838  0.00  0.00    +0.000 N 
ATOM      7  C   UNL     1       0.681  13.100  21.418  0.00  0.00    +0.000 A 
ATOM      8  C   UNL     1       0.167  13.193  20.131  0.00  0.00    +0.000 A 
ATOM      9  C   UNL     1       0.195  14.593  19.798  0.00  0.00    +0.000 A 
ATOM     10  C   UNL     1      -0.220  15.357  18.685  0.00  0.00    +0.000 A 
ATOM     11  H   UNL     1       1.473  14.550  22.736  0.00  0.00    +0.000 HD
BRANCH   2  13
ATOM     12  C   UNL     1      -1.333  18.542  17.770  0.00  0.00    +0.000 C 
ATOM     13  O   UNL     1      -0.537  17.381  17.568  0.00  0.00    +0.000 OA
ENDBRANCH   2  13
ENDBRANCH   1   8
BRANCH   1  14
ATOM     14  C   UNL     1      -1.884  12.049  19.144  0.00  0.00    +0.000 A 
ATOM     15  C   UNL     1      -2.849  12.495  20.036  0.00  0.00    +0.000 A 
ATOM     16  N   UNL     1      -4.069  12.471  19.417  0.00  0.00    +0.000 N 
ATOM     17  C   UNL     1      -3.952  11.938  18.160  0.00  0.00    +0.000 A 
ATOM     18  C   UNL     1      -4.919  11.756  17.166  0.00  0.00    +0.000 A 
ATOM     19  C   UNL     1      -4.519  11.149  15.969  0.00  0.00    +0.000 A 
ATOM     20  C   UNL     1      -3.206  10.719  15.783  0.00  0.00    +0.000 A 
ATOM     21  C   UNL     1      -2.251  10.932  16.788  0.00  0.00    +0.000 A 
ATOM     22  C   UNL     1      -2.616  11.578  17.990  0.00  0.00    +0.000 A 
ATOM     23  H   UNL     1      -4.932  12.808  19.820  0.00  0.00    +0.000 HD
BRANCH  20  24
ATOM     24  O   UNL     1      -2.724  10.086  14.668  0.00  0.00    +0.000 OA
ATOM     25  C   UNL     1      -3.624   9.926  13.579  0.00  0.00    +0.000 C 
ENDBRANCH  20  24
ENDBRANCH   1  14
BRANCH   1  26
ATOM     26  C   UNL     1       0.085  10.773  19.984  0.00  0.00    +0.000 A 
ATOM     27  C   UNL     1      -0.517  10.367  21.200  0.00  0.00    +0.000 A 
ATOM     28  C   UNL     1      -0.111   9.221  21.890  0.00  0.00    +0.000 A 
ATOM     29  C   UNL     1       0.924   8.439  21.397  0.00  0.00    +0.000 A 
ATOM     30  C   UNL     1       1.544   8.795  20.200  0.00  0.00    +0.000 A 
ATOM     31  C   UNL     1       1.120   9.943  19.505  0.00  0.00    +0.000 A 
BRANCH  31  32
ATOM     32  N   UNL     1       1.793  10.207  18.243  0.00  0.00    +0.000 N 
ATOM     33  O   UNL     1       2.392  11.286  18.132  0.00  0.00    +0.000 OA
ATOM     34  O   UNL     1       1.680   9.356  17.351  0.00  0.00    +0.000 OA
ENDBRANCH  31  32
ENDBRANCH   1  26
TORSDOF 6
ENDMDL
MODEL 8
REMARK VINA RESULT:      -7.4      4.818      8.670
REMARK  Name = 
REMARK  8 active torsions:
REMARK  status: ('A' for Active; 'I' for Inactive)
REMARK    1  A    between atoms: C_1  and  O_2
REMARK    2  A    between atoms: O_2  and  C_3
REMARK    3  A    between atoms: C_9  and  C_10
REMARK    4  A    between atoms: C_10  and  C_11
REMARK    5  A    between atoms: C_10  and  C_20
REMARK    6  A    between atoms: C_16  and  N_17
REMARK    7  A    between atoms: C_26  and  O_27
REMARK    8  A    between atoms: O_27  and  C_28
REMARK                            x       y       z     vdW  Elec       q    Type
REMARK                         _______ _______ _______ _____ _____    ______ ____
ROOT
ATOM      1  C   UNL     1       0.280  11.069  19.732  0.00  0.00    +0.000 C 
ENDROOT
BRANCH   1   8
ATOM      2  C   UNL     1      -4.080  12.892  20.154  0.00  0.00    +0.000 A 
ATOM      3  C   UNL     1      -4.939  12.462  19.144  0.00  0.00    +0.000 A 
ATOM      4  C   UNL     1      -4.493  11.594  18.143  0.00  0.00    +0.000 A 
ATOM      5  C   UNL     1      -3.159  11.177  18.187  0.00  0.00    +0.000 A 
ATOM      6  N   UNL     1      -2.469  10.368  17.322  0.00  0.00    +0.000 N 
ATOM      7  C   UNL     1      -1.175  10.243  17.729  0.00  0.00    +0.000 A 
ATOM      8  C   UNL     1      -1.002  10.944  18.916  0.00  0.00    +0.000 A 
ATOM      9  C   UNL     1      -2.271  11.567  19.192  0.00  0.00    +0.000 A 
ATOM     10  C   UNL     1      -2.753  12.436  20.195  0.00  0.00    +0.000 A 
ATOM     11  H   UNL     1      -2.862   9.947  16.491  0.00  0.00    +0.000 HD
BRANCH   2  13
ATOM     12  C   UNL     1      -3.858  15.060  21.103  0.00  0.00    +0.000 C 
ATOM     13  O   UNL     1      -4.416  13.754  21.166  0.00  0.00    +0.000 OA
ENDBRANCH   2  13
ENDBRANCH   1   8
BRANCH   1  14
ATOM     14  C   UNL     1       1.125  12.278  19.346  0.00  0.00    +0.000 A 
ATOM     15  C   UNL     1       1.874  12.508  18.200  0.00  0.00    +0.000 A 
ATOM     16  N   UNL     1       2.302  13.807  18.205  0.00  0.00    +0.000 N 
ATOM     17  C   UNL     1       1.927  14.426  19.370  0.00  0.00    +0.000 A 
ATOM     18  C   UNL     1       2.113  15.747  19.788  0.00  0.00    +0.000 A 
ATOM     19  C   UNL     1       1.647  16.102  21.059  0.00  0.00    +0.000 A 
ATOM     20  C   UNL     1       1.038  15.164  21.891  0.00  0.00    +0.000 A 
ATOM     21  C   UNL     1       0.846  13.850  21.440  0.00  0.00    +0.000 A 
ATOM     22  C   UNL     1       1.270  13.472  20.146  0.00  0.00    +0.000 A 
ATOM     23  H   UNL     1       2.811  14.254  17.456  0.00  0.00    +0.000 HD
BRANCH  20  24
ATOM     24  O   UNL     1       0.581  15.400  23.160  0.00  0.00    +0.000 OA
ATOM     25  C   UNL     1      -0.822  15.568  23.318  0.00  0.00    +0.000 C 
ENDBRANCH  20  24
ENDBRANCH   1  14
BRANCH   1  26
ATOM     26  C   UNL     1       1.067   9.788  19.431  0.00  0.00    +0.000 A 
ATOM     27  C   UNL     1       1.650   9.573  18.158  0.00  0.00    +0.000 A 
ATOM     28  C   UNL     1       2.349   8.404  17.844  0.00  0.00    +0.000 A 
ATOM     29  C   UNL     1       2.485   7.395  18.788  0.00  0.00    +0.000 A 
ATOM     30  C   UNL     1       1.933   7.564  20.057  0.00  0.00    +0.000 A 
ATOM     31  C   UNL     1       1.242   8.750  20.370  0.00  0.00    +0.000 A 
BRANCH  31  32
ATOM     32  N   UNL     1       0.744   8.855  21.732  0.00  0.00    +0.000 N 
ATOM     33  O   UNL     1      -0.423   8.495  21.940  0.00  0.00    +0.000 OA
ATOM     34  O   UNL     1       1.505   9.342  22.578  0.00  0.00    +0.000 OA
ENDBRANCH  31  32
ENDBRANCH   1  26
TORSDOF 6
ENDMDL
MODEL 9
REMARK VINA RESULT:      -7.4      5.831      9.168
REMARK  Name = 
REMARK  8 active torsions:
REMARK  status: ('A' for Active; 'I' for Inactive)
REMARK    1  A    between atoms: C_1  and  O_2
REMARK    2  A    between atoms: O_2  and  C_3
REMARK    3  A    between atoms: C_9  and  C_10
REMARK    4  A    between atoms: C_10  and  C_11
REMARK    5  A    between atoms: C_10  and  C_20
REMARK    6  A    between atoms: C_16  and  N_17
REMARK    7  A    between atoms: C_26  and  O_27
REMARK    8  A    between atoms: O_27  and  C_28
REMARK                            x       y       z     vdW  Elec       q    Type
REMARK                         _______ _______ _______ _____ _____    ______ ____
ROOT
ATOM      1  C   UNL     1      -0.208  12.083  19.673  0.00  0.00    +0.000 C 
ENDROOT
BRANCH   1   8
ATOM      2  C   UNL     1       3.660  14.750  19.007  0.00  0.00    +0.000 A 
ATOM      3  C   UNL     1       3.871  15.654  20.047  0.00  0.00    +0.000 A 
ATOM      4  C   UNL     1       2.992  15.718  21.133  0.00  0.00    +0.000 A 
ATOM      5  C   UNL     1       1.896  14.851  21.138  0.00  0.00    +0.000 A 
ATOM      6  N   UNL     1       0.880  14.734  22.050  0.00  0.00    +0.000 N 
ATOM      7  C   UNL     1      -0.001  13.775  21.651  0.00  0.00    +0.000 A 
ATOM      8  C   UNL     1       0.456  13.202  20.470  0.00  0.00    +0.000 A 
ATOM      9  C   UNL     1       1.658  13.915  20.128  0.00  0.00    +0.000 A 
ATOM     10  C   UNL     1       2.569  13.867  19.049  0.00  0.00    +0.000 A 
ATOM     11  H   UNL     1       0.789  15.297  22.886  0.00  0.00    +0.000 HD
BRANCH   2  13
ATOM     12  C   UNL     1       5.844  14.846  18.073  0.00  0.00    +0.000 C 
ATOM     13  O   UNL     1       4.450  14.623  17.895  0.00  0.00    +0.000 OA
ENDBRANCH   2  13
ENDBRANCH   1   8
BRANCH   1  14
ATOM     14  C   UNL     1      -1.728  12.187  19.641  0.00  0.00    +0.000 A 
ATOM     15  C   UNL     1      -2.594  12.822  20.521  0.00  0.00    +0.000 A 
ATOM     16  N   UNL     1      -3.852  12.817  19.984  0.00  0.00    +0.000 N 
ATOM     17  C   UNL     1      -3.862  12.117  18.805  0.00  0.00    +0.000 A 
ATOM     18  C   UNL     1      -4.906  11.885  17.904  0.00  0.00    +0.000 A 
ATOM     19  C   UNL     1      -4.636  11.097  16.779  0.00  0.00    +0.000 A 
ATOM     20  C   UNL     1      -3.374  10.542  16.575  0.00  0.00    +0.000 A 
ATOM     21  C   UNL     1      -2.339  10.806  17.484  0.00  0.00    +0.000 A 
ATOM     22  C   UNL     1      -2.571  11.630  18.607  0.00  0.00    +0.000 A 
ATOM     23  H   UNL     1      -4.659  13.272  20.388  0.00  0.00    +0.000 HD
BRANCH  20  24
ATOM     24  O   UNL     1      -3.018   9.731  15.529  0.00  0.00    +0.000 OA
ATOM     25  C   UNL     1      -3.490  10.100  14.240  0.00  0.00    +0.000 C 
ENDBRANCH  20  24
ENDBRANCH   1  14
BRANCH   1  26
ATOM     26  C   UNL     1       0.194  10.792  20.397  0.00  0.00    +0.000 A 
ATOM     27  C   UNL     1      -0.163  10.573  21.750  0.00  0.00    +0.000 A 
ATOM     28  C   UNL     1       0.211   9.419  22.444  0.00  0.00    +0.000 A 
ATOM     29  C   UNL     1       0.970   8.440  21.816  0.00  0.00    +0.000 A 
ATOM     30  C   UNL     1       1.340   8.608  20.483  0.00  0.00    +0.000 A 
ATOM     31  C   UNL     1       0.948   9.767  19.787  0.00  0.00    +0.000 A 
BRANCH  31  32
ATOM     32  N   UNL     1       1.340   9.832  18.388  0.00  0.00    +0.000 N 
ATOM     33  O   UNL     1       2.308  10.550  18.101  0.00  0.00    +0.000 OA
ATOM     34  O   UNL     1       0.649   9.204  17.576  0.00  0.00    +0.000 OA
ENDBRANCH  31  32
ENDBRANCH   1  26
TORSDOF 6
ENDMDL
