MODEL 1
REMARK VINA RESULT:      -6.6      0.000      0.000
REMARK  Name = 
REMARK  7 active torsions:
REMARK  status: ('A' for Active; 'I' for Inactive)
REMARK    1  A    between atoms: C_9  and  C_10
REMARK    2  A    between atoms: C_10  and  C_11
REMARK    3  A    between atoms: C_10  and  C_12
REMARK    4  A    between atoms: C_15  and  C_16
REMARK    5  A    between atoms: C_20  and  C_21
REMARK    6  A    between atoms: C_20  and  C_22
REMARK    7  A    between atoms: C_23  and  O_24
REMARK                            x       y       z     vdW  Elec       q    Type
REMARK                         _______ _______ _______ _____ _____    ______ ____
ROOT
ATOM      1  C   UNL     1       9.600  10.897  18.760  0.00  0.00    +0.000 C 
ATOM      2  C   UNL     1       9.591  12.186  19.141  0.00  0.00    +0.000 C 
ATOM      3  C   UNL     1       8.965  12.660  20.379  0.00  0.00    +0.000 C 
ATOM      4  C   UNL     1       8.599  13.935  20.243  0.00  0.00    +0.000 C 
ATOM      5  C   UNL     1       7.846  14.644  21.290  0.00  0.00    +0.000 C 
ATOM      6  O   UNL     1       7.408  15.765  21.089  0.00  0.00    +0.000 OA
ATOM      7  C   UNL     1       7.651  13.924  22.595  0.00  0.00    +0.000 C 
ATOM      8 BR   UNL     1       6.832  14.973  23.932  0.00  0.00    +0.000 Br
ATOM      9  C   UNL     1       8.019  12.634  22.772  0.00  0.00    +0.000 C 
ATOM     10  C   UNL     1       8.696  11.907  21.635  0.00  0.00    +0.000 C 
ATOM     11  O   UNL     1       9.033  10.730  21.750  0.00  0.00    +0.000 OA
ATOM     12  C   UNL     1       8.952  14.514  18.884  0.00  0.00    +0.000 C 
ATOM     13  C   UNL     1       7.660  14.579  18.026  0.00  0.00    +0.000 C 
ATOM     14  C   UNL     1       9.511  15.927  19.038  0.00  0.00    +0.000 C 
ATOM     15  C   UNL     1      10.580  16.196  18.009  0.00  0.00    +0.000 C 
ATOM     16  C   UNL     1      11.789  15.385  18.436  0.00  0.00    +0.000 C 
ATOM     17  C   UNL     1      11.559  13.845  18.314  0.00  0.00    +0.000 C 
ATOM     18  C   UNL     1      12.333  13.474  17.007  0.00  0.00    +0.000 C 
ATOM     19  C   UNL     1      12.332  13.116  19.437  0.00  0.00    +0.000 C 
ATOM     20  C   UNL     1       9.990  13.430  18.298  0.00  0.00    +0.000 C 
ENDROOT
BRANCH   9  21
ATOM     21  C   UNL     1       7.777  11.842  24.066  0.00  0.00    +0.000 C 
ATOM     22  C   UNL     1       6.299  11.596  24.395  0.00  0.00    +0.000 C 
ATOM     23  C   UNL     1       8.505  12.443  25.272  0.00  0.00    +0.000 C 
ENDBRANCH   9  21
BRANCH  20  24
ATOM     24  O   UNL     1       9.635  13.164  16.930  0.00  0.00    +0.000 OA
ATOM     25  H   UNL     1       9.912  12.262  16.715  0.00  0.00    +0.000 HD
ENDBRANCH  20  24
TORSDOF 2
ENDMDL
MODEL 2
REMARK VINA RESULT:      -6.5     10.283     12.286
REMARK  Name = 
REMARK  7 active torsions:
REMARK  status: ('A' for Active; 'I' for Inactive)
REMARK    1  A    between atoms: C_9  and  C_10
REMARK    2  A    between atoms: C_10  and  C_11
REMARK    3  A    between atoms: C_10  and  C_12
REMARK    4  A    between atoms: C_15  and  C_16
REMARK    5  A    between atoms: C_20  and  C_21
REMARK    6  A    between atoms: C_20  and  C_22
REMARK    7  A    between atoms: C_23  and  O_24
REMARK                            x       y       z     vdW  Elec       q    Type
REMARK                         _______ _______ _______ _____ _____    ______ ____
ROOT
ATOM      1  C   UNL     1      -2.871  12.874  22.199  0.00  0.00    +0.000 C 
ATOM      2  C   UNL     1      -2.118  12.681  21.102  0.00  0.00    +0.000 C 
ATOM      3  C   UNL     1      -2.648  12.156  19.840  0.00  0.00    +0.000 C 
ATOM      4  C   UNL     1      -1.676  11.548  19.159  0.00  0.00    +0.000 C 
ATOM      5  C   UNL     1      -1.939  10.830  17.901  0.00  0.00    +0.000 C 
ATOM      6  O   UNL     1      -1.063  10.171  17.367  0.00  0.00    +0.000 OA
ATOM      7  C   UNL     1      -3.321  10.952  17.324  0.00  0.00    +0.000 C 
ATOM      8 BR   UNL     1      -3.515  10.148  15.628  0.00  0.00    +0.000 Br
ATOM      9  C   UNL     1      -4.329  11.572  17.982  0.00  0.00    +0.000 C 
ATOM     10  C   UNL     1      -4.042  12.207  19.322  0.00  0.00    +0.000 C 
ATOM     11  O   UNL     1      -4.934  12.766  19.958  0.00  0.00    +0.000 OA
ATOM     12  C   UNL     1      -0.333  11.599  19.865  0.00  0.00    +0.000 C 
ATOM     13  C   UNL     1      -0.061  10.211  20.504  0.00  0.00    +0.000 C 
ATOM     14  C   UNL     1       0.782  11.905  18.866  0.00  0.00    +0.000 C 
ATOM     15  C   UNL     1       1.853  12.754  19.502  0.00  0.00    +0.000 C 
ATOM     16  C   UNL     1       1.253  14.139  19.663  0.00  0.00    +0.000 C 
ATOM     17  C   UNL     1       0.099  14.179  20.713  0.00  0.00    +0.000 C 
ATOM     18  C   UNL     1       0.782  14.821  21.966  0.00  0.00    +0.000 C 
ATOM     19  C   UNL     1      -0.959  15.221  20.280  0.00  0.00    +0.000 C 
ATOM     20  C   UNL     1      -0.569  12.726  20.991  0.00  0.00    +0.000 C 
ENDROOT
BRANCH   9  21
ATOM     21  C   UNL     1      -5.771  11.659  17.458  0.00  0.00    +0.000 C 
ATOM     22  C   UNL     1      -6.251  13.082  17.148  0.00  0.00    +0.000 C 
ATOM     23  C   UNL     1      -6.774  10.936  18.363  0.00  0.00    +0.000 C 
ENDBRANCH   9  21
BRANCH  20  24
ATOM     24  O   UNL     1      -0.027  12.240  22.231  0.00  0.00    +0.000 OA
ATOM     25  H   UNL     1      -0.380  12.784  22.950  0.00  0.00    +0.000 HD
ENDBRANCH  20  24
TORSDOF 2
ENDMDL
MODEL 3
REMARK VINA RESULT:      -6.1     10.410     12.404
REMARK  Name = 
REMARK  7 active torsions:
REMARK  status: ('A' for Active; 'I' for Inactive)
REMARK    1  A    between atoms: C_9  and  C_10
REMARK    2  A    between atoms: C_10  and  C_11
REMARK    3  A    between atoms: C_10  and  C_12
REMARK    4  A    between atoms: C_15  and  C_16
REMARK    5  A    between atoms: C_20  and  C_21
REMARK    6  A    between atoms: C_20  and  C_22
REMARK    7  A    between atoms: C_23  and  O_24
REMARK                            x       y       z     vdW  Elec       q    Type
REMARK                         _______ _______ _______ _____ _____    ______ ____
ROOT
ATOM      1  C   UNL     1      -1.632  12.580  23.322  0.00  0.00    +0.000 C 
ATOM      2  C   UNL     1      -1.646  12.766  21.991  0.00  0.00    +0.000 C 
ATOM      3  C   UNL     1      -2.837  12.567  21.158  0.00  0.00    +0.000 C 
ATOM      4  C   UNL     1      -2.473  12.259  19.913  0.00  0.00    +0.000 C 
ATOM      5  C   UNL     1      -3.458  11.898  18.881  0.00  0.00    +0.000 C 
ATOM      6  O   UNL     1      -3.095  11.492  17.790  0.00  0.00    +0.000 OA
ATOM      7  C   UNL     1      -4.909  12.054  19.241  0.00  0.00    +0.000 C 
ATOM      8 BR   UNL     1      -6.091  11.738  17.805  0.00  0.00    +0.000 Br
ATOM      9  C   UNL     1      -5.314  12.376  20.492  0.00  0.00    +0.000 C 
ATOM     10  C   UNL     1      -4.271  12.637  21.551  0.00  0.00    +0.000 C 
ATOM     11  O   UNL     1      -4.598  12.917  22.703  0.00  0.00    +0.000 OA
ATOM     12  C   UNL     1      -0.966  12.229  19.723  0.00  0.00    +0.000 C 
ATOM     13  C   UNL     1      -0.505  10.748  19.684  0.00  0.00    +0.000 C 
ATOM     14  C   UNL     1      -0.583  12.897  18.404  0.00  0.00    +0.000 C 
ATOM     15  C   UNL     1       0.730  13.626  18.533  0.00  0.00    +0.000 C 
ATOM     16  C   UNL     1       0.447  14.854  19.380  0.00  0.00    +0.000 C 
ATOM     17  C   UNL     1       0.091  14.501  20.858  0.00  0.00    +0.000 C 
ATOM     18  C   UNL     1       1.412  14.827  21.629  0.00  0.00    +0.000 C 
ATOM     19  C   UNL     1      -0.932  15.525  21.403  0.00  0.00    +0.000 C 
ATOM     20  C   UNL     1      -0.430  12.975  21.047  0.00  0.00    +0.000 C 
ENDROOT
BRANCH   9  21
ATOM     21  C   UNL     1      -6.788  12.479  20.917  0.00  0.00    +0.000 C 
ATOM     22  C   UNL     1      -7.568  11.162  20.833  0.00  0.00    +0.000 C 
ATOM     23  C   UNL     1      -7.537  13.598  20.187  0.00  0.00    +0.000 C 
ENDBRANCH   9  21
BRANCH  20  24
ATOM     24  O   UNL     1       0.670  12.214  21.574  0.00  0.00    +0.000 OA
ATOM     25  H   UNL     1       1.490  12.561  21.194  0.00  0.00    +0.000 HD
ENDBRANCH  20  24
TORSDOF 2
ENDMDL
MODEL 4
REMARK VINA RESULT:      -6.0      2.248      3.805
REMARK  Name = 
REMARK  7 active torsions:
REMARK  status: ('A' for Active; 'I' for Inactive)
REMARK    1  A    between atoms: C_9  and  C_10
REMARK    2  A    between atoms: C_10  and  C_11
REMARK    3  A    between atoms: C_10  and  C_12
REMARK    4  A    between atoms: C_15  and  C_16
REMARK    5  A    between atoms: C_20  and  C_21
REMARK    6  A    between atoms: C_20  and  C_22
REMARK    7  A    between atoms: C_23  and  O_24
REMARK                            x       y       z     vdW  Elec       q    Type
REMARK                         _______ _______ _______ _____ _____    ______ ____
ROOT
ATOM      1  C   UNL     1       8.209  15.954  18.045  0.00  0.00    +0.000 C 
ATOM      2  C   UNL     1       8.503  14.994  18.939  0.00  0.00    +0.000 C 
ATOM      3  C   UNL     1       7.683  14.708  20.120  0.00  0.00    +0.000 C 
ATOM      4  C   UNL     1       8.438  14.169  21.077  0.00  0.00    +0.000 C 
ATOM      5  C   UNL     1       7.905  13.878  22.418  0.00  0.00    +0.000 C 
ATOM      6  O   UNL     1       8.645  13.510  23.314  0.00  0.00    +0.000 OA
ATOM      7  C   UNL     1       6.426  14.058  22.616  0.00  0.00    +0.000 C 
ATOM      8 BR   UNL     1       5.807  13.495  24.307  0.00  0.00    +0.000 Br
ATOM      9  C   UNL     1       5.627  14.592  21.663  0.00  0.00    +0.000 C 
ATOM     10  C   UNL     1       6.234  14.976  20.335  0.00  0.00    +0.000 C 
ATOM     11  O   UNL     1       5.545  15.478  19.448  0.00  0.00    +0.000 OA
ATOM     12  C   UNL     1       9.887  13.991  20.662  0.00  0.00    +0.000 C 
ATOM     13  C   UNL     1      10.731  15.109  21.330  0.00  0.00    +0.000 C 
ATOM     14  C   UNL     1      10.412  12.635  21.130  0.00  0.00    +0.000 C 
ATOM     15  C   UNL     1      11.389  12.064  20.134  0.00  0.00    +0.000 C 
ATOM     16  C   UNL     1      10.563  11.629  18.937  0.00  0.00    +0.000 C 
ATOM     17  C   UNL     1       9.934  12.833  18.167  0.00  0.00    +0.000 C 
ATOM     18  C   UNL     1      10.857  12.972  16.912  0.00  0.00    +0.000 C 
ATOM     19  C   UNL     1       8.561  12.417  17.588  0.00  0.00    +0.000 C 
ATOM     20  C   UNL     1       9.822  14.182  19.064  0.00  0.00    +0.000 C 
ENDROOT
BRANCH   9  21
ATOM     21  C   UNL     1       4.124  14.855  21.850  0.00  0.00    +0.000 C 
ATOM     22  C   UNL     1       3.215  14.038  20.925  0.00  0.00    +0.000 C 
ATOM     23  C   UNL     1       3.771  16.344  21.777  0.00  0.00    +0.000 C 
ENDBRANCH   9  21
BRANCH  20  24
ATOM     24  O   UNL     1      10.905  15.043  18.671  0.00  0.00    +0.000 OA
ATOM     25  H   UNL     1      10.568  15.679  18.025  0.00  0.00    +0.000 HD
ENDBRANCH  20  24
TORSDOF 2
ENDMDL
MODEL 5
REMARK VINA RESULT:      -6.0      1.931      3.573
REMARK  Name = 
REMARK  7 active torsions:
REMARK  status: ('A' for Active; 'I' for Inactive)
REMARK    1  A    between atoms: C_9  and  C_10
REMARK    2  A    between atoms: C_10  and  C_11
REMARK    3  A    between atoms: C_10  and  C_12
REMARK    4  A    between atoms: C_15  and  C_16
REMARK    5  A    between atoms: C_20  and  C_21
REMARK    6  A    between atoms: C_20  and  C_22
REMARK    7  A    between atoms: C_23  and  O_24
REMARK                            x       y       z     vdW  Elec       q    Type
REMARK                         _______ _______ _______ _____ _____    ______ ____
ROOT
ATOM      1  C   UNL     1      11.771  16.195  20.909  0.00  0.00    +0.000 C 
ATOM      2  C   UNL     1      10.954  15.171  20.607  0.00  0.00    +0.000 C 
ATOM      3  C   UNL     1      10.079  14.519  21.586  0.00  0.00    +0.000 C 
ATOM      4  C   UNL     1       9.840  13.261  21.214  0.00  0.00    +0.000 C 
ATOM      5  C   UNL     1       9.078  12.330  22.062  0.00  0.00    +0.000 C 
ATOM      6  O   UNL     1       8.986  11.151  21.764  0.00  0.00    +0.000 OA
ATOM      7  C   UNL     1       8.433  12.902  23.293  0.00  0.00    +0.000 C 
ATOM      8 BR   UNL     1       7.336  11.679  24.220  0.00  0.00    +0.000 Br
ATOM      9  C   UNL     1       8.645  14.177  23.695  0.00  0.00    +0.000 C 
ATOM     10  C   UNL     1       9.519  15.072  22.850  0.00  0.00    +0.000 C 
ATOM     11  O   UNL     1       9.748  16.232  23.189  0.00  0.00    +0.000 OA
ATOM     12  C   UNL     1      10.511  12.891  19.903  0.00  0.00    +0.000 C 
ATOM     13  C   UNL     1      11.760  12.026  20.218  0.00  0.00    +0.000 C 
ATOM     14  C   UNL     1       9.558  12.077  19.030  0.00  0.00    +0.000 C 
ATOM     15  C   UNL     1       9.763  12.397  17.570  0.00  0.00    +0.000 C 
ATOM     16  C   UNL     1       9.192  13.787  17.361  0.00  0.00    +0.000 C 
ATOM     17  C   UNL     1      10.018  14.896  18.086  0.00  0.00    +0.000 C 
ATOM     18  C   UNL     1      10.837  15.545  16.923  0.00  0.00    +0.000 C 
ATOM     19  C   UNL     1       9.069  16.022  18.560  0.00  0.00    +0.000 C 
ATOM     20  C   UNL     1      10.928  14.326  19.303  0.00  0.00    +0.000 C 
ENDROOT
BRANCH   9  21
ATOM     21  C   UNL     1       8.059  14.780  24.982  0.00  0.00    +0.000 C 
ATOM     22  C   UNL     1       8.516  14.091  26.273  0.00  0.00    +0.000 C 
ATOM     23  C   UNL     1       6.531  14.892  24.940  0.00  0.00    +0.000 C 
ENDBRANCH   9  21
BRANCH  20  24
ATOM     24  O   UNL     1      12.278  14.232  18.815  0.00  0.00    +0.000 OA
ATOM     25  H   UNL     1      12.629  15.129  18.719  0.00  0.00    +0.000 HD
ENDBRANCH  20  24
TORSDOF 2
ENDMDL
MODEL 6
REMARK VINA RESULT:      -6.0     12.173     15.080
REMARK  Name = 
REMARK  7 active torsions:
REMARK  status: ('A' for Active; 'I' for Inactive)
REMARK    1  A    between atoms: C_9  and  C_10
REMARK    2  A    between atoms: C_10  and  C_11
REMARK    3  A    between atoms: C_10  and  C_12
REMARK    4  A    between atoms: C_15  and  C_16
REMARK    5  A    between atoms: C_20  and  C_21
REMARK    6  A    between atoms: C_20  and  C_22
REMARK    7  A    between atoms: C_23  and  O_24
REMARK                            x       y       z     vdW  Elec       q    Type
REMARK                         _______ _______ _______ _____ _____    ______ ____
ROOT
ATOM      1  C   UNL     1      -7.492  11.932  21.776  0.00  0.00    +0.000 C 
ATOM      2  C   UNL     1      -6.408  12.715  21.906  0.00  0.00    +0.000 C 
ATOM      3  C   UNL     1      -5.203  12.573  21.082  0.00  0.00    +0.000 C 
ATOM      4  C   UNL     1      -4.142  13.030  21.747  0.00  0.00    +0.000 C 
ATOM      5  C   UNL     1      -2.777  12.915  21.209  0.00  0.00    +0.000 C 
ATOM      6  O   UNL     1      -1.813  13.218  21.891  0.00  0.00    +0.000 OA
ATOM      7  C   UNL     1      -2.641  12.411  19.800  0.00  0.00    +0.000 C 
ATOM      8 BR   UNL     1      -0.876  12.463  19.137  0.00  0.00    +0.000 Br
ATOM      9  C   UNL     1      -3.697  11.949  19.091  0.00  0.00    +0.000 C 
ATOM     10  C   UNL     1      -5.070  11.988  19.720  0.00  0.00    +0.000 C 
ATOM     11  O   UNL     1      -6.053  11.564  19.114  0.00  0.00    +0.000 OA
ATOM     12  C   UNL     1      -4.491  13.573  23.122  0.00  0.00    +0.000 C 
ATOM     13  C   UNL     1      -4.072  12.524  24.186  0.00  0.00    +0.000 C 
ATOM     14  C   UNL     1      -3.732  14.872  23.388  0.00  0.00    +0.000 C 
ATOM     15  C   UNL     1      -4.568  15.824  24.205  0.00  0.00    +0.000 C 
ATOM     16  C   UNL     1      -5.652  16.337  23.275  0.00  0.00    +0.000 C 
ATOM     17  C   UNL     1      -6.673  15.228  22.867  0.00  0.00    +0.000 C 
ATOM     18  C   UNL     1      -7.917  15.546  23.760  0.00  0.00    +0.000 C 
ATOM     19  C   UNL     1      -7.165  15.483  21.423  0.00  0.00    +0.000 C 
ATOM     20  C   UNL     1      -6.093  13.723  23.046  0.00  0.00    +0.000 C 
ENDROOT
BRANCH   9  21
ATOM     21  C   UNL     1      -3.591  11.363  17.674  0.00  0.00    +0.000 C 
ATOM     22  C   UNL     1      -4.743  11.747  16.738  0.00  0.00    +0.000 C 
ATOM     23  C   UNL     1      -3.379   9.846  17.676  0.00  0.00    +0.000 C 
ENDBRANCH   9  21
BRANCH  20  24
ATOM     24  O   UNL     1      -6.650  13.196  24.263  0.00  0.00    +0.000 OA
ATOM     25  H   UNL     1      -6.598  12.230  24.226  0.00  0.00    +0.000 HD
ENDBRANCH  20  24
TORSDOF 2
ENDMDL
MODEL 7
REMARK VINA RESULT:      -5.8     10.912     13.947
REMARK  Name = 
REMARK  7 active torsions:
REMARK  status: ('A' for Active; 'I' for Inactive)
REMARK    1  A    between atoms: C_9  and  C_10
REMARK    2  A    between atoms: C_10  and  C_11
REMARK    3  A    between atoms: C_10  and  C_12
REMARK    4  A    between atoms: C_15  and  C_16
REMARK    5  A    between atoms: C_20  and  C_21
REMARK    6  A    between atoms: C_20  and  C_22
REMARK    7  A    between atoms: C_23  and  O_24
REMARK                            x       y       z     vdW  Elec       q    Type
REMARK                         _______ _______ _______ _____ _____    ______ ____
ROOT
ATOM      1  C   UNL     1      -6.529  13.299  21.362  0.00  0.00    +0.000 C 
ATOM      2  C   UNL     1      -5.361  13.624  21.943  0.00  0.00    +0.000 C 
ATOM      3  C   UNL     1      -4.063  13.110  21.494  0.00  0.00    +0.000 C 
ATOM      4  C   UNL     1      -3.201  13.104  22.511  0.00  0.00    +0.000 C 
ATOM      5  C   UNL     1      -1.848  12.538  22.382  0.00  0.00    +0.000 C 
ATOM      6  O   UNL     1      -1.127  12.423  23.358  0.00  0.00    +0.000 OA
ATOM      7  C   UNL     1      -1.416  12.116  21.006  0.00  0.00    +0.000 C 
ATOM      8 BR   UNL     1       0.387  11.569  20.906  0.00  0.00    +0.000 Br
ATOM      9  C   UNL     1      -2.260  12.119  19.948  0.00  0.00    +0.000 C 
ATOM     10  C   UNL     1      -3.674  12.611  20.146  0.00  0.00    +0.000 C 
ATOM     11  O   UNL     1      -4.477  12.616  19.214  0.00  0.00    +0.000 OA
ATOM     12  C   UNL     1      -3.798  13.642  23.800  0.00  0.00    +0.000 C 
ATOM     13  C   UNL     1      -4.122  12.442  24.729  0.00  0.00    +0.000 C 
ATOM     14  C   UNL     1      -2.799  14.554  24.508  0.00  0.00    +0.000 C 
ATOM     15  C   UNL     1      -3.508  15.687  25.206  0.00  0.00    +0.000 C 
ATOM     16  C   UNL     1      -3.989  16.621  24.111  0.00  0.00    +0.000 C 
ATOM     17  C   UNL     1      -5.112  15.989  23.228  0.00  0.00    +0.000 C 
ATOM     18  C   UNL     1      -6.411  16.675  23.763  0.00  0.00    +0.000 C 
ATOM     19  C   UNL     1      -4.979  16.504  21.775  0.00  0.00    +0.000 C 
ATOM     20  C   UNL     1      -5.142  14.368  23.290  0.00  0.00    +0.000 C 
ENDROOT
BRANCH   9  21
ATOM     21  C   UNL     1      -1.876  11.633  18.541  0.00  0.00    +0.000 C 
ATOM     22  C   UNL     1      -1.418  10.172  18.476  0.00  0.00    +0.000 C 
ATOM     23  C   UNL     1      -0.858  12.550  17.857  0.00  0.00    +0.000 C 
ENDBRANCH   9  21
BRANCH  20  24
ATOM     24  O   UNL     1      -6.214  13.997  24.174  0.00  0.00    +0.000 OA
ATOM     25  H   UNL     1      -7.052  14.141  23.711  0.00  0.00    +0.000 HD
ENDBRANCH  20  24
TORSDOF 2
ENDMDL
MODEL 8
REMARK VINA RESULT:      -5.8     11.377     14.193
REMARK  Name = 
REMARK  7 active torsions:
REMARK  status: ('A' for Active; 'I' for Inactive)
REMARK    1  A    between atoms: C_9  and  C_10
REMARK    2  A    between atoms: C_10  and  C_11
REMARK    3  A    between atoms: C_10  and  C_12
REMARK    4  A    between atoms: C_15  and  C_16
REMARK    5  A    between atoms: C_20  and  C_21
REMARK    6  A    between atoms: C_20  and  C_22
REMARK    7  A    between atoms: C_23  and  O_24
REMARK                            x       y       z     vdW  Elec       q    Type
REMARK                         _______ _______ _______ _____ _____    ______ ____
ROOT
ATOM      1  C   UNL     1      -6.193  13.227  23.414  0.00  0.00    +0.000 C 
ATOM      2  C   UNL     1      -4.988  13.457  22.864  0.00  0.00    +0.000 C 
ATOM      3  C   UNL     1      -4.597  12.970  21.537  0.00  0.00    +0.000 C 
ATOM      4  C   UNL     1      -3.273  12.828  21.479  0.00  0.00    +0.000 C 
ATOM      5  C   UNL     1      -2.603  12.251  20.302  0.00  0.00    +0.000 C 
ATOM      6  O   UNL     1      -1.408  12.008  20.323  0.00  0.00    +0.000 OA
ATOM      7  C   UNL     1      -3.459  11.981  19.096  0.00  0.00    +0.000 C 
ATOM      8 BR   UNL     1      -2.488  11.409  17.583  0.00  0.00    +0.000 Br
ATOM      9  C   UNL     1      -4.805  12.124  19.116  0.00  0.00    +0.000 C 
ATOM     10  C   UNL     1      -5.465  12.620  20.380  0.00  0.00    +0.000 C 
ATOM     11  O   UNL     1      -6.687  12.750  20.444  0.00  0.00    +0.000 OA
ATOM     12  C   UNL     1      -2.574  13.227  22.766  0.00  0.00    +0.000 C 
ATOM     13  C   UNL     1      -2.170  11.936  23.527  0.00  0.00    +0.000 C 
ATOM     14  C   UNL     1      -1.311  14.030  22.459  0.00  0.00    +0.000 C 
ATOM     15  C   UNL     1      -1.082  15.090  23.506  0.00  0.00    +0.000 C 
ATOM     16  C   UNL     1      -2.138  16.154  23.266  0.00  0.00    +0.000 C 
ATOM     17  C   UNL     1      -3.583  15.653  23.579  0.00  0.00    +0.000 C 
ATOM     18  C   UNL     1      -3.889  16.302  24.969  0.00  0.00    +0.000 C 
ATOM     19  C   UNL     1      -4.585  16.328  22.613  0.00  0.00    +0.000 C 
ATOM     20  C   UNL     1      -3.722  14.036  23.555  0.00  0.00    +0.000 C 
ENDROOT
BRANCH   9  21
ATOM     21  C   UNL     1      -5.721  11.794  17.927  0.00  0.00    +0.000 C 
ATOM     22  C   UNL     1      -6.333  13.019  17.237  0.00  0.00    +0.000 C 
ATOM     23  C   UNL     1      -6.808  10.775  18.284  0.00  0.00    +0.000 C 
ENDBRANCH   9  21
BRANCH  20  24
ATOM     24  O   UNL     1      -3.726  13.590  24.922  0.00  0.00    +0.000 OA
ATOM     25  H   UNL     1      -2.807  13.496  25.212  0.00  0.00    +0.000 HD
ENDBRANCH  20  24
TORSDOF 2
ENDMDL
MODEL 9
REMARK VINA RESULT:      -5.8      9.285     11.108
REMARK  Name = 
REMARK  7 active torsions:
REMARK  status: ('A' for Active; 'I' for Inactive)
REMARK    1  A    between atoms: C_9  and  C_10
REMARK    2  A    between atoms: C_10  and  C_11
REMARK    3  A    between atoms: C_10  and  C_12
REMARK    4  A    between atoms: C_15  and  C_16
REMARK    5  A    between atoms: C_20  and  C_21
REMARK    6  A    between atoms: C_20  and  C_22
REMARK    7  A    between atoms: C_23  and  O_24
REMARK                            x       y       z     vdW  Elec       q    Type
REMARK                         _______ _______ _______ _____ _____    ______ ____
ROOT
ATOM      1  C   UNL     1      -3.625  11.947  18.878  0.00  0.00    +0.000 C 
ATOM      2  C   UNL     1      -2.466  12.272  19.479  0.00  0.00    +0.000 C 
ATOM      3  C   UNL     1      -2.390  12.959  20.771  0.00  0.00    +0.000 C 
ATOM      4  C   UNL     1      -1.247  13.640  20.855  0.00  0.00    +0.000 C 
ATOM      5  C   UNL     1      -0.944  14.516  21.999  0.00  0.00    +0.000 C 
ATOM      6  O   UNL     1       0.045  15.229  21.992  0.00  0.00    +0.000 OA
ATOM      7  C   UNL     1      -1.905  14.483  23.154  0.00  0.00    +0.000 C 
ATOM      8 BR   UNL     1      -1.348  15.499  24.642  0.00  0.00    +0.000 Br
ATOM      9  C   UNL     1      -3.070  13.794  23.108  0.00  0.00    +0.000 C 
ATOM     10  C   UNL     1      -3.392  12.990  21.871  0.00  0.00    +0.000 C 
ATOM     11  O   UNL     1      -4.447  12.363  21.784  0.00  0.00    +0.000 OA
ATOM     12  C   UNL     1      -0.370  13.486  19.625  0.00  0.00    +0.000 C 
ATOM     13  C   UNL     1      -0.488  14.778  18.772  0.00  0.00    +0.000 C 
ATOM     14  C   UNL     1       1.090  13.299  20.032  0.00  0.00    +0.000 C 
ATOM     15  C   UNL     1       1.797  12.365  19.082  0.00  0.00    +0.000 C 
ATOM     16  C   UNL     1       1.259  10.977  19.379  0.00  0.00    +0.000 C 
ATOM     17  C   UNL     1      -0.244  10.814  18.986  0.00  0.00    +0.000 C 
ATOM     18  C   UNL     1      -0.173  10.010  17.646  0.00  0.00    +0.000 C 
ATOM     19  C   UNL     1      -0.936   9.847  19.975  0.00  0.00    +0.000 C 
ATOM     20  C   UNL     1      -1.036  12.226  18.874  0.00  0.00    +0.000 C 
ENDROOT
BRANCH   9  21
ATOM     21  C   UNL     1      -4.110  13.789  24.240  0.00  0.00    +0.000 C 
ATOM     22  C   UNL     1      -4.427  12.400  24.807  0.00  0.00    +0.000 C 
ATOM     23  C   UNL     1      -5.399  14.525  23.861  0.00  0.00    +0.000 C 
ENDBRANCH   9  21
BRANCH  20  24
ATOM     24  O   UNL     1      -1.141  12.543  17.475  0.00  0.00    +0.000 OA
ATOM     25  H   UNL     1      -0.279  12.388  17.063  0.00  0.00    +0.000 HD
ENDBRANCH  20  24
TORSDOF 2
ENDMDL
