MODEL 1
REMARK VINA RESULT:      -7.5      0.000      0.000
REMARK  Name = 
REMARK  6 active torsions:
REMARK  status: ('A' for Active; 'I' for Inactive)
REMARK    1  A    between atoms: C_1  and  O_2
REMARK    2  A    between atoms: O_2  and  C_3
REMARK    3  A    between atoms: C_9  and  C_10
REMARK    4  A    between atoms: N_11  and  N_12
REMARK    5  A    between atoms: N_15  and  C_16
REMARK    6  A    between atoms: C_16  and  C_17
REMARK                            x       y       z     vdW  Elec       q    Type
REMARK                         _______ _______ _______ _____ _____    ______ ____
ROOT
ATOM      1  N   UNL     1       7.774   7.879  17.728  0.00  0.00    +0.000 N 
ATOM      2  C   UNL     1       6.397   7.636  17.269  0.00  0.00    +0.000 C 
ATOM      3  C   UNL     1       6.223   6.145  16.875  0.00  0.00    +0.000 C 
ATOM      4  N   UNL     1       6.637   5.159  17.907  0.00  0.00    +0.000 NA
ATOM      5  C   UNL     1       7.976   5.548  18.404  0.00  0.00    +0.000 C 
ATOM      6  C   UNL     1       8.075   7.008  18.877  0.00  0.00    +0.000 C 
ENDROOT
BRANCH   1   8
ATOM      7  C   UNL     1       8.860   9.454  18.804  0.00  0.00    +0.000 C 
ATOM      8  N   UNL     1       8.233   9.152  17.710  0.00  0.00    +0.000 NA
BRANCH   7  15
ATOM      9  C   UNL     1       9.547  11.348  20.285  0.00  0.00    +0.000 A 
ATOM     10  C   UNL     1      10.214  12.566  20.444  0.00  0.00    +0.000 A 
ATOM     11  C   UNL     1      10.853  13.171  19.356  0.00  0.00    +0.000 A 
ATOM     12  C   UNL     1      10.832  12.562  18.105  0.00  0.00    +0.000 A 
ATOM     13 BR   UNL     1      11.724  13.375  16.652  0.00  0.00    +0.000 Br
ATOM     14  C   UNL     1      10.173  11.353  17.923  0.00  0.00    +0.000 A 
ATOM     15  C   UNL     1       9.532  10.750  19.013  0.00  0.00    +0.000 A 
BRANCH   9  17
ATOM     16  C   UNL     1       8.377  11.469  22.355  0.00  0.00    +0.000 C 
ATOM     17  O   UNL     1       8.937  10.676  21.314  0.00  0.00    +0.000 OA
ENDBRANCH   9  17
ENDBRANCH   7  15
ENDBRANCH   1   8
BRANCH   4  18
ATOM     18  C   UNL     1       5.628   5.094  18.978  0.00  0.00    +0.000 C 
BRANCH  18  19
ATOM     19  C   UNL     1       4.248   4.662  18.526  0.00  0.00    +0.000 A 
ATOM     20  C   UNL     1       3.176   5.565  18.587  0.00  0.00    +0.000 A 
ATOM     21  C   UNL     1       1.908   5.194  18.137  0.00  0.00    +0.000 A 
ATOM     22  C   UNL     1       1.698   3.918  17.621  0.00  0.00    +0.000 A 
ATOM     23  C   UNL     1       2.753   3.009  17.565  0.00  0.00    +0.000 A 
ATOM     24  C   UNL     1       4.022   3.375  18.019  0.00  0.00    +0.000 A 
ENDBRANCH  18  19
ENDBRANCH   4  18
TORSDOF 5
ENDMDL
MODEL 2
REMARK VINA RESULT:      -7.0      7.112      9.945
REMARK  Name = 
REMARK  6 active torsions:
REMARK  status: ('A' for Active; 'I' for Inactive)
REMARK    1  A    between atoms: C_1  and  O_2
REMARK    2  A    between atoms: O_2  and  C_3
REMARK    3  A    between atoms: C_9  and  C_10
REMARK    4  A    between atoms: N_11  and  N_12
REMARK    5  A    between atoms: N_15  and  C_16
REMARK    6  A    between atoms: C_16  and  C_17
REMARK                            x       y       z     vdW  Elec       q    Type
REMARK                         _______ _______ _______ _____ _____    ______ ____
ROOT
ATOM      1  N   UNL     1       1.358   9.010  20.008  0.00  0.00    +0.000 N 
ATOM      2  C   UNL     1       0.698   8.520  21.229  0.00  0.00    +0.000 C 
ATOM      3  C   UNL     1       0.846   9.562  22.369  0.00  0.00    +0.000 C 
ATOM      4  N   UNL     1       0.413  10.944  22.031  0.00  0.00    +0.000 NA
ATOM      5  C   UNL     1       1.019  11.311  20.732  0.00  0.00    +0.000 C 
ATOM      6  C   UNL     1       0.763  10.295  19.605  0.00  0.00    +0.000 C 
ENDROOT
BRANCH   1   8
ATOM      7  C   UNL     1       2.403   7.132  19.563  0.00  0.00    +0.000 C 
ATOM      8  N   UNL     1       1.702   8.103  19.065  0.00  0.00    +0.000 NA
BRANCH   7  15
ATOM      9  C   UNL     1       2.240   4.709  18.963  0.00  0.00    +0.000 A 
ATOM     10  C   UNL     1       2.667   3.637  18.176  0.00  0.00    +0.000 A 
ATOM     11  C   UNL     1       3.670   3.818  17.216  0.00  0.00    +0.000 A 
ATOM     12  C   UNL     1       4.248   5.070  17.036  0.00  0.00    +0.000 A 
ATOM     13 BR   UNL     1       5.580   5.307  15.718  0.00  0.00    +0.000 Br
ATOM     14  C   UNL     1       3.841   6.149  17.809  0.00  0.00    +0.000 A 
ATOM     15  C   UNL     1       2.838   5.966  18.771  0.00  0.00    +0.000 A 
BRANCH   9  17
ATOM     16  C   UNL     1       1.314   3.541  20.820  0.00  0.00    +0.000 C 
ATOM     17  O   UNL     1       1.233   4.617  19.891  0.00  0.00    +0.000 OA
ENDBRANCH   9  17
ENDBRANCH   7  15
ENDBRANCH   1   8
BRANCH   4  18
ATOM     18  C   UNL     1      -1.058  11.023  22.017  0.00  0.00    +0.000 C 
BRANCH  18  19
ATOM     19  C   UNL     1      -1.639  12.196  22.780  0.00  0.00    +0.000 A 
ATOM     20  C   UNL     1      -2.929  12.110  23.323  0.00  0.00    +0.000 A 
ATOM     21  C   UNL     1      -3.462  13.167  24.062  0.00  0.00    +0.000 A 
ATOM     22  C   UNL     1      -2.710  14.321  24.267  0.00  0.00    +0.000 A 
ATOM     23  C   UNL     1      -1.431  14.423  23.724  0.00  0.00    +0.000 A 
ATOM     24  C   UNL     1      -0.897  13.368  22.980  0.00  0.00    +0.000 A 
ENDBRANCH  18  19
ENDBRANCH   4  18
TORSDOF 5
ENDMDL
MODEL 3
REMARK VINA RESULT:      -6.9      6.997      9.891
REMARK  Name = 
REMARK  6 active torsions:
REMARK  status: ('A' for Active; 'I' for Inactive)
REMARK    1  A    between atoms: C_1  and  O_2
REMARK    2  A    between atoms: O_2  and  C_3
REMARK    3  A    between atoms: C_9  and  C_10
REMARK    4  A    between atoms: N_11  and  N_12
REMARK    5  A    between atoms: N_15  and  C_16
REMARK    6  A    between atoms: C_16  and  C_17
REMARK                            x       y       z     vdW  Elec       q    Type
REMARK                         _______ _______ _______ _____ _____    ______ ____
ROOT
ATOM      1  N   UNL     1       1.521   8.901  19.909  0.00  0.00    +0.000 N 
ATOM      2  C   UNL     1       1.003   8.407  21.195  0.00  0.00    +0.000 C 
ATOM      3  C   UNL     1       1.146   9.503  22.283  0.00  0.00    +0.000 C 
ATOM      4  N   UNL     1       0.569  10.828  21.936  0.00  0.00    +0.000 NA
ATOM      5  C   UNL     1       1.039  11.193  20.580  0.00  0.00    +0.000 C 
ATOM      6  C   UNL     1       0.787  10.114  19.512  0.00  0.00    +0.000 C 
ENDROOT
BRANCH   1   8
ATOM      7  C   UNL     1       2.469   6.965  19.496  0.00  0.00    +0.000 C 
ATOM      8  N   UNL     1       1.870   7.989  18.973  0.00  0.00    +0.000 NA
BRANCH   7  15
ATOM      9  C   UNL     1       2.294   4.531  18.947  0.00  0.00    +0.000 A 
ATOM     10  C   UNL     1       2.697   3.446  18.165  0.00  0.00    +0.000 A 
ATOM     11  C   UNL     1       3.665   3.612  17.167  0.00  0.00    +0.000 A 
ATOM     12  C   UNL     1       4.232   4.863  16.944  0.00  0.00    +0.000 A 
ATOM     13 BR   UNL     1       5.516   5.079  15.576  0.00  0.00    +0.000 Br
ATOM     14  C   UNL     1       3.848   5.955  17.711  0.00  0.00    +0.000 A 
ATOM     15  C   UNL     1       2.880   5.786  18.710  0.00  0.00    +0.000 A 
BRANCH   9  17
ATOM     16  C   UNL     1       0.763   3.166  20.156  0.00  0.00    +0.000 C 
ATOM     17  O   UNL     1       1.321   4.453  19.911  0.00  0.00    +0.000 OA
ENDBRANCH   9  17
ENDBRANCH   7  15
ENDBRANCH   1   8
BRANCH   4  18
ATOM     18  C   UNL     1      -0.900  10.783  22.037  0.00  0.00    +0.000 C 
BRANCH  18  19
ATOM     19  C   UNL     1      -1.526  11.972  22.735  0.00  0.00    +0.000 A 
ATOM     20  C   UNL     1      -0.840  13.194  22.791  0.00  0.00    +0.000 A 
ATOM     21  C   UNL     1      -1.422  14.309  23.396  0.00  0.00    +0.000 A 
ATOM     22  C   UNL     1      -2.696  14.215  23.949  0.00  0.00    +0.000 A 
ATOM     23  C   UNL     1      -3.383  13.004  23.909  0.00  0.00    +0.000 A 
ATOM     24  C   UNL     1      -2.802  11.885  23.309  0.00  0.00    +0.000 A 
ENDBRANCH  18  19
ENDBRANCH   4  18
TORSDOF 5
ENDMDL
MODEL 4
REMARK VINA RESULT:      -6.8      6.765      9.532
REMARK  Name = 
REMARK  6 active torsions:
REMARK  status: ('A' for Active; 'I' for Inactive)
REMARK    1  A    between atoms: C_1  and  O_2
REMARK    2  A    between atoms: O_2  and  C_3
REMARK    3  A    between atoms: C_9  and  C_10
REMARK    4  A    between atoms: N_11  and  N_12
REMARK    5  A    between atoms: N_15  and  C_16
REMARK    6  A    between atoms: C_16  and  C_17
REMARK                            x       y       z     vdW  Elec       q    Type
REMARK                         _______ _______ _______ _____ _____    ______ ____
ROOT
ATOM      1  N   UNL     1       1.352   8.802  19.210  0.00  0.00    +0.000 N 
ATOM      2  C   UNL     1       0.996  10.159  18.766  0.00  0.00    +0.000 C 
ATOM      3  C   UNL     1      -0.418  10.534  19.283  0.00  0.00    +0.000 C 
ATOM      4  N   UNL     1      -0.631  10.365  20.745  0.00  0.00    +0.000 NA
ATOM      5  C   UNL     1      -0.132   9.025  21.129  0.00  0.00    +0.000 C 
ATOM      6  C   UNL     1       1.311   8.735  20.681  0.00  0.00    +0.000 C 
ENDROOT
BRANCH   1   8
ATOM      7  C   UNL     1       2.332   6.880  18.806  0.00  0.00    +0.000 C 
ATOM      8  N   UNL     1       2.324   8.148  18.534  0.00  0.00    +0.000 NA
BRANCH   7  15
ATOM      9  C   UNL     1       2.772   4.650  17.764  0.00  0.00    +0.000 A 
ATOM     10  C   UNL     1       3.655   3.780  17.120  0.00  0.00    +0.000 A 
ATOM     11  C   UNL     1       4.973   4.173  16.859  0.00  0.00    +0.000 A 
ATOM     12  C   UNL     1       5.414   5.437  17.238  0.00  0.00    +0.000 A 
ATOM     13 BR   UNL     1       7.186   5.966  16.855  0.00  0.00    +0.000 Br
ATOM     14  C   UNL     1       4.553   6.317  17.883  0.00  0.00    +0.000 A 
ATOM     15  C   UNL     1       3.235   5.921  18.144  0.00  0.00    +0.000 A 
BRANCH   9  17
ATOM     16  C   UNL     1       1.178   3.043  18.506  0.00  0.00    +0.000 C 
ATOM     17  O   UNL     1       1.456   4.349  18.012  0.00  0.00    +0.000 OA
ENDBRANCH   9  17
ENDBRANCH   7  15
ENDBRANCH   1   8
BRANCH   4  18
ATOM     18  C   UNL     1       0.034  11.453  21.482  0.00  0.00    +0.000 C 
BRANCH  18  19
ATOM     19  C   UNL     1      -0.892  12.313  22.319  0.00  0.00    +0.000 A 
ATOM     20  C   UNL     1      -0.551  13.644  22.598  0.00  0.00    +0.000 A 
ATOM     21  C   UNL     1      -1.413  14.459  23.334  0.00  0.00    +0.000 A 
ATOM     22  C   UNL     1      -2.624  13.953  23.796  0.00  0.00    +0.000 A 
ATOM     23  C   UNL     1      -2.969  12.628  23.533  0.00  0.00    +0.000 A 
ATOM     24  C   UNL     1      -2.107  11.808  22.802  0.00  0.00    +0.000 A 
ENDBRANCH  18  19
ENDBRANCH   4  18
TORSDOF 5
ENDMDL
MODEL 5
REMARK VINA RESULT:      -6.8      6.975      9.653
REMARK  Name = 
REMARK  6 active torsions:
REMARK  status: ('A' for Active; 'I' for Inactive)
REMARK    1  A    between atoms: C_1  and  O_2
REMARK    2  A    between atoms: O_2  and  C_3
REMARK    3  A    between atoms: C_9  and  C_10
REMARK    4  A    between atoms: N_11  and  N_12
REMARK    5  A    between atoms: N_15  and  C_16
REMARK    6  A    between atoms: C_16  and  C_17
REMARK                            x       y       z     vdW  Elec       q    Type
REMARK                         _______ _______ _______ _____ _____    ______ ____
ROOT
ATOM      1  N   UNL     1       1.212   8.728  19.840  0.00  0.00    +0.000 N 
ATOM      2  C   UNL     1       0.757   9.994  19.245  0.00  0.00    +0.000 C 
ATOM      3  C   UNL     1      -0.665  10.343  19.760  0.00  0.00    +0.000 C 
ATOM      4  N   UNL     1      -0.828  10.344  21.237  0.00  0.00    +0.000 NA
ATOM      5  C   UNL     1      -0.233   9.096  21.766  0.00  0.00    +0.000 C 
ATOM      6  C   UNL     1       1.214   8.842  21.308  0.00  0.00    +0.000 C 
ENDROOT
BRANCH   1   8
ATOM      7  C   UNL     1       2.238   6.807  19.566  0.00  0.00    +0.000 C 
ATOM      8  N   UNL     1       2.207   8.055  19.216  0.00  0.00    +0.000 NA
BRANCH   7  15
ATOM      9  C   UNL     1       3.386   4.585  19.590  0.00  0.00    +0.000 A 
ATOM     10  C   UNL     1       4.261   3.681  18.984  0.00  0.00    +0.000 A 
ATOM     11  C   UNL     1       4.907   4.012  17.787  0.00  0.00    +0.000 A 
ATOM     12  C   UNL     1       4.679   5.247  17.189  0.00  0.00    +0.000 A 
ATOM     13 BR   UNL     1       5.535   5.671  15.560  0.00  0.00    +0.000 Br
ATOM     14  C   UNL     1       3.815   6.163  17.775  0.00  0.00    +0.000 A 
ATOM     15  C   UNL     1       3.171   5.830  18.974  0.00  0.00    +0.000 A 
BRANCH   9  17
ATOM     16  C   UNL     1       2.572   2.942  21.109  0.00  0.00    +0.000 C 
ATOM     17  O   UNL     1       2.685   4.312  20.738  0.00  0.00    +0.000 OA
ENDBRANCH   9  17
ENDBRANCH   7  15
ENDBRANCH   1   8
BRANCH   4  18
ATOM     18  C   UNL     1      -0.217  11.555  21.812  0.00  0.00    +0.000 C 
BRANCH  18  19
ATOM     19  C   UNL     1      -1.164  12.428  22.610  0.00  0.00    +0.000 A 
ATOM     20  C   UNL     1      -2.418  11.932  22.997  0.00  0.00    +0.000 A 
ATOM     21  C   UNL     1      -3.284  12.709  23.766  0.00  0.00    +0.000 A 
ATOM     22  C   UNL     1      -2.906  13.991  24.158  0.00  0.00    +0.000 A 
ATOM     23  C   UNL     1      -1.667  14.499  23.772  0.00  0.00    +0.000 A 
ATOM     24  C   UNL     1      -0.800  13.725  22.998  0.00  0.00    +0.000 A 
ENDBRANCH  18  19
ENDBRANCH   4  18
TORSDOF 5
ENDMDL
MODEL 6
REMARK VINA RESULT:      -6.6      6.676      9.500
REMARK  Name = 
REMARK  6 active torsions:
REMARK  status: ('A' for Active; 'I' for Inactive)
REMARK    1  A    between atoms: C_1  and  O_2
REMARK    2  A    between atoms: O_2  and  C_3
REMARK    3  A    between atoms: C_9  and  C_10
REMARK    4  A    between atoms: N_11  and  N_12
REMARK    5  A    between atoms: N_15  and  C_16
REMARK    6  A    between atoms: C_16  and  C_17
REMARK                            x       y       z     vdW  Elec       q    Type
REMARK                         _______ _______ _______ _____ _____    ______ ____
ROOT
ATOM      1  N   UNL     1       1.528   8.931  18.951  0.00  0.00    +0.000 N 
ATOM      2  C   UNL     1       1.394  10.345  18.562  0.00  0.00    +0.000 C 
ATOM      3  C   UNL     1      -0.014  10.871  18.949  0.00  0.00    +0.000 C 
ATOM      4  N   UNL     1      -0.411  10.654  20.365  0.00  0.00    +0.000 NA
ATOM      5  C   UNL     1      -0.127   9.243  20.710  0.00  0.00    +0.000 C 
ATOM      6  C   UNL     1       1.311   8.793  20.401  0.00  0.00    +0.000 C 
ENDROOT
BRANCH   1   8
ATOM      7  C   UNL     1       2.371   6.932  18.619  0.00  0.00    +0.000 C 
ATOM      8  N   UNL     1       2.484   8.194  18.340  0.00  0.00    +0.000 NA
BRANCH   7  15
ATOM      9  C   UNL     1       2.723   4.617  17.742  0.00  0.00    +0.000 A 
ATOM     10  C   UNL     1       3.568   3.673  17.154  0.00  0.00    +0.000 A 
ATOM     11  C   UNL     1       4.894   4.000  16.849  0.00  0.00    +0.000 A 
ATOM     12  C   UNL     1       5.381   5.273  17.127  0.00  0.00    +0.000 A 
ATOM     13 BR   UNL     1       7.164   5.712  16.685  0.00  0.00    +0.000 Br
ATOM     14  C   UNL     1       4.560   6.227  17.714  0.00  0.00    +0.000 A 
ATOM     15  C   UNL     1       3.233   5.897  18.020  0.00  0.00    +0.000 A 
BRANCH   9  17
ATOM     16  C   UNL     1       1.124   3.360  18.980  0.00  0.00    +0.000 C 
ATOM     17  O   UNL     1       1.402   4.381  18.027  0.00  0.00    +0.000 OA
ENDBRANCH   9  17
ENDBRANCH   7  15
ENDBRANCH   1   8
BRANCH   4  18
ATOM     18  C   UNL     1       0.293  11.608  21.240  0.00  0.00    +0.000 C 
BRANCH  18  19
ATOM     19  C   UNL     1      -0.609  12.443  22.125  0.00  0.00    +0.000 A 
ATOM     20  C   UNL     1      -1.760  11.874  22.689  0.00  0.00    +0.000 A 
ATOM     21  C   UNL     1      -2.578  12.620  23.539  0.00  0.00    +0.000 A 
ATOM     22  C   UNL     1      -2.253  13.941  23.836  0.00  0.00    +0.000 A 
ATOM     23  C   UNL     1      -1.117  14.520  23.273  0.00  0.00    +0.000 A 
ATOM     24  C   UNL     1      -0.299  13.778  22.418  0.00  0.00    +0.000 A 
ENDBRANCH  18  19
ENDBRANCH   4  18
TORSDOF 5
ENDMDL
MODEL 7
REMARK VINA RESULT:      -6.6      5.953      7.577
REMARK  Name = 
REMARK  6 active torsions:
REMARK  status: ('A' for Active; 'I' for Inactive)
REMARK    1  A    between atoms: C_1  and  O_2
REMARK    2  A    between atoms: O_2  and  C_3
REMARK    3  A    between atoms: C_9  and  C_10
REMARK    4  A    between atoms: N_11  and  N_12
REMARK    5  A    between atoms: N_15  and  C_16
REMARK    6  A    between atoms: C_16  and  C_17
REMARK                            x       y       z     vdW  Elec       q    Type
REMARK                         _______ _______ _______ _____ _____    ______ ____
ROOT
ATOM      1  N   UNL     1       1.837   6.895  19.947  0.00  0.00    +0.000 N 
ATOM      2  C   UNL     1       1.913   5.644  20.719  0.00  0.00    +0.000 C 
ATOM      3  C   UNL     1       1.759   4.425  19.772  0.00  0.00    +0.000 C 
ATOM      4  N   UNL     1       2.678   4.402  18.604  0.00  0.00    +0.000 NA
ATOM      5  C   UNL     1       2.636   5.734  17.960  0.00  0.00    +0.000 C 
ATOM      6  C   UNL     1       2.893   6.908  18.920  0.00  0.00    +0.000 C 
ENDROOT
BRANCH   1   8
ATOM      7  C   UNL     1       1.153   8.976  19.805  0.00  0.00    +0.000 C 
ATOM      8  N   UNL     1       1.531   8.033  20.611  0.00  0.00    +0.000 NA
BRANCH   7  15
ATOM      9  C   UNL     1       1.096  11.469  19.624  0.00  0.00    +0.000 A 
ATOM     10  C   UNL     1       0.609  12.694  20.086  0.00  0.00    +0.000 A 
ATOM     11  C   UNL     1      -0.273  12.743  21.171  0.00  0.00    +0.000 A 
ATOM     12  C   UNL     1      -0.675  11.568  21.798  0.00  0.00    +0.000 A 
ATOM     13 BR   UNL     1      -1.889  11.645  23.244  0.00  0.00    +0.000 Br
ATOM     14  C   UNL     1      -0.202  10.339  21.358  0.00  0.00    +0.000 A 
ATOM     15  C   UNL     1       0.683  10.293  20.272  0.00  0.00    +0.000 A 
BRANCH   9  17
ATOM     16  C   UNL     1       2.638  12.508  18.136  0.00  0.00    +0.000 C 
ATOM     17  O   UNL     1       1.927  11.342  18.540  0.00  0.00    +0.000 OA
ENDBRANCH   9  17
ENDBRANCH   7  15
ENDBRANCH   1   8
BRANCH   4  18
ATOM     18  C   UNL     1       4.034   4.019  19.034  0.00  0.00    +0.000 C 
BRANCH  18  19
ATOM     19  C   UNL     1       5.104   4.164  17.971  0.00  0.00    +0.000 A 
ATOM     20  C   UNL     1       4.878   3.671  16.678  0.00  0.00    +0.000 A 
ATOM     21  C   UNL     1       5.838   3.833  15.678  0.00  0.00    +0.000 A 
ATOM     22  C   UNL     1       7.032   4.491  15.960  0.00  0.00    +0.000 A 
ATOM     23  C   UNL     1       7.272   4.976  17.244  0.00  0.00    +0.000 A 
ATOM     24  C   UNL     1       6.316   4.811  18.248  0.00  0.00    +0.000 A 
ENDBRANCH  18  19
ENDBRANCH   4  18
TORSDOF 5
ENDMDL
MODEL 8
REMARK VINA RESULT:      -6.5      6.759      9.417
REMARK  Name = 
REMARK  6 active torsions:
REMARK  status: ('A' for Active; 'I' for Inactive)
REMARK    1  A    between atoms: C_1  and  O_2
REMARK    2  A    between atoms: O_2  and  C_3
REMARK    3  A    between atoms: C_9  and  C_10
REMARK    4  A    between atoms: N_11  and  N_12
REMARK    5  A    between atoms: N_15  and  C_16
REMARK    6  A    between atoms: C_16  and  C_17
REMARK                            x       y       z     vdW  Elec       q    Type
REMARK                         _______ _______ _______ _____ _____    ______ ____
ROOT
ATOM      1  N   UNL     1       1.328   8.891  19.093  0.00  0.00    +0.000 N 
ATOM      2  C   UNL     1       1.181  10.282  18.635  0.00  0.00    +0.000 C 
ATOM      3  C   UNL     1      -0.218  10.826  19.027  0.00  0.00    +0.000 C 
ATOM      4  N   UNL     1      -0.582  10.682  20.461  0.00  0.00    +0.000 NA
ATOM      5  C   UNL     1      -0.288   9.291  20.872  0.00  0.00    +0.000 C 
ATOM      6  C   UNL     1       1.144   8.827  20.553  0.00  0.00    +0.000 C 
ENDROOT
BRANCH   1   8
ATOM      7  C   UNL     1       2.444   7.001  19.126  0.00  0.00    +0.000 C 
ATOM      8  N   UNL     1       2.271   8.124  18.499  0.00  0.00    +0.000 NA
BRANCH   7  15
ATOM      9  C   UNL     1       3.530   4.764  19.386  0.00  0.00    +0.000 A 
ATOM     10  C   UNL     1       4.383   3.779  18.883  0.00  0.00    +0.000 A 
ATOM     11  C   UNL     1       5.046   3.970  17.664  0.00  0.00    +0.000 A 
ATOM     12  C   UNL     1       4.856   5.143  16.942  0.00  0.00    +0.000 A 
ATOM     13 BR   UNL     1       5.733   5.376  15.286  0.00  0.00    +0.000 Br
ATOM     14  C   UNL     1       4.014   6.137  17.424  0.00  0.00    +0.000 A 
ATOM     15  C   UNL     1       3.353   5.945  18.645  0.00  0.00    +0.000 A 
BRANCH   9  17
ATOM     16  C   UNL     1       2.531   3.298  20.975  0.00  0.00    +0.000 C 
ATOM     17  O   UNL     1       2.814   4.627  20.548  0.00  0.00    +0.000 OA
ENDBRANCH   9  17
ENDBRANCH   7  15
ENDBRANCH   1   8
BRANCH   4  18
ATOM     18  C   UNL     1       0.139  11.680  21.268  0.00  0.00    +0.000 C 
BRANCH  18  19
ATOM     19  C   UNL     1      -0.734  12.498  22.198  0.00  0.00    +0.000 A 
ATOM     20  C   UNL     1      -0.385  13.821  22.505  0.00  0.00    +0.000 A 
ATOM     21  C   UNL     1      -1.201  14.600  23.327  0.00  0.00    +0.000 A 
ATOM     22  C   UNL     1      -2.375  14.065  23.849  0.00  0.00    +0.000 A 
ATOM     23  C   UNL     1      -2.728  12.748  23.559  0.00  0.00    +0.000 A 
ATOM     24  C   UNL     1      -1.911  11.965  22.741  0.00  0.00    +0.000 A 
ENDBRANCH  18  19
ENDBRANCH   4  18
TORSDOF 5
ENDMDL
MODEL 9
REMARK VINA RESULT:      -6.5      5.958      7.592
REMARK  Name = 
REMARK  6 active torsions:
REMARK  status: ('A' for Active; 'I' for Inactive)
REMARK    1  A    between atoms: C_1  and  O_2
REMARK    2  A    between atoms: O_2  and  C_3
REMARK    3  A    between atoms: C_9  and  C_10
REMARK    4  A    between atoms: N_11  and  N_12
REMARK    5  A    between atoms: N_15  and  C_16
REMARK    6  A    between atoms: C_16  and  C_17
REMARK                            x       y       z     vdW  Elec       q    Type
REMARK                         _______ _______ _______ _____ _____    ______ ____
ROOT
ATOM      1  N   UNL     1       1.755   7.094  19.967  0.00  0.00    +0.000 N 
ATOM      2  C   UNL     1       1.847   5.837  20.728  0.00  0.00    +0.000 C 
ATOM      3  C   UNL     1       1.698   4.624  19.772  0.00  0.00    +0.000 C 
ATOM      4  N   UNL     1       2.609   4.619  18.597  0.00  0.00    +0.000 NA
ATOM      5  C   UNL     1       2.551   5.956  17.965  0.00  0.00    +0.000 C 
ATOM      6  C   UNL     1       2.804   7.125  18.933  0.00  0.00    +0.000 C 
ENDROOT
BRANCH   1   8
ATOM      7  C   UNL     1       1.093   9.183  19.843  0.00  0.00    +0.000 C 
ATOM      8  N   UNL     1       1.443   8.223  20.643  0.00  0.00    +0.000 NA
BRANCH   7  15
ATOM      9  C   UNL     1       1.089  11.681  19.725  0.00  0.00    +0.000 A 
ATOM     10  C   UNL     1       0.602  12.903  20.195  0.00  0.00    +0.000 A 
ATOM     11  C   UNL     1      -0.332  12.941  21.236  0.00  0.00    +0.000 A 
ATOM     12  C   UNL     1      -0.785  11.758  21.812  0.00  0.00    +0.000 A 
ATOM     13 BR   UNL     1      -2.067  11.822  23.198  0.00  0.00    +0.000 Br
ATOM     14  C   UNL     1      -0.312  10.532  21.364  0.00  0.00    +0.000 A 
ATOM     15  C   UNL     1       0.624  10.496  20.321  0.00  0.00    +0.000 A 
BRANCH   9  17
ATOM     16  C   UNL     1       2.492  12.777  18.144  0.00  0.00    +0.000 C 
ATOM     17  O   UNL     1       1.971  11.565  18.680  0.00  0.00    +0.000 OA
ENDBRANCH   9  17
ENDBRANCH   7  15
ENDBRANCH   1   8
BRANCH   4  18
ATOM     18  C   UNL     1       3.971   4.245  19.016  0.00  0.00    +0.000 C 
BRANCH  18  19
ATOM     19  C   UNL     1       5.027   4.378  17.937  0.00  0.00    +0.000 A 
ATOM     20  C   UNL     1       6.198   5.108  18.187  0.00  0.00    +0.000 A 
ATOM     21  C   UNL     1       7.196   5.205  17.217  0.00  0.00    +0.000 A 
ATOM     22  C   UNL     1       7.036   4.571  15.988  0.00  0.00    +0.000 A 
ATOM     23  C   UNL     1       5.873   3.851  15.724  0.00  0.00    +0.000 A 
ATOM     24  C   UNL     1       4.869   3.756  16.691  0.00  0.00    +0.000 A 
ENDBRANCH  18  19
ENDBRANCH   4  18
TORSDOF 5
ENDMDL
