MODEL 1
REMARK VINA RESULT:      -8.8      0.000      0.000
REMARK  Name = 
REMARK  8 active torsions:
REMARK  status: ('A' for Active; 'I' for Inactive)
REMARK    1  A    between atoms: C_1  and  C_2
REMARK    2  A    between atoms: C_2  and  C_3
REMARK    3  A    between atoms: C_3  and  C_4
REMARK    4  A    between atoms: C_4  and  N_5
REMARK    5  A    between atoms: N_19  and  C_20
REMARK    6  A    between atoms: C_20  and  C_21
REMARK    7  A    between atoms: C_20  and  C_22
REMARK    8  A    between atoms: C_22  and  C_23
REMARK                            x       y       z     vdW  Elec       q    Type
REMARK                         _______ _______ _______ _____ _____    ______ ____
ROOT
ATOM      1  N   UNL     1       6.327   5.676  17.477  0.00  0.00    +0.000 N 
ATOM      2  C   UNL     1       6.327   5.268  16.166  0.00  0.00    +0.000 A 
ATOM      3  N   UNL     1       7.296   5.500  15.257  0.00  0.00    +0.000 NA
ATOM      4  C   UNL     1       7.048   4.923  14.072  0.00  0.00    +0.000 A 
ATOM      5  C   UNL     1       7.984   5.086  13.059  0.00  0.00    +0.000 A 
ATOM      6  C   UNL     1       7.818   4.491  11.808  0.00  0.00    +0.000 A 
ATOM      7  C   UNL     1       6.691   3.720  11.564  0.00  0.00    +0.000 A 
ATOM      8  C   UNL     1       5.734   3.559  12.569  0.00  0.00    +0.000 A 
ATOM      9  C   UNL     1       5.883   4.150  13.818  0.00  0.00    +0.000 A 
ATOM     10  N   UNL     1       4.922   3.957  14.739  0.00  0.00    +0.000 NA
ATOM     11  C   UNL     1       5.163   4.539  15.940  0.00  0.00    +0.000 A 
ATOM     12  C   UNL     1       4.431   4.553  17.144  0.00  0.00    +0.000 A 
ATOM     13  C   UNL     1       3.174   3.976  17.542  0.00  0.00    +0.000 A 
ATOM     14  O   UNL     1       2.432   3.387  16.756  0.00  0.00    +0.000 OA
ATOM     15  N   UNL     1       2.875   4.159  18.903  0.00  0.00    +0.000 N 
ATOM     16  C   UNL     1       3.719   4.902  19.724  0.00  0.00    +0.000 A 
ATOM     17  N   UNL     1       4.834   5.471  19.373  0.00  0.00    +0.000 NA
ATOM     18  C   UNL     1       5.163   5.257  18.077  0.00  0.00    +0.000 A 
ENDROOT
BRANCH  15  19
ATOM     19  C   UNL     1       1.651   3.531  19.436  0.00  0.00    +0.000 C 
ATOM     20  C   UNL     1       1.692   2.007  19.278  0.00  0.00    +0.000 C 
BRANCH  19  21
ATOM     21  C   UNL     1       1.357   3.900  20.903  0.00  0.00    +0.000 C 
ATOM     22  C   UNL     1       1.516   2.731  21.867  0.00  0.00    +0.000 C 
ENDBRANCH  19  21
ENDBRANCH  15  19
BRANCH   1  23
ATOM     23  C   UNL     1       7.415   6.399  18.109  0.00  0.00    +0.000 C 
BRANCH  23  24
ATOM     24  C   UNL     1       7.541   7.863  17.680  0.00  0.00    +0.000 C 
BRANCH  24  26
ATOM     25  C   UNL     1       8.618  10.101  18.039  0.00  0.00    +0.000 C 
ATOM     26  C   UNL     1       8.548   8.658  18.514  0.00  0.00    +0.000 C 
ENDBRANCH  24  26
ENDBRANCH  23  24
ENDBRANCH   1  23
TORSDOF 5
ENDMDL
MODEL 2
REMARK VINA RESULT:      -8.4      3.239      7.797
REMARK  Name = 
REMARK  8 active torsions:
REMARK  status: ('A' for Active; 'I' for Inactive)
REMARK    1  A    between atoms: C_1  and  C_2
REMARK    2  A    between atoms: C_2  and  C_3
REMARK    3  A    between atoms: C_3  and  C_4
REMARK    4  A    between atoms: C_4  and  N_5
REMARK    5  A    between atoms: N_19  and  C_20
REMARK    6  A    between atoms: C_20  and  C_21
REMARK    7  A    between atoms: C_20  and  C_22
REMARK    8  A    between atoms: C_22  and  C_23
REMARK                            x       y       z     vdW  Elec       q    Type
REMARK                         _______ _______ _______ _____ _____    ______ ____
ROOT
ATOM      1  N   UNL     1       2.595   5.109  20.402  0.00  0.00    +0.000 N 
ATOM      2  C   UNL     1       2.055   6.361  20.245  0.00  0.00    +0.000 A 
ATOM      3  N   UNL     1       1.146   6.946  21.052  0.00  0.00    +0.000 NA
ATOM      4  C   UNL     1       0.852   8.202  20.682  0.00  0.00    +0.000 A 
ATOM      5  C   UNL     1      -0.067   8.908  21.447  0.00  0.00    +0.000 A 
ATOM      6  C   UNL     1      -0.404  10.229  21.150  0.00  0.00    +0.000 A 
ATOM      7  C   UNL     1       0.190  10.856  20.064  0.00  0.00    +0.000 A 
ATOM      8  C   UNL     1       1.105  10.152  19.277  0.00  0.00    +0.000 A 
ATOM      9  C   UNL     1       1.446   8.834  19.557  0.00  0.00    +0.000 A 
ATOM     10  N   UNL     1       2.331   8.216  18.757  0.00  0.00    +0.000 NA
ATOM     11  C   UNL     1       2.634   6.945  19.121  0.00  0.00    +0.000 A 
ATOM     12  C   UNL     1       3.512   5.991  18.571  0.00  0.00    +0.000 A 
ATOM     13  C   UNL     1       4.394   6.000  17.434  0.00  0.00    +0.000 A 
ATOM     14  O   UNL     1       4.442   6.935  16.635  0.00  0.00    +0.000 OA
ATOM     15  N   UNL     1       5.181   4.841  17.321  0.00  0.00    +0.000 N 
ATOM     16  C   UNL     1       5.025   3.784  18.213  0.00  0.00    +0.000 A 
ATOM     17  N   UNL     1       4.201   3.736  19.218  0.00  0.00    +0.000 NA
ATOM     18  C   UNL     1       3.474   4.869  19.373  0.00  0.00    +0.000 A 
ENDROOT
BRANCH  15  19
ATOM     19  C   UNL     1       6.183   4.784  16.239  0.00  0.00    +0.000 C 
ATOM     20  C   UNL     1       7.604   4.661  16.801  0.00  0.00    +0.000 C 
BRANCH  19  21
ATOM     21  C   UNL     1       5.922   3.662  15.216  0.00  0.00    +0.000 C 
ATOM     22  C   UNL     1       6.167   4.085  13.773  0.00  0.00    +0.000 C 
ENDBRANCH  19  21
ENDBRANCH  15  19
BRANCH   1  23
ATOM     23  C   UNL     1       2.294   4.221  21.509  0.00  0.00    +0.000 C 
BRANCH  23  24
ATOM     24  C   UNL     1       1.458   2.996  21.135  0.00  0.00    +0.000 C 
BRANCH  24  26
ATOM     25  C   UNL     1       0.857   2.280  18.806  0.00  0.00    +0.000 C 
ATOM     26  C   UNL     1       0.527   3.233  19.945  0.00  0.00    +0.000 C 
ENDBRANCH  24  26
ENDBRANCH  23  24
ENDBRANCH   1  23
TORSDOF 5
ENDMDL
MODEL 3
REMARK VINA RESULT:      -8.4      4.015      6.125
REMARK  Name = 
REMARK  8 active torsions:
REMARK  status: ('A' for Active; 'I' for Inactive)
REMARK    1  A    between atoms: C_1  and  C_2
REMARK    2  A    between atoms: C_2  and  C_3
REMARK    3  A    between atoms: C_3  and  C_4
REMARK    4  A    between atoms: C_4  and  N_5
REMARK    5  A    between atoms: N_19  and  C_20
REMARK    6  A    between atoms: C_20  and  C_21
REMARK    7  A    between atoms: C_20  and  C_22
REMARK    8  A    between atoms: C_22  and  C_23
REMARK                            x       y       z     vdW  Elec       q    Type
REMARK                         _______ _______ _______ _____ _____    ______ ____
ROOT
ATOM      1  N   UNL     1       2.612   5.867  19.952  0.00  0.00    +0.000 N 
ATOM      2  C   UNL     1       3.403   5.748  18.835  0.00  0.00    +0.000 A 
ATOM      3  N   UNL     1       4.135   4.671  18.485  0.00  0.00    +0.000 NA
ATOM      4  C   UNL     1       4.757   4.824  17.306  0.00  0.00    +0.000 A 
ATOM      5  C   UNL     1       5.533   3.772  16.839  0.00  0.00    +0.000 A 
ATOM      6  C   UNL     1       6.186   3.837  15.607  0.00  0.00    +0.000 A 
ATOM      7  C   UNL     1       6.061   4.979  14.829  0.00  0.00    +0.000 A 
ATOM      8  C   UNL     1       5.295   6.050  15.294  0.00  0.00    +0.000 A 
ATOM      9  C   UNL     1       4.643   6.002  16.521  0.00  0.00    +0.000 A 
ATOM     10  N   UNL     1       3.925   7.070  16.909  0.00  0.00    +0.000 NA
ATOM     11  C   UNL     1       3.294   6.926  18.100  0.00  0.00    +0.000 A 
ATOM     12  C   UNL     1       2.446   7.785  18.828  0.00  0.00    +0.000 A 
ATOM     13  C   UNL     1       1.948   9.114  18.591  0.00  0.00    +0.000 A 
ATOM     14  O   UNL     1       2.311   9.801  17.637  0.00  0.00    +0.000 OA
ATOM     15  N   UNL     1       1.021   9.549  19.553  0.00  0.00    +0.000 N 
ATOM     16  C   UNL     1       0.709   8.754  20.653  0.00  0.00    +0.000 A 
ATOM     17  N   UNL     1       1.184   7.572  20.910  0.00  0.00    +0.000 NA
ATOM     18  C   UNL     1       2.037   7.115  19.962  0.00  0.00    +0.000 A 
ENDROOT
BRANCH  15  19
ATOM     19  C   UNL     1       0.382  10.865  19.357  0.00  0.00    +0.000 C 
ATOM     20  C   UNL     1      -1.072  10.714  18.893  0.00  0.00    +0.000 C 
BRANCH  19  21
ATOM     21  C   UNL     1       0.445  11.772  20.601  0.00  0.00    +0.000 C 
ATOM     22  C   UNL     1       1.467  12.895  20.483  0.00  0.00    +0.000 C 
ENDBRANCH  19  21
ENDBRANCH  15  19
BRANCH   1  23
ATOM     23  C   UNL     1       2.407   4.810  20.924  0.00  0.00    +0.000 C 
BRANCH  23  24
ATOM     24  C   UNL     1       1.151   3.966  20.692  0.00  0.00    +0.000 C 
BRANCH  24  26
ATOM     25  C   UNL     1       1.078   2.511  18.648  0.00  0.00    +0.000 C 
ATOM     26  C   UNL     1       1.446   2.577  20.123  0.00  0.00    +0.000 C 
ENDBRANCH  24  26
ENDBRANCH  23  24
ENDBRANCH   1  23
TORSDOF 5
ENDMDL
MODEL 4
REMARK VINA RESULT:      -8.0      0.620      1.012
REMARK  Name = 
REMARK  8 active torsions:
REMARK  status: ('A' for Active; 'I' for Inactive)
REMARK    1  A    between atoms: C_1  and  C_2
REMARK    2  A    between atoms: C_2  and  C_3
REMARK    3  A    between atoms: C_3  and  C_4
REMARK    4  A    between atoms: C_4  and  N_5
REMARK    5  A    between atoms: N_19  and  C_20
REMARK    6  A    between atoms: C_20  and  C_21
REMARK    7  A    between atoms: C_20  and  C_22
REMARK    8  A    between atoms: C_22  and  C_23
REMARK                            x       y       z     vdW  Elec       q    Type
REMARK                         _______ _______ _______ _____ _____    ______ ____
ROOT
ATOM      1  N   UNL     1       6.737   5.823  17.401  0.00  0.00    +0.000 N 
ATOM      2  C   UNL     1       6.642   5.360  16.112  0.00  0.00    +0.000 A 
ATOM      3  N   UNL     1       7.495   5.627  15.102  0.00  0.00    +0.000 NA
ATOM      4  C   UNL     1       7.180   4.981  13.969  0.00  0.00    +0.000 A 
ATOM      5  C   UNL     1       7.995   5.173  12.862  0.00  0.00    +0.000 A 
ATOM      6  C   UNL     1       7.757   4.514  11.656  0.00  0.00    +0.000 A 
ATOM      7  C   UNL     1       6.679   3.646  11.555  0.00  0.00    +0.000 A 
ATOM      8  C   UNL     1       5.842   3.455  12.657  0.00  0.00    +0.000 A 
ATOM      9  C   UNL     1       6.063   4.109  13.863  0.00  0.00    +0.000 A 
ATOM     10  N   UNL     1       5.217   3.881  14.882  0.00  0.00    +0.000 NA
ATOM     11  C   UNL     1       5.525   4.531  16.031  0.00  0.00    +0.000 A 
ATOM     12  C   UNL     1       4.916   4.540  17.301  0.00  0.00    +0.000 A 
ATOM     13  C   UNL     1       3.756   3.884  17.845  0.00  0.00    +0.000 A 
ATOM     14  O   UNL     1       2.992   3.205  17.160  0.00  0.00    +0.000 OA
ATOM     15  N   UNL     1       3.579   4.102  19.222  0.00  0.00    +0.000 N 
ATOM     16  C   UNL     1       4.435   4.943  19.927  0.00  0.00    +0.000 A 
ATOM     17  N   UNL     1       5.459   5.583  19.444  0.00  0.00    +0.000 NA
ATOM     18  C   UNL     1       5.676   5.340  18.130  0.00  0.00    +0.000 A 
ENDROOT
BRANCH  15  19
ATOM     19  C   UNL     1       2.468   3.403  19.898  0.00  0.00    +0.000 C 
ATOM     20  C   UNL     1       2.309   3.881  21.346  0.00  0.00    +0.000 C 
BRANCH  19  21
ATOM     21  C   UNL     1       1.123   3.520  19.155  0.00  0.00    +0.000 C 
ATOM     22  C   UNL     1       0.397   2.191  19.001  0.00  0.00    +0.000 C 
ENDBRANCH  19  21
ENDBRANCH  15  19
BRANCH   1  23
ATOM     23  C   UNL     1       7.818   6.655  17.893  0.00  0.00    +0.000 C 
BRANCH  23  24
ATOM     24  C   UNL     1       7.599   8.159  17.710  0.00  0.00    +0.000 C 
BRANCH  24  26
ATOM     25  C   UNL     1       8.493  10.478  18.056  0.00  0.00    +0.000 C 
ATOM     26  C   UNL     1       8.606   9.020  18.474  0.00  0.00    +0.000 C 
ENDBRANCH  24  26
ENDBRANCH  23  24
ENDBRANCH   1  23
TORSDOF 5
ENDMDL
MODEL 5
REMARK VINA RESULT:      -8.0      4.001      6.201
REMARK  Name = 
REMARK  8 active torsions:
REMARK  status: ('A' for Active; 'I' for Inactive)
REMARK    1  A    between atoms: C_1  and  C_2
REMARK    2  A    between atoms: C_2  and  C_3
REMARK    3  A    between atoms: C_3  and  C_4
REMARK    4  A    between atoms: C_4  and  N_5
REMARK    5  A    between atoms: N_19  and  C_20
REMARK    6  A    between atoms: C_20  and  C_21
REMARK    7  A    between atoms: C_20  and  C_22
REMARK    8  A    between atoms: C_22  and  C_23
REMARK                            x       y       z     vdW  Elec       q    Type
REMARK                         _______ _______ _______ _____ _____    ______ ____
ROOT
ATOM      1  N   UNL     1       2.473   5.847  20.140  0.00  0.00    +0.000 N 
ATOM      2  C   UNL     1       3.270   5.779  19.024  0.00  0.00    +0.000 A 
ATOM      3  N   UNL     1       4.012   4.722  18.636  0.00  0.00    +0.000 NA
ATOM      4  C   UNL     1       4.638   4.926  17.467  0.00  0.00    +0.000 A 
ATOM      5  C   UNL     1       5.427   3.900  16.963  0.00  0.00    +0.000 A 
ATOM      6  C   UNL     1       6.084   4.019  15.738  0.00  0.00    +0.000 A 
ATOM      7  C   UNL     1       5.953   5.189  15.004  0.00  0.00    +0.000 A 
ATOM      8  C   UNL     1       5.175   6.235  15.507  0.00  0.00    +0.000 A 
ATOM      9  C   UNL     1       4.519   6.134  16.728  0.00  0.00    +0.000 A 
ATOM     10  N   UNL     1       3.789   7.179  17.153  0.00  0.00    +0.000 NA
ATOM     11  C   UNL     1       3.154   6.984  18.335  0.00  0.00    +0.000 A 
ATOM     12  C   UNL     1       2.295   7.806  19.092  0.00  0.00    +0.000 A 
ATOM     13  C   UNL     1       1.787   9.139  18.904  0.00  0.00    +0.000 A 
ATOM     14  O   UNL     1       2.148   9.866  17.979  0.00  0.00    +0.000 OA
ATOM     15  N   UNL     1       0.852   9.528  19.878  0.00  0.00    +0.000 N 
ATOM     16  C   UNL     1       0.541   8.688  20.944  0.00  0.00    +0.000 A 
ATOM     17  N   UNL     1       1.026   7.501  21.157  0.00  0.00    +0.000 NA
ATOM     18  C   UNL     1       1.887   7.089  20.197  0.00  0.00    +0.000 A 
ENDROOT
BRANCH  15  19
ATOM     19  C   UNL     1       0.202  10.845  19.730  0.00  0.00    +0.000 C 
ATOM     20  C   UNL     1       1.198  11.987  19.961  0.00  0.00    +0.000 C 
BRANCH  19  21
ATOM     21  C   UNL     1      -0.509  11.032  18.376  0.00  0.00    +0.000 C 
ATOM     22  C   UNL     1      -1.805  10.242  18.254  0.00  0.00    +0.000 C 
ENDBRANCH  19  21
ENDBRANCH  15  19
BRANCH   1  23
ATOM     23  C   UNL     1       2.272   4.751  21.070  0.00  0.00    +0.000 C 
BRANCH  23  24
ATOM     24  C   UNL     1       1.107   3.823  20.719  0.00  0.00    +0.000 C 
BRANCH  24  26
ATOM     25  C   UNL     1       1.080   2.467  18.607  0.00  0.00    +0.000 C 
ATOM     26  C   UNL     1       1.546   2.517  20.054  0.00  0.00    +0.000 C 
ENDBRANCH  24  26
ENDBRANCH  23  24
ENDBRANCH   1  23
TORSDOF 5
ENDMDL
MODEL 6
REMARK VINA RESULT:      -7.9      3.722      7.600
REMARK  Name = 
REMARK  8 active torsions:
REMARK  status: ('A' for Active; 'I' for Inactive)
REMARK    1  A    between atoms: C_1  and  C_2
REMARK    2  A    between atoms: C_2  and  C_3
REMARK    3  A    between atoms: C_3  and  C_4
REMARK    4  A    between atoms: C_4  and  N_5
REMARK    5  A    between atoms: N_19  and  C_20
REMARK    6  A    between atoms: C_20  and  C_21
REMARK    7  A    between atoms: C_20  and  C_22
REMARK    8  A    between atoms: C_22  and  C_23
REMARK                            x       y       z     vdW  Elec       q    Type
REMARK                         _______ _______ _______ _____ _____    ______ ____
ROOT
ATOM      1  N   UNL     1       2.595   6.025  19.571  0.00  0.00    +0.000 N 
ATOM      2  C   UNL     1       2.217   7.321  19.320  0.00  0.00    +0.000 A 
ATOM      3  N   UNL     1       1.379   8.067  20.069  0.00  0.00    +0.000 NA
ATOM      4  C   UNL     1       1.247   9.321  19.610  0.00  0.00    +0.000 A 
ATOM      5  C   UNL     1       0.414  10.186  20.308  0.00  0.00    +0.000 A 
ATOM      6  C   UNL     1       0.248  11.515  19.917  0.00  0.00    +0.000 A 
ATOM      7  C   UNL     1       0.928  11.988  18.804  0.00  0.00    +0.000 A 
ATOM      8  C   UNL     1       1.758  11.125  18.084  0.00  0.00    +0.000 A 
ATOM      9  C   UNL     1       1.928   9.797  18.457  0.00  0.00    +0.000 A 
ATOM     10  N   UNL     1       2.739   9.021  17.718  0.00  0.00    +0.000 NA
ATOM     11  C   UNL     1       2.877   7.751  18.172  0.00  0.00    +0.000 A 
ATOM     12  C   UNL     1       3.636   6.660  17.705  0.00  0.00    +0.000 A 
ATOM     13  C   UNL     1       4.525   6.482  16.587  0.00  0.00    +0.000 A 
ATOM     14  O   UNL     1       4.698   7.347  15.729  0.00  0.00    +0.000 OA
ATOM     15  N   UNL     1       5.163   5.230  16.567  0.00  0.00    +0.000 N 
ATOM     16  C   UNL     1       4.866   4.264  17.525  0.00  0.00    +0.000 A 
ATOM     17  N   UNL     1       4.031   4.387  18.513  0.00  0.00    +0.000 NA
ATOM     18  C   UNL     1       3.449   5.608  18.578  0.00  0.00    +0.000 A 
ENDROOT
BRANCH  15  19
ATOM     19  C   UNL     1       6.163   4.976  15.511  0.00  0.00    +0.000 C 
ATOM     20  C   UNL     1       7.426   4.323  16.085  0.00  0.00    +0.000 C 
BRANCH  19  21
ATOM     21  C   UNL     1       5.622   4.135  14.340  0.00  0.00    +0.000 C 
ATOM     22  C   UNL     1       6.620   3.963  13.203  0.00  0.00    +0.000 C 
ENDBRANCH  19  21
ENDBRANCH  15  19
BRANCH   1  23
ATOM     23  C   UNL     1       2.173   5.259  20.729  0.00  0.00    +0.000 C 
BRANCH  23  24
ATOM     24  C   UNL     1       0.975   4.339  20.482  0.00  0.00    +0.000 C 
BRANCH  24  26
ATOM     25  C   UNL     1       2.334   2.620  21.707  0.00  0.00    +0.000 C 
ATOM     26  C   UNL     1       1.312   2.852  20.604  0.00  0.00    +0.000 C 
ENDBRANCH  24  26
ENDBRANCH  23  24
ENDBRANCH   1  23
TORSDOF 5
ENDMDL
MODEL 7
REMARK VINA RESULT:      -7.5      0.929      1.402
REMARK  Name = 
REMARK  8 active torsions:
REMARK  status: ('A' for Active; 'I' for Inactive)
REMARK    1  A    between atoms: C_1  and  C_2
REMARK    2  A    between atoms: C_2  and  C_3
REMARK    3  A    between atoms: C_3  and  C_4
REMARK    4  A    between atoms: C_4  and  N_5
REMARK    5  A    between atoms: N_19  and  C_20
REMARK    6  A    between atoms: C_20  and  C_21
REMARK    7  A    between atoms: C_20  and  C_22
REMARK    8  A    between atoms: C_22  and  C_23
REMARK                            x       y       z     vdW  Elec       q    Type
REMARK                         _______ _______ _______ _____ _____    ______ ____
ROOT
ATOM      1  N   UNL     1       5.544   6.300  17.103  0.00  0.00    +0.000 N 
ATOM      2  C   UNL     1       5.750   5.654  15.909  0.00  0.00    +0.000 A 
ATOM      3  N   UNL     1       6.702   5.944  14.998  0.00  0.00    +0.000 NA
ATOM      4  C   UNL     1       6.701   5.099  13.956  0.00  0.00    +0.000 A 
ATOM      5  C   UNL     1       7.646   5.294  12.958  0.00  0.00    +0.000 A 
ATOM      6  C   UNL     1       7.734   4.441  11.858  0.00  0.00    +0.000 A 
ATOM      7  C   UNL     1       6.857   3.371  11.753  0.00  0.00    +0.000 A 
ATOM      8  C   UNL     1       5.892   3.171  12.743  0.00  0.00    +0.000 A 
ATOM      9  C   UNL     1       5.788   4.016  13.842  0.00  0.00    +0.000 A 
ATOM     10  N   UNL     1       4.834   3.767  14.756  0.00  0.00    +0.000 NA
ATOM     11  C   UNL     1       4.826   4.618  15.812  0.00  0.00    +0.000 A 
ATOM     12  C   UNL     1       4.018   4.680  16.965  0.00  0.00    +0.000 A 
ATOM     13  C   UNL     1       2.916   3.888  17.442  0.00  0.00    +0.000 A 
ATOM     14  O   UNL     1       2.409   2.984  16.780  0.00  0.00    +0.000 OA
ATOM     15  N   UNL     1       2.472   4.254  18.725  0.00  0.00    +0.000 N 
ATOM     16  C   UNL     1       3.037   5.338  19.392  0.00  0.00    +0.000 A 
ATOM     17  N   UNL     1       4.000   6.095  18.958  0.00  0.00    +0.000 NA
ATOM     18  C   UNL     1       4.476   5.721  17.746  0.00  0.00    +0.000 A 
ENDROOT
BRANCH  15  19
ATOM     19  C   UNL     1       1.403   3.449  19.346  0.00  0.00    +0.000 C 
ATOM     20  C   UNL     1       1.700   1.949  19.236  0.00  0.00    +0.000 C 
BRANCH  19  21
ATOM     21  C   UNL     1       1.123   3.823  20.814  0.00  0.00    +0.000 C 
ATOM     22  C   UNL     1       1.698   2.830  21.815  0.00  0.00    +0.000 C 
ENDBRANCH  19  21
ENDBRANCH  15  19
BRANCH   1  23
ATOM     23  C   UNL     1       6.364   7.391  17.595  0.00  0.00    +0.000 C 
BRANCH  23  24
ATOM     24  C   UNL     1       7.770   6.981  18.039  0.00  0.00    +0.000 C 
BRANCH  24  26
ATOM     25  C   UNL     1       8.037   4.494  18.252  0.00  0.00    +0.000 C 
ATOM     26  C   UNL     1       7.784   5.793  19.003  0.00  0.00    +0.000 C 
ENDBRANCH  24  26
ENDBRANCH  23  24
ENDBRANCH   1  23
TORSDOF 5
ENDMDL
MODEL 8
REMARK VINA RESULT:      -7.5      2.682      7.245
REMARK  Name = 
REMARK  8 active torsions:
REMARK  status: ('A' for Active; 'I' for Inactive)
REMARK    1  A    between atoms: C_1  and  C_2
REMARK    2  A    between atoms: C_2  and  C_3
REMARK    3  A    between atoms: C_3  and  C_4
REMARK    4  A    between atoms: C_4  and  N_5
REMARK    5  A    between atoms: N_19  and  C_20
REMARK    6  A    between atoms: C_20  and  C_21
REMARK    7  A    between atoms: C_20  and  C_22
REMARK    8  A    between atoms: C_22  and  C_23
REMARK                            x       y       z     vdW  Elec       q    Type
REMARK                         _______ _______ _______ _____ _____    ______ ____
ROOT
ATOM      1  N   UNL     1       4.368   4.554  18.508  0.00  0.00    +0.000 N 
ATOM      2  C   UNL     1       3.635   5.711  18.607  0.00  0.00    +0.000 A 
ATOM      3  N   UNL     1       2.894   6.100  19.665  0.00  0.00    +0.000 NA
ATOM      4  C   UNL     1       2.340   7.310  19.497  0.00  0.00    +0.000 A 
ATOM      5  C   UNL     1       1.561   7.819  20.528  0.00  0.00    +0.000 A 
ATOM      6  C   UNL     1       0.977   9.083  20.448  0.00  0.00    +0.000 A 
ATOM      7  C   UNL     1       1.175   9.854  19.311  0.00  0.00    +0.000 A 
ATOM      8  C   UNL     1       1.944   9.349  18.260  0.00  0.00    +0.000 A 
ATOM      9  C   UNL     1       2.528   8.089  18.323  0.00  0.00    +0.000 A 
ATOM     10  N   UNL     1       3.253   7.663  17.275  0.00  0.00    +0.000 NA
ATOM     11  C   UNL     1       3.815   6.440  17.434  0.00  0.00    +0.000 A 
ATOM     12  C   UNL     1       4.646   5.668  16.597  0.00  0.00    +0.000 A 
ATOM     13  C   UNL     1       5.192   5.879  15.283  0.00  0.00    +0.000 A 
ATOM     14  O   UNL     1       4.900   6.851  14.587  0.00  0.00    +0.000 OA
ATOM     15  N   UNL     1       6.077   4.868  14.871  0.00  0.00    +0.000 N 
ATOM     16  C   UNL     1       6.309   3.753  15.673  0.00  0.00    +0.000 A 
ATOM     17  N   UNL     1       5.788   3.521  16.841  0.00  0.00    +0.000 NA
ATOM     18  C   UNL     1       4.975   4.513  17.276  0.00  0.00    +0.000 A 
ENDROOT
BRANCH  15  19
ATOM     19  C   UNL     1       6.762   5.030  13.574  0.00  0.00    +0.000 C 
ATOM     20  C   UNL     1       8.218   5.473  13.764  0.00  0.00    +0.000 C 
BRANCH  19  21
ATOM     21  C   UNL     1       6.708   3.771  12.687  0.00  0.00    +0.000 C 
ATOM     22  C   UNL     1       5.315   3.464  12.152  0.00  0.00    +0.000 C 
ENDBRANCH  19  21
ENDBRANCH  15  19
BRANCH   1  23
ATOM     23  C   UNL     1       4.492   3.572  19.568  0.00  0.00    +0.000 C 
BRANCH  23  24
ATOM     24  C   UNL     1       3.259   2.687  19.765  0.00  0.00    +0.000 C 
BRANCH  24  26
ATOM     25  C   UNL     1       1.160   2.911  21.123  0.00  0.00    +0.000 C 
ATOM     26  C   UNL     1       2.673   2.762  21.176  0.00  0.00    +0.000 C 
ENDBRANCH  24  26
ENDBRANCH  23  24
ENDBRANCH   1  23
TORSDOF 5
ENDMDL
MODEL 9
REMARK VINA RESULT:      -7.5      3.225      7.371
REMARK  Name = 
REMARK  8 active torsions:
REMARK  status: ('A' for Active; 'I' for Inactive)
REMARK    1  A    between atoms: C_1  and  C_2
REMARK    2  A    between atoms: C_2  and  C_3
REMARK    3  A    between atoms: C_3  and  C_4
REMARK    4  A    between atoms: C_4  and  N_5
REMARK    5  A    between atoms: N_19  and  C_20
REMARK    6  A    between atoms: C_20  and  C_21
REMARK    7  A    between atoms: C_20  and  C_22
REMARK    8  A    between atoms: C_22  and  C_23
REMARK                            x       y       z     vdW  Elec       q    Type
REMARK                         _______ _______ _______ _____ _____    ______ ____
ROOT
ATOM      1  N   UNL     1       2.968   5.270  19.665  0.00  0.00    +0.000 N 
ATOM      2  C   UNL     1       2.560   6.551  19.385  0.00  0.00    +0.000 A 
ATOM      3  N   UNL     1       1.777   7.328  20.162  0.00  0.00    +0.000 NA
ATOM      4  C   UNL     1       1.599   8.558  19.659  0.00  0.00    +0.000 A 
ATOM      5  C   UNL     1       0.816   9.450  20.379  0.00  0.00    +0.000 A 
ATOM      6  C   UNL     1       0.609  10.759  19.943  0.00  0.00    +0.000 A 
ATOM      7  C   UNL     1       1.194  11.183  18.758  0.00  0.00    +0.000 A 
ATOM      8  C   UNL     1       1.972  10.291  18.015  0.00  0.00    +0.000 A 
ATOM      9  C   UNL     1       2.183   8.983  18.435  0.00  0.00    +0.000 A 
ATOM     10  N   UNL     1       2.940   8.177  17.670  0.00  0.00    +0.000 NA
ATOM     11  C   UNL     1       3.123   6.930  18.170  0.00  0.00    +0.000 A 
ATOM     12  C   UNL     1       3.852   5.822  17.694  0.00  0.00    +0.000 A 
ATOM     13  C   UNL     1       4.652   5.597  16.519  0.00  0.00    +0.000 A 
ATOM     14  O   UNL     1       4.750   6.422  15.612  0.00  0.00    +0.000 OA
ATOM     15  N   UNL     1       5.297   4.348  16.507  0.00  0.00    +0.000 N 
ATOM     16  C   UNL     1       5.086   3.426  17.528  0.00  0.00    +0.000 A 
ATOM     17  N   UNL     1       4.330   3.592  18.573  0.00  0.00    +0.000 NA
ATOM     18  C   UNL     1       3.745   4.812  18.627  0.00  0.00    +0.000 A 
ENDROOT
BRANCH  15  19
ATOM     19  C   UNL     1       6.213   4.051  15.388  0.00  0.00    +0.000 C 
ATOM     20  C   UNL     1       5.446   3.875  14.072  0.00  0.00    +0.000 C 
BRANCH  19  21
ATOM     21  C   UNL     1       7.329   5.098  15.210  0.00  0.00    +0.000 C 
ATOM     22  C   UNL     1       7.718   5.331  13.756  0.00  0.00    +0.000 C 
ENDBRANCH  19  21
ENDBRANCH  15  19
BRANCH   1  23
ATOM     23  C   UNL     1       2.645   4.557  20.886  0.00  0.00    +0.000 C 
BRANCH  23  24
ATOM     24  C   UNL     1       1.308   3.813  20.856  0.00  0.00    +0.000 C 
BRANCH  24  26
ATOM     25  C   UNL     1       0.840   2.417  18.823  0.00  0.00    +0.000 C 
ATOM     26  C   UNL     1       1.400   2.417  20.238  0.00  0.00    +0.000 C 
ENDBRANCH  24  26
ENDBRANCH  23  24
ENDBRANCH   1  23
TORSDOF 5
ENDMDL
