MODEL 1
REMARK VINA RESULT:      -7.4      0.000      0.000
REMARK  Name = 
REMARK  4 active torsions:
REMARK  status: ('A' for Active; 'I' for Inactive)
REMARK    1  A    between atoms: C_1  and  C_2
REMARK    2  A    between atoms: N_7  and  C_8
REMARK    3  A    between atoms: C_8  and  C_9
REMARK    4  A    between atoms: C_10  and  O_11
REMARK                            x       y       z     vdW  Elec       q    Type
REMARK                         _______ _______ _______ _____ _____    ______ ____
ROOT
ATOM      1  C   UNL     1       3.646   4.445  18.962  0.00  0.00    +0.000 A 
ATOM      2  C   UNL     1       3.783   3.155  19.522  0.00  0.00    +0.000 A 
ATOM      3  C   UNL     1       3.049   2.726  20.630  0.00  0.00    +0.000 A 
ATOM      4  C   UNL     1       2.198   3.601  21.309  0.00  0.00    +0.000 A 
ATOM      5  C   UNL     1       2.064   4.879  20.771  0.00  0.00    +0.000 A 
ATOM      6  O   UNL     1       1.373   5.923  21.340  0.00  0.00    +0.000 OA
ATOM      7  C   UNL     1       1.492   6.958  20.479  0.00  0.00    +0.000 A 
ATOM      8  C   UNL     1       1.064   8.304  20.763  0.00  0.00    +0.000 A 
ATOM      9  C   UNL     1       0.443   8.761  21.914  0.00  0.00    +0.000 A 
ATOM     10  C   UNL     1       0.193  10.135  22.066  0.00  0.00    +0.000 A 
ATOM     11  C   UNL     1       0.584  11.054  21.082  0.00  0.00    +0.000 A 
ATOM     12  C   UNL     1       1.188  10.606  19.915  0.00  0.00    +0.000 A 
ATOM     13  C   UNL     1       1.397   9.244  19.765  0.00  0.00    +0.000 A 
ATOM     14  O   UNL     1       1.947   8.840  18.519  0.00  0.00    +0.000 OA
ATOM     15  C   UNL     1       2.199   7.497  18.218  0.00  0.00    +0.000 A 
ATOM     16  O   UNL     1       2.410   7.154  17.059  0.00  0.00    +0.000 OA
ATOM     17  C   UNL     1       2.143   6.581  19.328  0.00  0.00    +0.000 A 
ATOM     18  C   UNL     1       2.680   5.289  19.580  0.00  0.00    +0.000 A 
ENDROOT
BRANCH   2  19
ATOM     19  O   UNL     1       4.675   2.250  19.003  0.00  0.00    +0.000 OA
ATOM     20  H   UNL     1       4.973   1.677  19.745  0.00  0.00    +0.000 HD
ENDBRANCH   2  19
BRANCH   1  21
ATOM     21  C   UNL     1       4.614   4.976  17.915  0.00  0.00    +0.000 C 
BRANCH  21  28
ATOM     22  C   UNL     1       7.961   5.627  19.474  0.00  0.00    +0.000 C 
ATOM     23  C   UNL     1       6.679   5.975  18.708  0.00  0.00    +0.000 C 
ATOM     24  C   UNL     1       6.945   7.085  17.667  0.00  0.00    +0.000 C 
ATOM     25  C   UNL     1       7.658   6.576  16.419  0.00  0.00    +0.000 C 
ATOM     26  C   UNL     1       6.952   5.353  15.861  0.00  0.00    +0.000 C 
ATOM     27  C   UNL     1       6.758   4.287  16.934  0.00  0.00    +0.000 C 
ATOM     28  N   UNL     1       6.054   4.737  18.155  0.00  0.00    +0.000 NA
ENDBRANCH  21  28
ENDBRANCH   1  21
TORSDOF 3
ENDMDL
MODEL 2
REMARK VINA RESULT:      -7.1      3.568      7.892
REMARK  Name = 
REMARK  4 active torsions:
REMARK  status: ('A' for Active; 'I' for Inactive)
REMARK    1  A    between atoms: C_1  and  C_2
REMARK    2  A    between atoms: N_7  and  C_8
REMARK    3  A    between atoms: C_8  and  C_9
REMARK    4  A    between atoms: C_10  and  O_11
REMARK                            x       y       z     vdW  Elec       q    Type
REMARK                         _______ _______ _______ _____ _____    ______ ____
ROOT
ATOM      1  C   UNL     1      -0.550  10.872  19.891  0.00  0.00    +0.000 A 
ATOM      2  C   UNL     1      -1.157  11.514  20.994  0.00  0.00    +0.000 A 
ATOM      3  C   UNL     1      -0.927  11.129  22.317  0.00  0.00    +0.000 A 
ATOM      4  C   UNL     1      -0.146  10.009  22.613  0.00  0.00    +0.000 A 
ATOM      5  C   UNL     1       0.447   9.363  21.531  0.00  0.00    +0.000 A 
ATOM      6  O   UNL     1       1.154   8.184  21.587  0.00  0.00    +0.000 OA
ATOM      7  C   UNL     1       1.557   7.935  20.322  0.00  0.00    +0.000 A 
ATOM      8  C   UNL     1       2.183   6.709  19.895  0.00  0.00    +0.000 A 
ATOM      9  C   UNL     1       2.505   5.615  20.682  0.00  0.00    +0.000 A 
ATOM     10  C   UNL     1       3.014   4.454  20.076  0.00  0.00    +0.000 A 
ATOM     11  C   UNL     1       3.177   4.376  18.686  0.00  0.00    +0.000 A 
ATOM     12  C   UNL     1       2.878   5.474  17.889  0.00  0.00    +0.000 A 
ATOM     13  C   UNL     1       2.409   6.623  18.505  0.00  0.00    +0.000 A 
ATOM     14  O   UNL     1       2.194   7.735  17.648  0.00  0.00    +0.000 OA
ATOM     15  C   UNL     1       1.736   8.967  18.129  0.00  0.00    +0.000 A 
ATOM     16  O   UNL     1       1.820   9.971  17.430  0.00  0.00    +0.000 OA
ATOM     17  C   UNL     1       1.225   8.968  19.477  0.00  0.00    +0.000 A 
ATOM     18  C   UNL     1       0.347   9.812  20.207  0.00  0.00    +0.000 A 
ENDROOT
BRANCH   2  19
ATOM     19  O   UNL     1      -2.031  12.556  20.814  0.00  0.00    +0.000 OA
ATOM     20  H   UNL     1      -1.789  12.997  19.970  0.00  0.00    +0.000 HD
ENDBRANCH   2  19
BRANCH   1  21
ATOM     21  C   UNL     1      -0.991  11.143  18.460  0.00  0.00    +0.000 C 
BRANCH  21  28
ATOM     22  C   UNL     1      -2.522   9.228  15.624  0.00  0.00    +0.000 C 
ATOM     23  C   UNL     1      -2.080  10.477  16.396  0.00  0.00    +0.000 C 
ATOM     24  C   UNL     1      -3.028  11.663  16.109  0.00  0.00    +0.000 C 
ATOM     25  C   UNL     1      -4.354  11.562  16.855  0.00  0.00    +0.000 C 
ATOM     26  C   UNL     1      -4.119  11.293  18.331  0.00  0.00    +0.000 C 
ATOM     27  C   UNL     1      -3.208  10.088  18.537  0.00  0.00    +0.000 C 
ATOM     28  N   UNL     1      -1.903  10.155  17.843  0.00  0.00    +0.000 NA
ENDBRANCH  21  28
ENDBRANCH   1  21
TORSDOF 3
ENDMDL
MODEL 3
REMARK VINA RESULT:      -7.1      1.074      1.404
REMARK  Name = 
REMARK  4 active torsions:
REMARK  status: ('A' for Active; 'I' for Inactive)
REMARK    1  A    between atoms: C_1  and  C_2
REMARK    2  A    between atoms: N_7  and  C_8
REMARK    3  A    between atoms: C_8  and  C_9
REMARK    4  A    between atoms: C_10  and  O_11
REMARK                            x       y       z     vdW  Elec       q    Type
REMARK                         _______ _______ _______ _____ _____    ______ ____
ROOT
ATOM      1  C   UNL     1       3.464   5.536  19.022  0.00  0.00    +0.000 A 
ATOM      2  C   UNL     1       3.439   4.286  19.681  0.00  0.00    +0.000 A 
ATOM      3  C   UNL     1       2.552   3.992  20.719  0.00  0.00    +0.000 A 
ATOM      4  C   UNL     1       1.694   4.971  21.229  0.00  0.00    +0.000 A 
ATOM      5  C   UNL     1       1.719   6.210  20.593  0.00  0.00    +0.000 A 
ATOM      6  O   UNL     1       1.046   7.338  21.001  0.00  0.00    +0.000 OA
ATOM      7  C   UNL     1       1.341   8.293  20.092  0.00  0.00    +0.000 A 
ATOM      8  C   UNL     1       0.984   9.682  20.229  0.00  0.00    +0.000 A 
ATOM      9  C   UNL     1       0.270  10.266  21.264  0.00  0.00    +0.000 A 
ATOM     10  C   UNL     1       0.106  11.660  21.290  0.00  0.00    +0.000 A 
ATOM     11  C   UNL     1       0.676  12.474  20.301  0.00  0.00    +0.000 A 
ATOM     12  C   UNL     1       1.376  11.899  19.248  0.00  0.00    +0.000 A 
ATOM     13  C   UNL     1       1.499  10.519  19.218  0.00  0.00    +0.000 A 
ATOM     14  O   UNL     1       2.159   9.986  18.078  0.00  0.00    +0.000 OA
ATOM     15  C   UNL     1       2.344   8.610  17.902  0.00  0.00    +0.000 A 
ATOM     16  O   UNL     1       2.662   8.167  16.804  0.00  0.00    +0.000 OA
ATOM     17  C   UNL     1       2.092   7.787  19.058  0.00  0.00    +0.000 A 
ATOM     18  C   UNL     1       2.498   6.486  19.460  0.00  0.00    +0.000 A 
ENDROOT
BRANCH   2  19
ATOM     19  O   UNL     1       4.315   3.287  19.338  0.00  0.00    +0.000 OA
ATOM     20  H   UNL     1       4.823   3.600  18.556  0.00  0.00    +0.000 HD
ENDBRANCH   2  19
BRANCH   1  21
ATOM     21  C   UNL     1       4.584   5.920  18.067  0.00  0.00    +0.000 C 
BRANCH  21  28
ATOM     22  C   UNL     1       8.011   4.405  17.925  0.00  0.00    +0.000 C 
ATOM     23  C   UNL     1       6.941   5.479  17.692  0.00  0.00    +0.000 C 
ATOM     24  C   UNL     1       7.240   6.281  16.405  0.00  0.00    +0.000 C 
ATOM     25  C   UNL     1       6.884   5.522  15.132  0.00  0.00    +0.000 C 
ATOM     26  C   UNL     1       5.470   4.976  15.212  0.00  0.00    +0.000 C 
ATOM     27  C   UNL     1       5.260   4.165  16.486  0.00  0.00    +0.000 C 
ATOM     28  N   UNL     1       5.578   4.872  17.746  0.00  0.00    +0.000 NA
ENDBRANCH  21  28
ENDBRANCH   1  21
TORSDOF 3
ENDMDL
MODEL 4
REMARK VINA RESULT:      -7.0      6.215     10.893
REMARK  Name = 
REMARK  4 active torsions:
REMARK  status: ('A' for Active; 'I' for Inactive)
REMARK    1  A    between atoms: C_1  and  C_2
REMARK    2  A    between atoms: N_7  and  C_8
REMARK    3  A    between atoms: C_8  and  C_9
REMARK    4  A    between atoms: C_10  and  O_11
REMARK                            x       y       z     vdW  Elec       q    Type
REMARK                         _______ _______ _______ _____ _____    ______ ____
ROOT
ATOM      1  C   UNL     1      -4.510  13.313  21.725  0.00  0.00    +0.000 A 
ATOM      2  C   UNL     1      -5.366  13.643  22.800  0.00  0.00    +0.000 A 
ATOM      3  C   UNL     1      -5.078  13.317  24.127  0.00  0.00    +0.000 A 
ATOM      4  C   UNL     1      -3.956  12.550  24.451  0.00  0.00    +0.000 A 
ATOM      5  C   UNL     1      -3.113  12.210  23.396  0.00  0.00    +0.000 A 
ATOM      6  O   UNL     1      -2.025  11.371  23.474  0.00  0.00    +0.000 OA
ATOM      7  C   UNL     1      -1.495  11.337  22.232  0.00  0.00    +0.000 A 
ATOM      8  C   UNL     1      -0.441  10.444  21.823  0.00  0.00    +0.000 A 
ATOM      9  C   UNL     1       0.221   9.513  22.608  0.00  0.00    +0.000 A 
ATOM     10  C   UNL     1       1.152   8.645  22.015  0.00  0.00    +0.000 A 
ATOM     11  C   UNL     1       1.403   8.688  20.636  0.00  0.00    +0.000 A 
ATOM     12  C   UNL     1       0.761   9.630  19.842  0.00  0.00    +0.000 A 
ATOM     13  C   UNL     1      -0.128  10.502  20.449  0.00  0.00    +0.000 A 
ATOM     14  O   UNL     1      -0.694  11.491  19.600  0.00  0.00    +0.000 OA
ATOM     15  C   UNL     1      -1.597  12.450  20.074  0.00  0.00    +0.000 A 
ATOM     16  O   UNL     1      -1.852  13.442  19.400  0.00  0.00    +0.000 OA
ATOM     17  C   UNL     1      -2.140  12.209  21.387  0.00  0.00    +0.000 A 
ATOM     18  C   UNL     1      -3.303  12.644  22.077  0.00  0.00    +0.000 A 
ENDROOT
BRANCH   2  19
ATOM     19  O   UNL     1      -6.552  14.299  22.585  0.00  0.00    +0.000 OA
ATOM     20  H   UNL     1      -7.151  13.672  22.122  0.00  0.00    +0.000 HD
ENDBRANCH   2  19
BRANCH   1  21
ATOM     21  C   UNL     1      -4.946  13.460  20.275  0.00  0.00    +0.000 C 
BRANCH  21  28
ATOM     22  C   UNL     1      -6.746  10.477  18.889  0.00  0.00    +0.000 C 
ATOM     23  C   UNL     1      -5.710  11.607  18.905  0.00  0.00    +0.000 C 
ATOM     24  C   UNL     1      -5.405  12.093  17.470  0.00  0.00    +0.000 C 
ATOM     25  C   UNL     1      -6.499  12.984  16.895  0.00  0.00    +0.000 C 
ATOM     26  C   UNL     1      -6.851  14.095  17.868  0.00  0.00    +0.000 C 
ATOM     27  C   UNL     1      -7.177  13.540  19.250  0.00  0.00    +0.000 C 
ATOM     28  N   UNL     1      -6.131  12.683  19.851  0.00  0.00    +0.000 NA
ENDBRANCH  21  28
ENDBRANCH   1  21
TORSDOF 3
ENDMDL
MODEL 5
REMARK VINA RESULT:      -7.0      0.969      1.592
REMARK  Name = 
REMARK  4 active torsions:
REMARK  status: ('A' for Active; 'I' for Inactive)
REMARK    1  A    between atoms: C_1  and  C_2
REMARK    2  A    between atoms: N_7  and  C_8
REMARK    3  A    between atoms: C_8  and  C_9
REMARK    4  A    between atoms: C_10  and  O_11
REMARK                            x       y       z     vdW  Elec       q    Type
REMARK                         _______ _______ _______ _____ _____    ______ ____
ROOT
ATOM      1  C   UNL     1       3.861   4.894  19.396  0.00  0.00    +0.000 A 
ATOM      2  C   UNL     1       3.955   3.545  19.809  0.00  0.00    +0.000 A 
ATOM      3  C   UNL     1       3.013   2.941  20.644  0.00  0.00    +0.000 A 
ATOM      4  C   UNL     1       1.966   3.680  21.200  0.00  0.00    +0.000 A 
ATOM      5  C   UNL     1       1.872   5.013  20.808  0.00  0.00    +0.000 A 
ATOM      6  O   UNL     1       0.994   5.942  21.317  0.00  0.00    +0.000 OA
ATOM      7  C   UNL     1       1.238   7.088  20.645  0.00  0.00    +0.000 A 
ATOM      8  C   UNL     1       0.661   8.365  20.981  0.00  0.00    +0.000 A 
ATOM      9  C   UNL     1      -0.244   8.635  21.995  0.00  0.00    +0.000 A 
ATOM     10  C   UNL     1      -0.620   9.964  22.251  0.00  0.00    +0.000 A 
ATOM     11  C   UNL     1      -0.075  11.024  21.512  0.00  0.00    +0.000 A 
ATOM     12  C   UNL     1       0.816  10.764  20.479  0.00  0.00    +0.000 A 
ATOM     13  C   UNL     1       1.151   9.445  20.217  0.00  0.00    +0.000 A 
ATOM     14  O   UNL     1       2.005   9.238  19.102  0.00  0.00    +0.000 OA
ATOM     15  C   UNL     1       2.416   7.959  18.707  0.00  0.00    +0.000 A 
ATOM     16  O   UNL     1       2.917   7.787  17.601  0.00  0.00    +0.000 OA
ATOM     17  C   UNL     1       2.167   6.898  19.649  0.00  0.00    +0.000 A 
ATOM     18  C   UNL     1       2.719   5.607  19.862  0.00  0.00    +0.000 A 
ENDROOT
BRANCH   2  19
ATOM     19  O   UNL     1       5.005   2.756  19.414  0.00  0.00    +0.000 OA
ATOM     20  H   UNL     1       4.858   1.862  19.797  0.00  0.00    +0.000 HD
ENDBRANCH   2  19
BRANCH   1  21
ATOM     21  C   UNL     1       5.007   5.601  18.689  0.00  0.00    +0.000 C 
BRANCH  21  28
ATOM     22  C   UNL     1       5.006   4.152  15.231  0.00  0.00    +0.000 C 
ATOM     23  C   UNL     1       5.535   4.395  16.649  0.00  0.00    +0.000 C 
ATOM     24  C   UNL     1       7.079   4.330  16.678  0.00  0.00    +0.000 C 
ATOM     25  C   UNL     1       7.741   5.585  16.121  0.00  0.00    +0.000 C 
ATOM     26  C   UNL     1       7.156   6.829  16.765  0.00  0.00    +0.000 C 
ATOM     27  C   UNL     1       5.635   6.844  16.665  0.00  0.00    +0.000 C 
ATOM     28  N   UNL     1       4.953   5.650  17.211  0.00  0.00    +0.000 NA
ENDBRANCH  21  28
ENDBRANCH   1  21
TORSDOF 3
ENDMDL
MODEL 6
REMARK VINA RESULT:      -6.9      9.048     10.939
REMARK  Name = 
REMARK  4 active torsions:
REMARK  status: ('A' for Active; 'I' for Inactive)
REMARK    1  A    between atoms: C_1  and  C_2
REMARK    2  A    between atoms: N_7  and  C_8
REMARK    3  A    between atoms: C_8  and  C_9
REMARK    4  A    between atoms: C_10  and  O_11
REMARK                            x       y       z     vdW  Elec       q    Type
REMARK                         _______ _______ _______ _____ _____    ______ ____
ROOT
ATOM      1  C   UNL     1       9.818  14.006  18.124  0.00  0.00    +0.000 A 
ATOM      2  C   UNL     1      10.633  13.232  17.268  0.00  0.00    +0.000 A 
ATOM      3  C   UNL     1      11.010  11.920  17.560  0.00  0.00    +0.000 A 
ATOM      4  C   UNL     1      10.671  11.330  18.781  0.00  0.00    +0.000 A 
ATOM      5  C   UNL     1       9.877  12.090  19.637  0.00  0.00    +0.000 A 
ATOM      6  O   UNL     1       9.527  11.751  20.923  0.00  0.00    +0.000 OA
ATOM      7  C   UNL     1       8.745  12.757  21.371  0.00  0.00    +0.000 A 
ATOM      8  C   UNL     1       8.298  12.894  22.734  0.00  0.00    +0.000 A 
ATOM      9  C   UNL     1       8.550  12.031  23.789  0.00  0.00    +0.000 A 
ATOM     10  C   UNL     1       8.126  12.378  25.082  0.00  0.00    +0.000 A 
ATOM     11  C   UNL     1       7.474  13.595  25.327  0.00  0.00    +0.000 A 
ATOM     12  C   UNL     1       7.198  14.458  24.274  0.00  0.00    +0.000 A 
ATOM     13  C   UNL     1       7.592  14.086  22.999  0.00  0.00    +0.000 A 
ATOM     14  O   UNL     1       7.213  14.972  21.956  0.00  0.00    +0.000 OA
ATOM     15  C   UNL     1       7.529  14.721  20.615  0.00  0.00    +0.000 A 
ATOM     16  O   UNL     1       6.965  15.344  19.723  0.00  0.00    +0.000 OA
ATOM     17  C   UNL     1       8.494  13.677  20.380  0.00  0.00    +0.000 A 
ATOM     18  C   UNL     1       9.368  13.354  19.308  0.00  0.00    +0.000 A 
ENDROOT
BRANCH   2  19
ATOM     19  O   UNL     1      11.118  13.750  16.093  0.00  0.00    +0.000 OA
ATOM     20  H   UNL     1      11.837  14.378  16.325  0.00  0.00    +0.000 HD
ENDBRANCH   2  19
BRANCH   1  21
ATOM     21  C   UNL     1       9.615  15.499  17.910  0.00  0.00    +0.000 C 
BRANCH  21  28
ATOM     22  C   UNL     1       9.817  18.567  20.056  0.00  0.00    +0.000 C 
ATOM     23  C   UNL     1       9.654  17.775  18.753  0.00  0.00    +0.000 C 
ATOM     24  C   UNL     1      10.201  18.577  17.551  0.00  0.00    +0.000 C 
ATOM     25  C   UNL     1      11.724  18.569  17.470  0.00  0.00    +0.000 C 
ATOM     26  C   UNL     1      12.257  17.151  17.570  0.00  0.00    +0.000 C 
ATOM     27  C   UNL     1      11.706  16.435  18.797  0.00  0.00    +0.000 C 
ATOM     28  N   UNL     1      10.231  16.406  18.904  0.00  0.00    +0.000 NA
ENDBRANCH  21  28
ENDBRANCH   1  21
TORSDOF 3
ENDMDL
MODEL 7
REMARK VINA RESULT:      -6.9      3.579      7.880
REMARK  Name = 
REMARK  4 active torsions:
REMARK  status: ('A' for Active; 'I' for Inactive)
REMARK    1  A    between atoms: C_1  and  C_2
REMARK    2  A    between atoms: N_7  and  C_8
REMARK    3  A    between atoms: C_8  and  C_9
REMARK    4  A    between atoms: C_10  and  O_11
REMARK                            x       y       z     vdW  Elec       q    Type
REMARK                         _______ _______ _______ _____ _____    ______ ____
ROOT
ATOM      1  C   UNL     1      -0.340  11.021  19.760  0.00  0.00    +0.000 A 
ATOM      2  C   UNL     1      -0.954  11.744  20.808  0.00  0.00    +0.000 A 
ATOM      3  C   UNL     1      -0.837  11.380  22.151  0.00  0.00    +0.000 A 
ATOM      4  C   UNL     1      -0.175  10.207  22.522  0.00  0.00    +0.000 A 
ATOM      5  C   UNL     1       0.423   9.481  21.494  0.00  0.00    +0.000 A 
ATOM      6  O   UNL     1       1.022   8.249  21.622  0.00  0.00    +0.000 OA
ATOM      7  C   UNL     1       1.477   7.930  20.390  0.00  0.00    +0.000 A 
ATOM      8  C   UNL     1       2.019   6.644  20.033  0.00  0.00    +0.000 A 
ATOM      9  C   UNL     1       2.198   5.550  20.864  0.00  0.00    +0.000 A 
ATOM     10  C   UNL     1       2.640   4.333  20.319  0.00  0.00    +0.000 A 
ATOM     11  C   UNL     1       2.879   4.201  18.944  0.00  0.00    +0.000 A 
ATOM     12  C   UNL     1       2.724   5.297  18.104  0.00  0.00    +0.000 A 
ATOM     13  C   UNL     1       2.320   6.499  18.662  0.00  0.00    +0.000 A 
ATOM     14  O   UNL     1       2.253   7.600  17.767  0.00  0.00    +0.000 OA
ATOM     15  C   UNL     1       1.875   8.880  18.189  0.00  0.00    +0.000 A 
ATOM     16  O   UNL     1       2.087   9.852  17.473  0.00  0.00    +0.000 OA
ATOM     17  C   UNL     1       1.286   8.962  19.502  0.00  0.00    +0.000 A 
ATOM     18  C   UNL     1       0.442   9.899  20.156  0.00  0.00    +0.000 A 
ENDROOT
BRANCH   2  19
ATOM     19  O   UNL     1      -1.723  12.850  20.549  0.00  0.00    +0.000 OA
ATOM     20  H   UNL     1      -1.818  12.917  19.572  0.00  0.00    +0.000 HD
ENDBRANCH   2  19
BRANCH   1  21
ATOM     21  C   UNL     1      -0.669  11.287  18.298  0.00  0.00    +0.000 C 
BRANCH  21  28
ATOM     22  C   UNL     1      -4.379  11.499  18.797  0.00  0.00    +0.000 C 
ATOM     23  C   UNL     1      -3.029  10.801  18.593  0.00  0.00    +0.000 C 
ATOM     24  C   UNL     1      -3.208   9.478  17.816  0.00  0.00    +0.000 C 
ATOM     25  C   UNL     1      -3.426   9.687  16.322  0.00  0.00    +0.000 C 
ATOM     26  C   UNL     1      -2.364  10.609  15.750  0.00  0.00    +0.000 C 
ATOM     27  C   UNL     1      -2.271  11.908  16.542  0.00  0.00    +0.000 C 
ATOM     28  N   UNL     1      -2.042  11.748  17.995  0.00  0.00    +0.000 NA
ENDBRANCH  21  28
ENDBRANCH   1  21
TORSDOF 3
ENDMDL
MODEL 8
REMARK VINA RESULT:      -6.8      3.456      7.635
REMARK  Name = 
REMARK  4 active torsions:
REMARK  status: ('A' for Active; 'I' for Inactive)
REMARK    1  A    between atoms: C_1  and  C_2
REMARK    2  A    between atoms: N_7  and  C_8
REMARK    3  A    between atoms: C_8  and  C_9
REMARK    4  A    between atoms: C_10  and  O_11
REMARK                            x       y       z     vdW  Elec       q    Type
REMARK                         _______ _______ _______ _____ _____    ______ ____
ROOT
ATOM      1  C   UNL     1      -0.234  10.410  20.122  0.00  0.00    +0.000 A 
ATOM      2  C   UNL     1      -0.785  10.984  21.291  0.00  0.00    +0.000 A 
ATOM      3  C   UNL     1      -0.492  10.519  22.575  0.00  0.00    +0.000 A 
ATOM      4  C   UNL     1       0.300   9.384  22.764  0.00  0.00    +0.000 A 
ATOM      5  C   UNL     1       0.839   8.805  21.617  0.00  0.00    +0.000 A 
ATOM      6  O   UNL     1       1.546   7.626  21.567  0.00  0.00    +0.000 OA
ATOM      7  C   UNL     1       1.886   7.455  20.271  0.00  0.00    +0.000 A 
ATOM      8  C   UNL     1       2.488   6.258  19.741  0.00  0.00    +0.000 A 
ATOM      9  C   UNL     1       2.846   5.118  20.443  0.00  0.00    +0.000 A 
ATOM     10  C   UNL     1       3.323   3.997  19.744  0.00  0.00    +0.000 A 
ATOM     11  C   UNL     1       3.419   4.004  18.345  0.00  0.00    +0.000 A 
ATOM     12  C   UNL     1       3.083   5.148  17.632  0.00  0.00    +0.000 A 
ATOM     13  C   UNL     1       2.647   6.257  18.339  0.00  0.00    +0.000 A 
ATOM     14  O   UNL     1       2.392   7.418  17.562  0.00  0.00    +0.000 OA
ATOM     15  C   UNL     1       1.960   8.619  18.139  0.00  0.00    +0.000 A 
ATOM     16  O   UNL     1       2.012   9.663  17.499  0.00  0.00    +0.000 OA
ATOM     17  C   UNL     1       1.516   8.537  19.507  0.00  0.00    +0.000 A 
ATOM     18  C   UNL     1       0.675   9.334  20.330  0.00  0.00    +0.000 A 
ENDROOT
BRANCH   2  19
ATOM     19  O   UNL     1      -1.666  12.033  21.217  0.00  0.00    +0.000 OA
ATOM     20  H   UNL     1      -2.017  12.184  22.122  0.00  0.00    +0.000 HD
ENDBRANCH   2  19
BRANCH   1  21
ATOM     21  C   UNL     1      -0.743  10.767  18.734  0.00  0.00    +0.000 C 
BRANCH  21  28
ATOM     22  C   UNL     1      -4.109   9.210  18.182  0.00  0.00    +0.000 C 
ATOM     23  C   UNL     1      -2.630   9.491  17.893  0.00  0.00    +0.000 C 
ATOM     24  C   UNL     1      -2.341   9.408  16.378  0.00  0.00    +0.000 C 
ATOM     25  C   UNL     1      -2.815  10.637  15.610  0.00  0.00    +0.000 C 
ATOM     26  C   UNL     1      -2.315  11.908  16.273  0.00  0.00    +0.000 C 
ATOM     27  C   UNL     1      -2.669  11.937  17.755  0.00  0.00    +0.000 C 
ATOM     28  N   UNL     1      -2.210  10.770  18.540  0.00  0.00    +0.000 NA
ENDBRANCH  21  28
ENDBRANCH   1  21
TORSDOF 3
ENDMDL
MODEL 9
REMARK VINA RESULT:      -6.7      0.901      1.384
REMARK  Name = 
REMARK  4 active torsions:
REMARK  status: ('A' for Active; 'I' for Inactive)
REMARK    1  A    between atoms: C_1  and  C_2
REMARK    2  A    between atoms: N_7  and  C_8
REMARK    3  A    between atoms: C_8  and  C_9
REMARK    4  A    between atoms: C_10  and  O_11
REMARK                            x       y       z     vdW  Elec       q    Type
REMARK                         _______ _______ _______ _____ _____    ______ ____
ROOT
ATOM      1  C   UNL     1       3.280   5.058  18.593  0.00  0.00    +0.000 A 
ATOM      2  C   UNL     1       3.370   3.704  18.988  0.00  0.00    +0.000 A 
ATOM      3  C   UNL     1       2.630   3.171  20.045  0.00  0.00    +0.000 A 
ATOM      4  C   UNL     1       1.821   3.988  20.839  0.00  0.00    +0.000 A 
ATOM      5  C   UNL     1       1.734   5.326  20.464  0.00  0.00    +0.000 A 
ATOM      6  O   UNL     1       1.091   6.319  21.167  0.00  0.00    +0.000 OA
ATOM      7  C   UNL     1       1.243   7.446  20.439  0.00  0.00    +0.000 A 
ATOM      8  C   UNL     1       0.872   8.763  20.891  0.00  0.00    +0.000 A 
ATOM      9  C   UNL     1       0.282   9.097  22.099  0.00  0.00    +0.000 A 
ATOM     10  C   UNL     1       0.089  10.451  22.423  0.00  0.00    +0.000 A 
ATOM     11  C   UNL     1       0.507  11.468  21.554  0.00  0.00    +0.000 A 
ATOM     12  C   UNL     1       1.081  11.145  20.331  0.00  0.00    +0.000 A 
ATOM     13  C   UNL     1       1.233   9.805  20.012  0.00  0.00    +0.000 A 
ATOM     14  O   UNL     1       1.755   9.537  18.718  0.00  0.00    +0.000 OA
ATOM     15  C   UNL     1       1.950   8.232  18.251  0.00  0.00    +0.000 A 
ATOM     16  O   UNL     1       2.136   8.028  17.056  0.00  0.00    +0.000 OA
ATOM     17  C   UNL     1       1.868   7.189  19.241  0.00  0.00    +0.000 A 
ATOM     18  C   UNL     1       2.354   5.856  19.324  0.00  0.00    +0.000 A 
ENDROOT
BRANCH   2  19
ATOM     19  O   UNL     1       4.220   2.836  18.349  0.00  0.00    +0.000 OA
ATOM     20  H   UNL     1       3.666   2.135  17.939  0.00  0.00    +0.000 HD
ENDBRANCH   2  19
BRANCH   1  21
ATOM     21  C   UNL     1       4.258   5.676  17.606  0.00  0.00    +0.000 C 
BRANCH  21  28
ATOM     22  C   UNL     1       7.270   7.908  17.504  0.00  0.00    +0.000 C 
ATOM     23  C   UNL     1       6.381   6.731  17.083  0.00  0.00    +0.000 C 
ATOM     24  C   UNL     1       7.239   5.547  16.582  0.00  0.00    +0.000 C 
ATOM     25  C   UNL     1       7.894   4.763  17.714  0.00  0.00    +0.000 C 
ATOM     26  C   UNL     1       6.869   4.389  18.769  0.00  0.00    +0.000 C 
ATOM     27  C   UNL     1       6.089   5.610  19.243  0.00  0.00    +0.000 C 
ATOM     28  N   UNL     1       5.423   6.389  18.176  0.00  0.00    +0.000 NA
ENDBRANCH  21  28
ENDBRANCH   1  21
TORSDOF 3
ENDMDL
