MODEL 1
REMARK VINA RESULT:      -6.5      0.000      0.000
REMARK  Name = 
REMARK  6 active torsions:
REMARK  status: ('A' for Active; 'I' for Inactive)
REMARK    1  A    between atoms: C_1  and  C_2
REMARK    2  A    between atoms: C_2  and  C_3
REMARK    3  A    between atoms: C_2  and  C_4
REMARK    4  A    between atoms: C_7  and  N_8
REMARK    5  A    between atoms: C_9  and  C_11
REMARK    6  A    between atoms: N_16  and  C_17
REMARK                            x       y       z     vdW  Elec       q    Type
REMARK                         _______ _______ _______ _____ _____    ______ ____
ROOT
ATOM      1  N   UNL     1       4.222   4.733  17.674  0.00  0.00    +0.000 N 
ATOM      2  C   UNL     1       4.488   4.189  18.925  0.00  0.00    +0.000 C 
ATOM      3  O   UNL     1       5.528   3.619  19.246  0.00  0.00    +0.000 OA
ATOM      4  H   UNL     1       3.322   5.202  17.610  0.00  0.00    +0.000 HD
ENDROOT
BRANCH   2   5
ATOM      5  C   UNL     1       3.284   4.224  19.891  0.00  0.00    +0.000 C 
ATOM      6  C   UNL     1       2.108   4.992  19.243  0.00  0.00    +0.000 C 
ATOM      7  O   UNL     1       1.391   4.203  18.283  0.00  0.00    +0.000 OA
ATOM      8  C   UNL     1       0.922   2.987  18.861  0.00  0.00    +0.000 C 
ATOM      9  C   UNL     1       2.092   2.155  19.406  0.00  0.00    +0.000 C 
ATOM     10  N   UNL     1       2.945   2.854  20.398  0.00  0.00    +0.000 NA
ATOM     11  C   UNL     1       2.261   2.953  21.693  0.00  0.00    +0.000 C 
ENDBRANCH   2   5
BRANCH   1  15
ATOM     12  C   UNL     1       6.751   4.633  14.259  0.00  0.00    +0.000 A 
ATOM     13  C   UNL     1       7.198   5.207  15.454  0.00  0.00    +0.000 A 
ATOM     14  C   UNL     1       6.371   5.257  16.580  0.00  0.00    +0.000 A 
ATOM     15  C   UNL     1       5.076   4.740  16.553  0.00  0.00    +0.000 A 
ATOM     16  C   UNL     1       4.615   4.181  15.355  0.00  0.00    +0.000 A 
ATOM     17  C   UNL     1       5.442   4.133  14.218  0.00  0.00    +0.000 A 
BRANCH  12  19
ATOM     18  C   UNL     1       7.026   3.937  11.855  0.00  0.00    +0.000 C 
ATOM     19  C   UNL     1       7.707   4.545  13.083  0.00  0.00    +0.000 C 
ATOM     20  C   UNL     1       8.349   5.892  12.749  0.00  0.00    +0.000 C 
ENDBRANCH  12  19
ENDBRANCH   1  15
TORSDOF 3
ENDMDL
MODEL 2
REMARK VINA RESULT:      -6.4      0.195      1.098
REMARK  Name = 
REMARK  6 active torsions:
REMARK  status: ('A' for Active; 'I' for Inactive)
REMARK    1  A    between atoms: C_1  and  C_2
REMARK    2  A    between atoms: C_2  and  C_3
REMARK    3  A    between atoms: C_2  and  C_4
REMARK    4  A    between atoms: C_7  and  N_8
REMARK    5  A    between atoms: C_9  and  C_11
REMARK    6  A    between atoms: N_16  and  C_17
REMARK                            x       y       z     vdW  Elec       q    Type
REMARK                         _______ _______ _______ _____ _____    ______ ____
ROOT
ATOM      1  N   UNL     1       4.209   4.647  17.641  0.00  0.00    +0.000 N 
ATOM      2  C   UNL     1       4.475   4.242  18.943  0.00  0.00    +0.000 C 
ATOM      3  O   UNL     1       5.535   3.757  19.335  0.00  0.00    +0.000 OA
ATOM      4  H   UNL     1       3.290   5.064  17.517  0.00  0.00    +0.000 HD
ENDROOT
BRANCH   2   5
ATOM      5  C   UNL     1       3.253   4.315  19.883  0.00  0.00    +0.000 C 
ATOM      6  C   UNL     1       2.075   5.017  19.166  0.00  0.00    +0.000 C 
ATOM      7  O   UNL     1       1.392   4.156  18.245  0.00  0.00    +0.000 OA
ATOM      8  C   UNL     1       0.935   2.969  18.890  0.00  0.00    +0.000 C 
ATOM      9  C   UNL     1       2.109   2.197  19.508  0.00  0.00    +0.000 C 
ATOM     10  N   UNL     1       2.929   2.973  20.470  0.00  0.00    +0.000 NA
ATOM     11  C   UNL     1       2.219   3.140  21.742  0.00  0.00    +0.000 C 
ENDBRANCH   2   5
BRANCH   1  15
ATOM     12  C   UNL     1       6.866   4.591  14.324  0.00  0.00    +0.000 A 
ATOM     13  C   UNL     1       5.726   3.781  14.330  0.00  0.00    +0.000 A 
ATOM     14  C   UNL     1       4.852   3.782  15.420  0.00  0.00    +0.000 A 
ATOM     15  C   UNL     1       5.084   4.585  16.537  0.00  0.00    +0.000 A 
ATOM     16  C   UNL     1       6.234   5.383  16.546  0.00  0.00    +0.000 A 
ATOM     17  C   UNL     1       7.119   5.382  15.453  0.00  0.00    +0.000 A 
BRANCH  12  19
ATOM     18  C   UNL     1       7.009   4.071  11.863  0.00  0.00    +0.000 C 
ATOM     19  C   UNL     1       7.753   4.603  13.090  0.00  0.00    +0.000 C 
ATOM     20  C   UNL     1       8.356   5.981  12.817  0.00  0.00    +0.000 C 
ENDBRANCH  12  19
ENDBRANCH   1  15
TORSDOF 3
ENDMDL
MODEL 3
REMARK VINA RESULT:      -6.4      0.690      1.303
REMARK  Name = 
REMARK  6 active torsions:
REMARK  status: ('A' for Active; 'I' for Inactive)
REMARK    1  A    between atoms: C_1  and  C_2
REMARK    2  A    between atoms: C_2  and  C_3
REMARK    3  A    between atoms: C_2  and  C_4
REMARK    4  A    between atoms: C_7  and  N_8
REMARK    5  A    between atoms: C_9  and  C_11
REMARK    6  A    between atoms: N_16  and  C_17
REMARK                            x       y       z     vdW  Elec       q    Type
REMARK                         _______ _______ _______ _____ _____    ______ ____
ROOT
ATOM      1  N   UNL     1       3.948   4.621  17.780  0.00  0.00    +0.000 N 
ATOM      2  C   UNL     1       4.361   4.263  19.058  0.00  0.00    +0.000 C 
ATOM      3  O   UNL     1       5.508   3.952  19.373  0.00  0.00    +0.000 OA
ATOM      4  H   UNL     1       2.969   4.887  17.721  0.00  0.00    +0.000 HD
ENDROOT
BRANCH   2   5
ATOM      5  C   UNL     1       3.208   4.140  20.076  0.00  0.00    +0.000 C 
ATOM      6  C   UNL     1       1.953   4.871  19.545  0.00  0.00    +0.000 C 
ATOM      7  O   UNL     1       1.243   4.111  18.557  0.00  0.00    +0.000 OA
ATOM      8  C   UNL     1       0.884   2.824  19.057  0.00  0.00    +0.000 C 
ATOM      9  C   UNL     1       2.132   2.037  19.481  0.00  0.00    +0.000 C 
ATOM     10  N   UNL     1       2.986   2.715  20.487  0.00  0.00    +0.000 NA
ATOM     11  C   UNL     1       2.362   2.667  21.814  0.00  0.00    +0.000 C 
ENDBRANCH   2   5
BRANCH   1  15
ATOM     12  C   UNL     1       6.281   4.958  14.242  0.00  0.00    +0.000 A 
ATOM     13  C   UNL     1       5.977   3.700  14.772  0.00  0.00    +0.000 A 
ATOM     14  C   UNL     1       5.222   3.577  15.941  0.00  0.00    +0.000 A 
ATOM     15  C   UNL     1       4.747   4.698  16.620  0.00  0.00    +0.000 A 
ATOM     16  C   UNL     1       5.063   5.962  16.107  0.00  0.00    +0.000 A 
ATOM     17  C   UNL     1       5.828   6.091  14.933  0.00  0.00    +0.000 A 
BRANCH  12  19
ATOM     18  C   UNL     1       8.489   5.513  13.164  0.00  0.00    +0.000 C 
ATOM     19  C   UNL     1       7.051   5.040  12.936  0.00  0.00    +0.000 C 
ATOM     20  C   UNL     1       7.019   3.726  12.154  0.00  0.00    +0.000 C 
ENDBRANCH  12  19
ENDBRANCH   1  15
TORSDOF 3
ENDMDL
MODEL 4
REMARK VINA RESULT:      -6.3      4.495      6.776
REMARK  Name = 
REMARK  6 active torsions:
REMARK  status: ('A' for Active; 'I' for Inactive)
REMARK    1  A    between atoms: C_1  and  C_2
REMARK    2  A    between atoms: C_2  and  C_3
REMARK    3  A    between atoms: C_2  and  C_4
REMARK    4  A    between atoms: C_7  and  N_8
REMARK    5  A    between atoms: C_9  and  C_11
REMARK    6  A    between atoms: N_16  and  C_17
REMARK                            x       y       z     vdW  Elec       q    Type
REMARK                         _______ _______ _______ _____ _____    ______ ____
ROOT
ATOM      1  N   UNL     1       2.201   6.515  20.076  0.00  0.00    +0.000 N 
ATOM      2  C   UNL     1       3.228   5.763  19.518  0.00  0.00    +0.000 C 
ATOM      3  O   UNL     1       3.993   6.148  18.635  0.00  0.00    +0.000 OA
ATOM      4  H   UNL     1       1.702   6.041  20.824  0.00  0.00    +0.000 HD
ENDROOT
BRANCH   2   5
ATOM      5  C   UNL     1       3.263   4.297  19.999  0.00  0.00    +0.000 C 
ATOM      6  C   UNL     1       2.177   4.068  21.076  0.00  0.00    +0.000 C 
ATOM      7  O   UNL     1       0.864   3.917  20.518  0.00  0.00    +0.000 OA
ATOM      8  C   UNL     1       0.831   2.863  19.557  0.00  0.00    +0.000 C 
ATOM      9  C   UNL     1       1.822   3.134  18.417  0.00  0.00    +0.000 C 
ATOM     10  N   UNL     1       3.227   3.338  18.847  0.00  0.00    +0.000 NA
ATOM     11  C   UNL     1       3.842   2.064  19.235  0.00  0.00    +0.000 C 
ENDBRANCH   2   5
BRANCH   1  15
ATOM     12  C   UNL     1       1.013  10.493  19.165  0.00  0.00    +0.000 A 
ATOM     13  C   UNL     1       1.633   9.700  18.194  0.00  0.00    +0.000 A 
ATOM     14  C   UNL     1       2.040   8.395  18.485  0.00  0.00    +0.000 A 
ATOM     15  C   UNL     1       1.844   7.839  19.749  0.00  0.00    +0.000 A 
ATOM     16  C   UNL     1       1.242   8.634  20.732  0.00  0.00    +0.000 A 
ATOM     17  C   UNL     1       0.835   9.949  20.445  0.00  0.00    +0.000 A 
BRANCH  12  19
ATOM     18  C   UNL     1      -0.421  12.452  19.836  0.00  0.00    +0.000 C 
ATOM     19  C   UNL     1       0.533  11.882  18.783  0.00  0.00    +0.000 C 
ATOM     20  C   UNL     1       1.687  12.845  18.504  0.00  0.00    +0.000 C 
ENDBRANCH  12  19
ENDBRANCH   1  15
TORSDOF 3
ENDMDL
MODEL 5
REMARK VINA RESULT:      -6.2      3.682      7.707
REMARK  Name = 
REMARK  6 active torsions:
REMARK  status: ('A' for Active; 'I' for Inactive)
REMARK    1  A    between atoms: C_1  and  C_2
REMARK    2  A    between atoms: C_2  and  C_3
REMARK    3  A    between atoms: C_2  and  C_4
REMARK    4  A    between atoms: C_7  and  N_8
REMARK    5  A    between atoms: C_9  and  C_11
REMARK    6  A    between atoms: N_16  and  C_17
REMARK                            x       y       z     vdW  Elec       q    Type
REMARK                         _______ _______ _______ _____ _____    ______ ____
ROOT
ATOM      1  N   UNL     1       3.235   7.218  17.923  0.00  0.00    +0.000 N 
ATOM      2  C   UNL     1       3.361   5.859  17.657  0.00  0.00    +0.000 C 
ATOM      3  O   UNL     1       2.709   4.966  18.192  0.00  0.00    +0.000 OA
ATOM      4  H   UNL     1       3.831   7.809  17.350  0.00  0.00    +0.000 HD
ENDROOT
BRANCH   2   5
ATOM      5  C   UNL     1       4.524   5.515  16.702  0.00  0.00    +0.000 C 
ATOM      6  C   UNL     1       5.404   6.766  16.466  0.00  0.00    +0.000 C 
ATOM      7  O   UNL     1       6.297   7.030  17.557  0.00  0.00    +0.000 OA
ATOM      8  C   UNL     1       7.120   5.899  17.836  0.00  0.00    +0.000 C 
ATOM      9  C   UNL     1       6.263   4.675  18.187  0.00  0.00    +0.000 C 
ATOM     10  N   UNL     1       5.266   4.294  17.156  0.00  0.00    +0.000 NA
ATOM     11  C   UNL     1       5.923   3.651  16.013  0.00  0.00    +0.000 C 
ENDBRANCH   2   5
BRANCH   1  15
ATOM     12  C   UNL     1       0.608   9.167  20.638  0.00  0.00    +0.000 A 
ATOM     13  C   UNL     1       1.281   8.002  21.019  0.00  0.00    +0.000 A 
ATOM     14  C   UNL     1       2.138   7.345  20.131  0.00  0.00    +0.000 A 
ATOM     15  C   UNL     1       2.351   7.824  18.838  0.00  0.00    +0.000 A 
ATOM     16  C   UNL     1       1.665   8.980  18.444  0.00  0.00    +0.000 A 
ATOM     17  C   UNL     1       0.799   9.641  19.332  0.00  0.00    +0.000 A 
BRANCH  12  19
ATOM     18  C   UNL     1       0.076   9.441  23.085  0.00  0.00    +0.000 C 
ATOM     19  C   UNL     1      -0.262   9.880  21.658  0.00  0.00    +0.000 C 
ATOM     20  C   UNL     1      -0.200  11.401  21.518  0.00  0.00    +0.000 C 
ENDBRANCH  12  19
ENDBRANCH   1  15
TORSDOF 3
ENDMDL
MODEL 6
REMARK VINA RESULT:      -6.1      4.209      7.679
REMARK  Name = 
REMARK  6 active torsions:
REMARK  status: ('A' for Active; 'I' for Inactive)
REMARK    1  A    between atoms: C_1  and  C_2
REMARK    2  A    between atoms: C_2  and  C_3
REMARK    3  A    between atoms: C_2  and  C_4
REMARK    4  A    between atoms: C_7  and  N_8
REMARK    5  A    between atoms: C_9  and  C_11
REMARK    6  A    between atoms: N_16  and  C_17
REMARK                            x       y       z     vdW  Elec       q    Type
REMARK                         _______ _______ _______ _____ _____    ______ ____
ROOT
ATOM      1  N   UNL     1       2.550   6.746  19.881  0.00  0.00    +0.000 N 
ATOM      2  C   UNL     1       2.212   5.422  20.134  0.00  0.00    +0.000 C 
ATOM      3  O   UNL     1       1.163   5.043  20.652  0.00  0.00    +0.000 OA
ATOM      4  H   UNL     1       3.443   6.862  19.408  0.00  0.00    +0.000 HD
ENDROOT
BRANCH   2   5
ATOM      5  C   UNL     1       3.346   4.419  19.837  0.00  0.00    +0.000 C 
ATOM      6  C   UNL     1       2.874   2.979  20.147  0.00  0.00    +0.000 C 
ATOM      7  O   UNL     1       2.039   2.433  19.116  0.00  0.00    +0.000 OA
ATOM      8  C   UNL     1       2.692   2.471  17.849  0.00  0.00    +0.000 C 
ATOM      9  C   UNL     1       3.064   3.912  17.471  0.00  0.00    +0.000 C 
ATOM     10  N   UNL     1       3.911   4.619  18.462  0.00  0.00    +0.000 NA
ATOM     11  C   UNL     1       5.292   4.125  18.411  0.00  0.00    +0.000 C 
ENDBRANCH   2   5
BRANCH   1  15
ATOM     12  C   UNL     1       0.290  10.264  20.645  0.00  0.00    +0.000 A 
ATOM     13  C   UNL     1       0.511   9.331  21.662  0.00  0.00    +0.000 A 
ATOM     14  C   UNL     1       1.242   8.165  21.420  0.00  0.00    +0.000 A 
ATOM     15  C   UNL     1       1.774   7.890  20.161  0.00  0.00    +0.000 A 
ATOM     16  C   UNL     1       1.541   8.810  19.132  0.00  0.00    +0.000 A 
ATOM     17  C   UNL     1       0.801   9.983  19.370  0.00  0.00    +0.000 A 
BRANCH  12  19
ATOM     18  C   UNL     1      -1.600  11.793  19.985  0.00  0.00    +0.000 C 
ATOM     19  C   UNL     1      -0.456  11.547  20.972  0.00  0.00    +0.000 C 
ATOM     20  C   UNL     1      -0.954  11.581  22.416  0.00  0.00    +0.000 C 
ENDBRANCH  12  19
ENDBRANCH   1  15
TORSDOF 3
ENDMDL
MODEL 7
REMARK VINA RESULT:      -6.1      5.752      7.540
REMARK  Name = 
REMARK  6 active torsions:
REMARK  status: ('A' for Active; 'I' for Inactive)
REMARK    1  A    between atoms: C_1  and  C_2
REMARK    2  A    between atoms: C_2  and  C_3
REMARK    3  A    between atoms: C_2  and  C_4
REMARK    4  A    between atoms: C_7  and  N_8
REMARK    5  A    between atoms: C_9  and  C_11
REMARK    6  A    between atoms: N_16  and  C_17
REMARK                            x       y       z     vdW  Elec       q    Type
REMARK                         _______ _______ _______ _____ _____    ______ ____
ROOT
ATOM      1  N   UNL     1       7.779   8.543  17.527  0.00  0.00    +0.000 N 
ATOM      2  C   UNL     1       7.791   7.231  17.984  0.00  0.00    +0.000 C 
ATOM      3  O   UNL     1       8.357   6.838  19.002  0.00  0.00    +0.000 OA
ATOM      4  H   UNL     1       7.222   8.683  16.688  0.00  0.00    +0.000 HD
ENDROOT
BRANCH   2   5
ATOM      5  C   UNL     1       7.136   6.224  17.014  0.00  0.00    +0.000 C 
ATOM      6  C   UNL     1       7.419   4.777  17.482  0.00  0.00    +0.000 C 
ATOM      7  O   UNL     1       6.578   4.370  18.570  0.00  0.00    +0.000 OA
ATOM      8  C   UNL     1       5.198   4.515  18.238  0.00  0.00    +0.000 C 
ATOM      9  C   UNL     1       4.874   5.973  17.883  0.00  0.00    +0.000 C 
ATOM     10  N   UNL     1       5.689   6.544  16.784  0.00  0.00    +0.000 NA
ATOM     11  C   UNL     1       5.258   6.012  15.486  0.00  0.00    +0.000 C 
ENDBRANCH   2   5
BRANCH   1  15
ATOM     12  C   UNL     1       9.675  11.949  19.222  0.00  0.00    +0.000 A 
ATOM     13  C   UNL     1       9.766  10.704  19.850  0.00  0.00    +0.000 A 
ATOM     14  C   UNL     1       9.136   9.579  19.309  0.00  0.00    +0.000 A 
ATOM     15  C   UNL     1       8.397   9.658  18.129  0.00  0.00    +0.000 A 
ATOM     16  C   UNL     1       8.285  10.906  17.504  0.00  0.00    +0.000 A 
ATOM     17  C   UNL     1       8.913  12.041  18.048  0.00  0.00    +0.000 A 
BRANCH  12  19
ATOM     18  C   UNL     1      10.016  13.381  21.265  0.00  0.00    +0.000 C 
ATOM     19  C   UNL     1      10.428  13.128  19.813  0.00  0.00    +0.000 C 
ATOM     20  C   UNL     1      11.944  12.977  19.686  0.00  0.00    +0.000 C 
ENDBRANCH  12  19
ENDBRANCH   1  15
TORSDOF 3
ENDMDL
MODEL 8
REMARK VINA RESULT:      -6.1      4.772      8.198
REMARK  Name = 
REMARK  6 active torsions:
REMARK  status: ('A' for Active; 'I' for Inactive)
REMARK    1  A    between atoms: C_1  and  C_2
REMARK    2  A    between atoms: C_2  and  C_3
REMARK    3  A    between atoms: C_2  and  C_4
REMARK    4  A    between atoms: C_7  and  N_8
REMARK    5  A    between atoms: C_9  and  C_11
REMARK    6  A    between atoms: N_16  and  C_17
REMARK                            x       y       z     vdW  Elec       q    Type
REMARK                         _______ _______ _______ _____ _____    ______ ____
ROOT
ATOM      1  N   UNL     1       1.920   7.102  20.657  0.00  0.00    +0.000 N 
ATOM      2  C   UNL     1       2.625   6.653  19.546  0.00  0.00    +0.000 C 
ATOM      3  O   UNL     1       2.821   7.299  18.519  0.00  0.00    +0.000 OA
ATOM      4  H   UNL     1       1.898   6.441  21.428  0.00  0.00    +0.000 HD
ENDROOT
BRANCH   2   5
ATOM      5  C   UNL     1       3.047   5.170  19.632  0.00  0.00    +0.000 C 
ATOM      6  C   UNL     1       2.322   4.480  20.811  0.00  0.00    +0.000 C 
ATOM      7  O   UNL     1       0.963   4.138  20.505  0.00  0.00    +0.000 OA
ATOM      8  C   UNL     1       0.888   3.321  19.339  0.00  0.00    +0.000 C 
ATOM      9  C   UNL     1       1.499   4.040  18.128  0.00  0.00    +0.000 C 
ATOM     10  N   UNL     1       2.904   4.480  18.308  0.00  0.00    +0.000 NA
ATOM     11  C   UNL     1       3.820   3.336  18.237  0.00  0.00    +0.000 C 
ENDBRANCH   2   5
BRANCH   1  15
ATOM     12  C   UNL     1      -0.015  10.843  21.236  0.00  0.00    +0.000 A 
ATOM     13  C   UNL     1       0.476  10.488  19.976  0.00  0.00    +0.000 A 
ATOM     14  C   UNL     1       1.125   9.267  19.776  0.00  0.00    +0.000 A 
ATOM     15  C   UNL     1       1.307   8.361  20.821  0.00  0.00    +0.000 A 
ATOM     16  C   UNL     1       0.835   8.717  22.090  0.00  0.00    +0.000 A 
ATOM     17  C   UNL     1       0.186   9.948  22.297  0.00  0.00    +0.000 A 
BRANCH  12  19
ATOM     18  C   UNL     1      -1.921  12.254  20.388  0.00  0.00    +0.000 C 
ATOM     19  C   UNL     1      -0.768  12.152  21.391  0.00  0.00    +0.000 C 
ATOM     20  C   UNL     1      -1.258  12.380  22.821  0.00  0.00    +0.000 C 
ENDBRANCH  12  19
ENDBRANCH   1  15
TORSDOF 3
ENDMDL
MODEL 9
REMARK VINA RESULT:      -6.1      3.940      6.412
REMARK  Name = 
REMARK  6 active torsions:
REMARK  status: ('A' for Active; 'I' for Inactive)
REMARK    1  A    between atoms: C_1  and  C_2
REMARK    2  A    between atoms: C_2  and  C_3
REMARK    3  A    between atoms: C_2  and  C_4
REMARK    4  A    between atoms: C_7  and  N_8
REMARK    5  A    between atoms: C_9  and  C_11
REMARK    6  A    between atoms: N_16  and  C_17
REMARK                            x       y       z     vdW  Elec       q    Type
REMARK                         _______ _______ _______ _____ _____    ______ ____
ROOT
ATOM      1  N   UNL     1       2.149   6.065  19.767  0.00  0.00    +0.000 N 
ATOM      2  C   UNL     1       3.363   5.387  19.770  0.00  0.00    +0.000 C 
ATOM      3  O   UNL     1       4.456   5.886  19.511  0.00  0.00    +0.000 OA
ATOM      4  H   UNL     1       1.356   5.494  20.049  0.00  0.00    +0.000 HD
ENDROOT
BRANCH   2   5
ATOM      5  C   UNL     1       3.229   3.866  19.993  0.00  0.00    +0.000 C 
ATOM      6  C   UNL     1       1.772   3.418  19.729  0.00  0.00    +0.000 C 
ATOM      7  O   UNL     1       1.471   3.300  18.332  0.00  0.00    +0.000 OA
ATOM      8  C   UNL     1       2.381   2.415  17.681  0.00  0.00    +0.000 C 
ATOM      9  C   UNL     1       3.826   2.910  17.833  0.00  0.00    +0.000 C 
ATOM     10  N   UNL     1       4.274   3.104  19.234  0.00  0.00    +0.000 NA
ATOM     11  C   UNL     1       4.525   1.813  19.883  0.00  0.00    +0.000 C 
ENDBRANCH   2   5
BRANCH   1  15
ATOM     12  C   UNL     1       1.400  10.171  18.961  0.00  0.00    +0.000 A 
ATOM     13  C   UNL     1       1.956   9.347  17.977  0.00  0.00    +0.000 A 
ATOM     14  C   UNL     1       2.219   7.998  18.234  0.00  0.00    +0.000 A 
ATOM     15  C   UNL     1       1.938   7.428  19.476  0.00  0.00    +0.000 A 
ATOM     16  C   UNL     1       1.399   8.251  20.472  0.00  0.00    +0.000 A 
ATOM     17  C   UNL     1       1.138   9.610  20.219  0.00  0.00    +0.000 A 
BRANCH  12  19
ATOM     18  C   UNL     1       0.283  12.291  19.735  0.00  0.00    +0.000 C 
ATOM     19  C   UNL     1       1.075  11.613  18.614  0.00  0.00    +0.000 C 
ATOM     20  C   UNL     1       2.320  12.422  18.250  0.00  0.00    +0.000 C 
ENDBRANCH  12  19
ENDBRANCH   1  15
TORSDOF 3
ENDMDL
