MODEL 1
REMARK VINA RESULT:      -7.9      0.000      0.000
REMARK  Name = 
REMARK  6 active torsions:
REMARK  status: ('A' for Active; 'I' for Inactive)
REMARK    1  A    between atoms: C_2  and  C_3
REMARK    2  A    between atoms: N_12  and  C_13
REMARK    3  A    between atoms: N_12  and  C_23
REMARK    4  A    between atoms: C_13  and  C_14
REMARK    5  A    between atoms: C_14  and  O_15
REMARK    6  A    between atoms: O_15  and  C_16
REMARK                            x       y       z     vdW  Elec       q    Type
REMARK                         _______ _______ _______ _____ _____    ______ ____
ROOT
ATOM      1  O   UNL     1      -0.132  10.473  22.889  0.00  0.00    +0.000 OA
ATOM      2  C   UNL     1      -0.233  11.168  21.883  0.00  0.00    +0.000 C 
ATOM      3  N   UNL     1      -0.081  10.604  20.584  0.00  0.00    +0.000 N 
ENDROOT
BRANCH   3   4
ATOM      4  C   UNL     1      -0.237  11.378  19.319  0.00  0.00    +0.000 C 
ATOM      5  C   UNL     1      -0.395  10.490  18.074  0.00  0.00    +0.000 C 
ATOM      6  C   UNL     1      -1.787   9.891  17.893  0.00  0.00    +0.000 C 
ATOM      7  C   UNL     1      -2.948  10.876  18.058  0.00  0.00    +0.000 C 
ATOM      8  C   UNL     1      -2.758  11.952  19.142  0.00  0.00    +0.000 C 
ATOM      9  C   UNL     1      -1.329  12.457  19.322  0.00  0.00    +0.000 C 
ATOM     10  O   UNL     1      -3.204  11.534  16.814  0.00  0.00    +0.000 OA
ATOM     11  C   UNL     1      -4.627  11.673  16.734  0.00  0.00    +0.000 C 
ATOM     12  C   UNL     1      -5.214  10.792  17.812  0.00  0.00    +0.000 C 
ATOM     13  O   UNL     1      -4.112  10.106  18.391  0.00  0.00    +0.000 OA
ENDBRANCH   3   4
BRANCH   2  14
ATOM     14  C   UNL     1      -0.538  12.579  22.142  0.00  0.00    +0.000 A 
ATOM     15  C   UNL     1       0.302  13.656  21.965  0.00  0.00    +0.000 A 
ATOM     16  S   UNL     1      -0.272  15.084  22.706  0.00  0.00    +0.000 S 
ATOM     17  C   UNL     1      -1.665  14.295  23.331  0.00  0.00    +0.000 A 
ATOM     18  C   UNL     1      -2.642  14.839  24.195  0.00  0.00    +0.000 A 
ATOM     19  C   UNL     1      -3.738  14.057  24.569  0.00  0.00    +0.000 A 
ATOM     20  C   UNL     1      -3.869  12.762  24.096  0.00  0.00    +0.000 A 
ATOM     21  C   UNL     1      -2.881  12.218  23.272  0.00  0.00    +0.000 A 
ATOM     22  C   UNL     1      -1.739  12.977  22.882  0.00  0.00    +0.000 A 
ENDBRANCH   2  14
BRANCH   3  23
ATOM     23  C   UNL     1       0.110   9.121  20.478  0.00  0.00    +0.000 C 
BRANCH  23  24
ATOM     24  C   UNL     1       1.484   8.544  20.818  0.00  0.00    +0.000 C 
BRANCH  24  25
ATOM     25  O   UNL     1       2.198   7.990  19.709  0.00  0.00    +0.000 OA
BRANCH  25  26
ATOM     26  C   UNL     1       1.992   6.627  19.594  0.00  0.00    +0.000 A 
ATOM     27  C   UNL     1       1.627   5.772  20.649  0.00  0.00    +0.000 A 
ATOM     28  C   UNL     1       1.441   4.403  20.433  0.00  0.00    +0.000 A 
ATOM     29  C   UNL     1       1.615   3.882  19.163  0.00  0.00    +0.000 A 
ATOM     30 CL   UNL     1       1.388   2.200  18.905  0.00  0.00    +0.000 Cl
ATOM     31  C   UNL     1       1.974   4.717  18.105  0.00  0.00    +0.000 A 
ATOM     32  C   UNL     1       2.161   6.088  18.319  0.00  0.00    +0.000 A 
ENDBRANCH  25  26
ENDBRANCH  24  25
ENDBRANCH  23  24
ENDBRANCH   3  23
TORSDOF 6
ENDMDL
MODEL 2
REMARK VINA RESULT:      -7.8      0.847      1.208
REMARK  Name = 
REMARK  6 active torsions:
REMARK  status: ('A' for Active; 'I' for Inactive)
REMARK    1  A    between atoms: C_2  and  C_3
REMARK    2  A    between atoms: N_12  and  C_13
REMARK    3  A    between atoms: N_12  and  C_23
REMARK    4  A    between atoms: C_13  and  C_14
REMARK    5  A    between atoms: C_14  and  O_15
REMARK    6  A    between atoms: O_15  and  C_16
REMARK                            x       y       z     vdW  Elec       q    Type
REMARK                         _______ _______ _______ _____ _____    ______ ____
ROOT
ATOM      1  O   UNL     1      -0.223  10.848  23.014  0.00  0.00    +0.000 OA
ATOM      2  C   UNL     1      -0.368  11.534  22.007  0.00  0.00    +0.000 C 
ATOM      3  N   UNL     1      -0.307  10.954  20.708  0.00  0.00    +0.000 N 
ENDROOT
BRANCH   3   4
ATOM      4  C   UNL     1      -0.521  11.720  19.446  0.00  0.00    +0.000 C 
ATOM      5  C   UNL     1      -0.632  10.825  18.200  0.00  0.00    +0.000 C 
ATOM      6  C   UNL     1      -1.984  10.140  18.028  0.00  0.00    +0.000 C 
ATOM      7  C   UNL     1      -3.204  11.049  18.204  0.00  0.00    +0.000 C 
ATOM      8  C   UNL     1      -3.075  12.133  19.289  0.00  0.00    +0.000 C 
ATOM      9  C   UNL     1      -1.679  12.728  19.460  0.00  0.00    +0.000 C 
ATOM     10  O   UNL     1      -3.510  11.692  16.963  0.00  0.00    +0.000 OA
ATOM     11  C   UNL     1      -4.940  11.741  16.894  0.00  0.00    +0.000 C 
ATOM     12  C   UNL     1      -5.462  10.822  17.974  0.00  0.00    +0.000 C 
ATOM     13  O   UNL     1      -4.315  10.207  18.544  0.00  0.00    +0.000 OA
ENDBRANCH   3   4
BRANCH   2  14
ATOM     14  C   UNL     1      -0.625  12.954  22.268  0.00  0.00    +0.000 A 
ATOM     15  C   UNL     1       0.248  14.004  22.090  0.00  0.00    +0.000 A 
ATOM     16  S   UNL     1      -0.276  15.449  22.833  0.00  0.00    +0.000 S 
ATOM     17  C   UNL     1      -1.692  14.706  23.462  0.00  0.00    +0.000 A 
ATOM     18  C   UNL     1      -2.648  15.281  24.329  0.00  0.00    +0.000 A 
ATOM     19  C   UNL     1      -3.768  14.536  24.706  0.00  0.00    +0.000 A 
ATOM     20  C   UNL     1      -3.943  13.246  24.232  0.00  0.00    +0.000 A 
ATOM     21  C   UNL     1      -2.977  12.670  23.405  0.00  0.00    +0.000 A 
ATOM     22  C   UNL     1      -1.811  13.391  23.012  0.00  0.00    +0.000 A 
ENDBRANCH   2  14
BRANCH   3  23
ATOM     23  C   UNL     1      -0.156   9.467  20.608  0.00  0.00    +0.000 C 
BRANCH  23  24
ATOM     24  C   UNL     1       1.252   8.876  20.695  0.00  0.00    +0.000 C 
BRANCH  24  25
ATOM     25  O   UNL     1       1.308   7.508  21.108  0.00  0.00    +0.000 OA
BRANCH  25  26
ATOM     26  C   UNL     1       1.888   6.703  20.144  0.00  0.00    +0.000 A 
ATOM     27  C   UNL     1       2.472   7.163  18.951  0.00  0.00    +0.000 A 
ATOM     28  C   UNL     1       3.034   6.269  18.035  0.00  0.00    +0.000 A 
ATOM     29  C   UNL     1       3.020   4.912  18.307  0.00  0.00    +0.000 A 
ATOM     30 CL   UNL     1       3.709   3.819  17.177  0.00  0.00    +0.000 Cl
ATOM     31  C   UNL     1       2.447   4.440  19.488  0.00  0.00    +0.000 A 
ATOM     32  C   UNL     1       1.883   5.333  20.406  0.00  0.00    +0.000 A 
ENDBRANCH  25  26
ENDBRANCH  24  25
ENDBRANCH  23  24
ENDBRANCH   3  23
TORSDOF 6
ENDMDL
MODEL 3
REMARK VINA RESULT:      -7.7      0.931      1.283
REMARK  Name = 
REMARK  6 active torsions:
REMARK  status: ('A' for Active; 'I' for Inactive)
REMARK    1  A    between atoms: C_2  and  C_3
REMARK    2  A    between atoms: N_12  and  C_13
REMARK    3  A    between atoms: N_12  and  C_23
REMARK    4  A    between atoms: C_13  and  C_14
REMARK    5  A    between atoms: C_14  and  O_15
REMARK    6  A    between atoms: O_15  and  C_16
REMARK                            x       y       z     vdW  Elec       q    Type
REMARK                         _______ _______ _______ _____ _____    ______ ____
ROOT
ATOM      1  O   UNL     1      -0.128  10.954  22.820  0.00  0.00    +0.000 OA
ATOM      2  C   UNL     1      -0.012  11.446  21.702  0.00  0.00    +0.000 C 
ATOM      3  N   UNL     1       0.145  10.623  20.550  0.00  0.00    +0.000 N 
ENDROOT
BRANCH   3   4
ATOM      4  C   UNL     1       0.244  11.151  19.159  0.00  0.00    +0.000 C 
ATOM      5  C   UNL     1       0.156  10.057  18.082  0.00  0.00    +0.000 C 
ATOM      6  C   UNL     1      -1.257   9.552  17.804  0.00  0.00    +0.000 C 
ATOM      7  C   UNL     1      -2.315  10.643  17.615  0.00  0.00    +0.000 C 
ATOM      8  C   UNL     1      -2.154  11.887  18.506  0.00  0.00    +0.000 C 
ATOM      9  C   UNL     1      -0.715  12.298  18.807  0.00  0.00    +0.000 C 
ATOM     10  O   UNL     1      -2.330  11.069  16.249  0.00  0.00    +0.000 OA
ATOM     11  C   UNL     1      -3.707  11.308  15.933  0.00  0.00    +0.000 C 
ATOM     12  C   UNL     1      -4.524  10.701  17.049  0.00  0.00    +0.000 C 
ATOM     13  O   UNL     1      -3.590  10.050  17.900  0.00  0.00    +0.000 OA
ENDBRANCH   3   4
BRANCH   2  14
ATOM     14  C   UNL     1      -0.075  12.911  21.670  0.00  0.00    +0.000 A 
ATOM     15  C   UNL     1       0.986  13.788  21.617  0.00  0.00    +0.000 A 
ATOM     16  S   UNL     1       0.542  15.401  21.956  0.00  0.00    +0.000 S 
ATOM     17  C   UNL     1      -1.102  14.978  22.225  0.00  0.00    +0.000 A 
ATOM     18  C   UNL     1      -2.142  15.822  22.672  0.00  0.00    +0.000 A 
ATOM     19  C   UNL     1      -3.436  15.311  22.795  0.00  0.00    +0.000 A 
ATOM     20  C   UNL     1      -3.700  13.989  22.477  0.00  0.00    +0.000 A 
ATOM     21  C   UNL     1      -2.661  13.149  22.071  0.00  0.00    +0.000 A 
ATOM     22  C   UNL     1      -1.324  13.628  21.951  0.00  0.00    +0.000 A 
ENDBRANCH   2  14
BRANCH   3  23
ATOM     23  C   UNL     1       0.070   9.138  20.732  0.00  0.00    +0.000 C 
BRANCH  23  24
ATOM     24  C   UNL     1       1.352   8.389  21.098  0.00  0.00    +0.000 C 
BRANCH  24  25
ATOM     25  O   UNL     1       2.184   8.036  19.989  0.00  0.00    +0.000 OA
BRANCH  25  26
ATOM     26  C   UNL     1       2.024   6.711  19.628  0.00  0.00    +0.000 A 
ATOM     27  C   UNL     1       2.264   6.187  18.345  0.00  0.00    +0.000 A 
ATOM     28  C   UNL     1       2.073   4.828  18.077  0.00  0.00    +0.000 A 
ATOM     29  C   UNL     1       1.645   3.985  19.088  0.00  0.00    +0.000 A 
ATOM     30 CL   UNL     1       1.410   2.318  18.752  0.00  0.00    +0.000 Cl
ATOM     31  C   UNL     1       1.407   4.488  20.367  0.00  0.00    +0.000 A 
ATOM     32  C   UNL     1       1.596   5.849  20.638  0.00  0.00    +0.000 A 
ENDBRANCH  25  26
ENDBRANCH  24  25
ENDBRANCH  23  24
ENDBRANCH   3  23
TORSDOF 6
ENDMDL
MODEL 4
REMARK VINA RESULT:      -7.4      1.444      1.584
REMARK  Name = 
REMARK  6 active torsions:
REMARK  status: ('A' for Active; 'I' for Inactive)
REMARK    1  A    between atoms: C_2  and  C_3
REMARK    2  A    between atoms: N_12  and  C_13
REMARK    3  A    between atoms: N_12  and  C_23
REMARK    4  A    between atoms: C_13  and  C_14
REMARK    5  A    between atoms: C_14  and  O_15
REMARK    6  A    between atoms: O_15  and  C_16
REMARK                            x       y       z     vdW  Elec       q    Type
REMARK                         _______ _______ _______ _____ _____    ______ ____
ROOT
ATOM      1  O   UNL     1       0.077  10.877  22.337  0.00  0.00    +0.000 OA
ATOM      2  C   UNL     1      -0.376  11.689  21.538  0.00  0.00    +0.000 C 
ATOM      3  N   UNL     1      -0.532  11.357  20.162  0.00  0.00    +0.000 N 
ENDROOT
BRANCH   3   4
ATOM      4  C   UNL     1      -1.119  12.278  19.146  0.00  0.00    +0.000 C 
ATOM      5  C   UNL     1      -1.337  11.616  17.775  0.00  0.00    +0.000 C 
ATOM      6  C   UNL     1      -2.569  10.719  17.692  0.00  0.00    +0.000 C 
ATOM      7  C   UNL     1      -3.856  11.323  18.260  0.00  0.00    +0.000 C 
ATOM      8  C   UNL     1      -3.683  12.200  19.512  0.00  0.00    +0.000 C 
ATOM      9  C   UNL     1      -2.395  13.018  19.569  0.00  0.00    +0.000 C 
ATOM     10  O   UNL     1      -4.509  12.105  17.253  0.00  0.00    +0.000 OA
ATOM     11  C   UNL     1      -5.911  11.881  17.439  0.00  0.00    +0.000 C 
ATOM     12  C   UNL     1      -6.048  10.700  18.370  0.00  0.00    +0.000 C 
ATOM     13  O   UNL     1      -4.725  10.231  18.594  0.00  0.00    +0.000 OA
ENDBRANCH   3   4
BRANCH   2  14
ATOM     14  C   UNL     1      -0.750  12.980  22.124  0.00  0.00    +0.000 A 
ATOM     15  C   UNL     1       0.009  14.129  22.159  0.00  0.00    +0.000 A 
ATOM     16  S   UNL     1      -0.605  15.308  23.230  0.00  0.00    +0.000 S 
ATOM     17  C   UNL     1      -1.907  14.300  23.722  0.00  0.00    +0.000 A 
ATOM     18  C   UNL     1      -2.861  14.564  24.730  0.00  0.00    +0.000 A 
ATOM     19  C   UNL     1      -3.882  13.641  24.966  0.00  0.00    +0.000 A 
ATOM     20  C   UNL     1      -3.963  12.479  24.217  0.00  0.00    +0.000 A 
ATOM     21  C   UNL     1      -2.995  12.206  23.247  0.00  0.00    +0.000 A 
ATOM     22  C   UNL     1      -1.927  13.114  22.989  0.00  0.00    +0.000 A 
ENDBRANCH   2  14
BRANCH   3  23
ATOM     23  C   UNL     1      -0.216   9.955  19.736  0.00  0.00    +0.000 C 
BRANCH  23  24
ATOM     24  C   UNL     1       1.240   9.606  19.423  0.00  0.00    +0.000 C 
BRANCH  24  25
ATOM     25  O   UNL     1       1.431   8.809  18.251  0.00  0.00    +0.000 OA
BRANCH  25  26
ATOM     26  C   UNL     1       2.300   7.758  18.481  0.00  0.00    +0.000 A 
ATOM     27  C   UNL     1       2.221   6.865  19.564  0.00  0.00    +0.000 A 
ATOM     28  C   UNL     1       3.150   5.830  19.710  0.00  0.00    +0.000 A 
ATOM     29  C   UNL     1       4.158   5.678  18.775  0.00  0.00    +0.000 A 
ATOM     30 CL   UNL     1       5.296   4.407  18.962  0.00  0.00    +0.000 Cl
ATOM     31  C   UNL     1       4.248   6.553  17.692  0.00  0.00    +0.000 A 
ATOM     32  C   UNL     1       3.320   7.591  17.544  0.00  0.00    +0.000 A 
ENDBRANCH  25  26
ENDBRANCH  24  25
ENDBRANCH  23  24
ENDBRANCH   3  23
TORSDOF 6
ENDMDL
MODEL 5
REMARK VINA RESULT:      -7.4      1.400      2.907
REMARK  Name = 
REMARK  6 active torsions:
REMARK  status: ('A' for Active; 'I' for Inactive)
REMARK    1  A    between atoms: C_2  and  C_3
REMARK    2  A    between atoms: N_12  and  C_13
REMARK    3  A    between atoms: N_12  and  C_23
REMARK    4  A    between atoms: C_13  and  C_14
REMARK    5  A    between atoms: C_14  and  O_15
REMARK    6  A    between atoms: O_15  and  C_16
REMARK                            x       y       z     vdW  Elec       q    Type
REMARK                         _______ _______ _______ _____ _____    ______ ____
ROOT
ATOM      1  O   UNL     1      -0.147  11.111  22.846  0.00  0.00    +0.000 OA
ATOM      2  C   UNL     1      -0.029  11.612  21.732  0.00  0.00    +0.000 C 
ATOM      3  N   UNL     1       0.067  10.799  20.568  0.00  0.00    +0.000 N 
ENDROOT
BRANCH   3   4
ATOM      4  C   UNL     1       0.165  11.340  19.182  0.00  0.00    +0.000 C 
ATOM      5  C   UNL     1       0.180  10.249  18.098  0.00  0.00    +0.000 C 
ATOM      6  C   UNL     1      -1.188   9.651  17.781  0.00  0.00    +0.000 C 
ATOM      7  C   UNL     1      -2.313  10.669  17.570  0.00  0.00    +0.000 C 
ATOM      8  C   UNL     1      -2.259  11.915  18.470  0.00  0.00    +0.000 C 
ATOM      9  C   UNL     1      -0.860  12.421  18.809  0.00  0.00    +0.000 C 
ATOM     10  O   UNL     1      -2.322  11.101  16.206  0.00  0.00    +0.000 OA
ATOM     11  C   UNL     1      -3.703  11.247  15.856  0.00  0.00    +0.000 C 
ATOM     12  C   UNL     1      -4.505  10.580  16.948  0.00  0.00    +0.000 C 
ATOM     13  O   UNL     1      -3.552   9.989  17.820  0.00  0.00    +0.000 OA
ENDBRANCH   3   4
BRANCH   2  14
ATOM     14  C   UNL     1      -0.022  13.079  21.720  0.00  0.00    +0.000 A 
ATOM     15  C   UNL     1      -1.102  13.916  21.888  0.00  0.00    +0.000 A 
ATOM     16  S   UNL     1      -0.771  15.535  21.455  0.00  0.00    +0.000 S 
ATOM     17  C   UNL     1       0.840  15.165  20.986  0.00  0.00    +0.000 A 
ATOM     18  C   UNL     1       1.779  16.034  20.388  0.00  0.00    +0.000 A 
ATOM     19  C   UNL     1       3.067  15.568  20.113  0.00  0.00    +0.000 A 
ATOM     20  C   UNL     1       3.423  14.267  20.426  0.00  0.00    +0.000 A 
ATOM     21  C   UNL     1       2.479  13.401  20.983  0.00  0.00    +0.000 A 
ATOM     22  C   UNL     1       1.150  13.833  21.263  0.00  0.00    +0.000 A 
ENDBRANCH   2  14
BRANCH   3  23
ATOM     23  C   UNL     1      -0.076   9.316  20.731  0.00  0.00    +0.000 C 
BRANCH  23  24
ATOM     24  C   UNL     1       1.169   8.506  21.097  0.00  0.00    +0.000 C 
BRANCH  24  25
ATOM     25  O   UNL     1       2.051   8.227  20.006  0.00  0.00    +0.000 OA
BRANCH  25  26
ATOM     26  C   UNL     1       2.019   6.891  19.649  0.00  0.00    +0.000 A 
ATOM     27  C   UNL     1       2.348   6.385  18.379  0.00  0.00    +0.000 A 
ATOM     28  C   UNL     1       2.286   5.013  18.114  0.00  0.00    +0.000 A 
ATOM     29  C   UNL     1       1.898   4.141  19.115  0.00  0.00    +0.000 A 
ATOM     30 CL   UNL     1       1.820   2.459  18.782  0.00  0.00    +0.000 Cl
ATOM     31  C   UNL     1       1.572   4.626  20.381  0.00  0.00    +0.000 A 
ATOM     32  C   UNL     1       1.633   5.999  20.649  0.00  0.00    +0.000 A 
ENDBRANCH  25  26
ENDBRANCH  24  25
ENDBRANCH  23  24
ENDBRANCH   3  23
TORSDOF 6
ENDMDL
MODEL 6
REMARK VINA RESULT:      -7.4      3.055      4.505
REMARK  Name = 
REMARK  6 active torsions:
REMARK  status: ('A' for Active; 'I' for Inactive)
REMARK    1  A    between atoms: C_2  and  C_3
REMARK    2  A    between atoms: N_12  and  C_13
REMARK    3  A    between atoms: N_12  and  C_23
REMARK    4  A    between atoms: C_13  and  C_14
REMARK    5  A    between atoms: C_14  and  O_15
REMARK    6  A    between atoms: O_15  and  C_16
REMARK                            x       y       z     vdW  Elec       q    Type
REMARK                         _______ _______ _______ _____ _____    ______ ____
ROOT
ATOM      1  O   UNL     1      -0.539  11.568  23.100  0.00  0.00    +0.000 OA
ATOM      2  C   UNL     1      -0.707  12.617  22.486  0.00  0.00    +0.000 C 
ATOM      3  N   UNL     1      -0.008  12.878  21.273  0.00  0.00    +0.000 N 
ENDROOT
BRANCH   3   4
ATOM      4  C   UNL     1      -0.199  14.109  20.453  0.00  0.00    +0.000 C 
ATOM      5  C   UNL     1       0.569  15.327  20.990  0.00  0.00    +0.000 C 
ATOM      6  C   UNL     1       2.061  15.329  20.669  0.00  0.00    +0.000 C 
ATOM      7  C   UNL     1       2.416  15.011  19.214  0.00  0.00    +0.000 C 
ATOM      8  C   UNL     1       1.530  13.956  18.529  0.00  0.00    +0.000 C 
ATOM      9  C   UNL     1       0.062  13.959  18.947  0.00  0.00    +0.000 C 
ATOM     10  O   UNL     1       2.371  16.209  18.432  0.00  0.00    +0.000 OA
ATOM     11  C   UNL     1       3.452  16.103  17.499  0.00  0.00    +0.000 C 
ATOM     12  C   UNL     1       4.326  14.963  17.967  0.00  0.00    +0.000 C 
ATOM     13  O   UNL     1       3.770  14.534  19.203  0.00  0.00    +0.000 OA
ENDBRANCH   3   4
BRANCH   2  14
ATOM     14  C   UNL     1      -1.683  13.529  23.092  0.00  0.00    +0.000 A 
ATOM     15  C   UNL     1      -1.479  14.374  24.160  0.00  0.00    +0.000 A 
ATOM     16  S   UNL     1      -2.929  15.007  24.803  0.00  0.00    +0.000 S 
ATOM     17  C   UNL     1      -3.900  14.134  23.685  0.00  0.00    +0.000 A 
ATOM     18  C   UNL     1      -5.310  14.063  23.649  0.00  0.00    +0.000 A 
ATOM     19  C   UNL     1      -5.934  13.333  22.635  0.00  0.00    +0.000 A 
ATOM     20  C   UNL     1      -5.179  12.689  21.669  0.00  0.00    +0.000 A 
ATOM     21  C   UNL     1      -3.784  12.732  21.731  0.00  0.00    +0.000 A 
ATOM     22  C   UNL     1      -3.110  13.451  22.761  0.00  0.00    +0.000 A 
ENDBRANCH   2  14
BRANCH   3  23
ATOM     23  C   UNL     1       0.867  11.795  20.718  0.00  0.00    +0.000 C 
BRANCH  23  24
ATOM     24  C   UNL     1       0.199  10.633  19.981  0.00  0.00    +0.000 C 
BRANCH  24  25
ATOM     25  O   UNL     1       0.847  10.233  18.771  0.00  0.00    +0.000 OA
BRANCH  25  26
ATOM     26  C   UNL     1       1.514   9.031  18.918  0.00  0.00    +0.000 A 
ATOM     27  C   UNL     1       1.477   8.220  20.066  0.00  0.00    +0.000 A 
ATOM     28  C   UNL     1       2.188   7.018  20.120  0.00  0.00    +0.000 A 
ATOM     29  C   UNL     1       2.937   6.617  19.027  0.00  0.00    +0.000 A 
ATOM     30 CL   UNL     1       3.810   5.141  19.101  0.00  0.00    +0.000 Cl
ATOM     31  C   UNL     1       2.981   7.407  17.879  0.00  0.00    +0.000 A 
ATOM     32  C   UNL     1       2.271   8.613  17.823  0.00  0.00    +0.000 A 
ENDBRANCH  25  26
ENDBRANCH  24  25
ENDBRANCH  23  24
ENDBRANCH   3  23
TORSDOF 6
ENDMDL
MODEL 7
REMARK VINA RESULT:      -7.3      2.995      4.460
REMARK  Name = 
REMARK  6 active torsions:
REMARK  status: ('A' for Active; 'I' for Inactive)
REMARK    1  A    between atoms: C_2  and  C_3
REMARK    2  A    between atoms: N_12  and  C_13
REMARK    3  A    between atoms: N_12  and  C_23
REMARK    4  A    between atoms: C_13  and  C_14
REMARK    5  A    between atoms: C_14  and  O_15
REMARK    6  A    between atoms: O_15  and  C_16
REMARK                            x       y       z     vdW  Elec       q    Type
REMARK                         _______ _______ _______ _____ _____    ______ ____
ROOT
ATOM      1  O   UNL     1      -0.490  11.501  23.148  0.00  0.00    +0.000 OA
ATOM      2  C   UNL     1      -0.673  12.477  22.427  0.00  0.00    +0.000 C 
ATOM      3  N   UNL     1       0.029  12.623  21.197  0.00  0.00    +0.000 N 
ENDROOT
BRANCH   3   4
ATOM      4  C   UNL     1      -0.179  13.757  20.251  0.00  0.00    +0.000 C 
ATOM      5  C   UNL     1       0.455  15.074  20.729  0.00  0.00    +0.000 C 
ATOM      6  C   UNL     1       1.964  15.164  20.525  0.00  0.00    +0.000 C 
ATOM      7  C   UNL     1       2.462  14.746  19.138  0.00  0.00    +0.000 C 
ATOM      8  C   UNL     1       1.712  13.569  18.489  0.00  0.00    +0.000 C 
ATOM      9  C   UNL     1       0.218  13.495  18.791  0.00  0.00    +0.000 C 
ATOM     10  O   UNL     1       2.398  15.863  18.245  0.00  0.00    +0.000 OA
ATOM     11  C   UNL     1       3.558  15.759  17.412  0.00  0.00    +0.000 C 
ATOM     12  C   UNL     1       4.467  14.737  18.052  0.00  0.00    +0.000 C 
ATOM     13  O   UNL     1       3.841  14.377  19.276  0.00  0.00    +0.000 OA
ENDBRANCH   3   4
BRANCH   2  14
ATOM     14  C   UNL     1      -1.669  13.429  22.930  0.00  0.00    +0.000 A 
ATOM     15  C   UNL     1      -1.518  14.317  23.972  0.00  0.00    +0.000 A 
ATOM     16  S   UNL     1      -2.994  14.999  24.493  0.00  0.00    +0.000 S 
ATOM     17  C   UNL     1      -3.908  14.093  23.354  0.00  0.00    +0.000 A 
ATOM     18  C   UNL     1      -5.314  14.041  23.231  0.00  0.00    +0.000 A 
ATOM     19  C   UNL     1      -5.885  13.278  22.211  0.00  0.00    +0.000 A 
ATOM     20  C   UNL     1      -5.082  12.580  21.324  0.00  0.00    +0.000 A 
ATOM     21  C   UNL     1      -3.694  12.605  21.473  0.00  0.00    +0.000 A 
ATOM     22  C   UNL     1      -3.073  13.358  22.512  0.00  0.00    +0.000 A 
ENDBRANCH   2  14
BRANCH   3  23
ATOM     23  C   UNL     1       0.926  11.504  20.762  0.00  0.00    +0.000 C 
BRANCH  23  24
ATOM     24  C   UNL     1       0.284  10.172  20.371  0.00  0.00    +0.000 C 
BRANCH  24  25
ATOM     25  O   UNL     1       0.841   9.021  21.012  0.00  0.00    +0.000 OA
BRANCH  25  26
ATOM     26  C   UNL     1       1.505   8.205  20.115  0.00  0.00    +0.000 A 
ATOM     27  C   UNL     1       1.907   8.582  18.822  0.00  0.00    +0.000 A 
ATOM     28  C   UNL     1       2.575   7.682  17.986  0.00  0.00    +0.000 A 
ATOM     29  C   UNL     1       2.847   6.403  18.437  0.00  0.00    +0.000 A 
ATOM     30 CL   UNL     1       3.665   5.302  17.405  0.00  0.00    +0.000 Cl
ATOM     31  C   UNL     1       2.458   6.013  19.719  0.00  0.00    +0.000 A 
ATOM     32  C   UNL     1       1.789   6.912  20.558  0.00  0.00    +0.000 A 
ENDBRANCH  25  26
ENDBRANCH  24  25
ENDBRANCH  23  24
ENDBRANCH   3  23
TORSDOF 6
ENDMDL
MODEL 8
REMARK VINA RESULT:      -7.3      2.877      5.330
REMARK  Name = 
REMARK  6 active torsions:
REMARK  status: ('A' for Active; 'I' for Inactive)
REMARK    1  A    between atoms: C_2  and  C_3
REMARK    2  A    between atoms: N_12  and  C_13
REMARK    3  A    between atoms: N_12  and  C_23
REMARK    4  A    between atoms: C_13  and  C_14
REMARK    5  A    between atoms: C_14  and  O_15
REMARK    6  A    between atoms: O_15  and  C_16
REMARK                            x       y       z     vdW  Elec       q    Type
REMARK                         _______ _______ _______ _____ _____    ______ ____
ROOT
ATOM      1  O   UNL     1      -0.692   9.989  20.054  0.00  0.00    +0.000 OA
ATOM      2  C   UNL     1      -0.649  11.161  19.696  0.00  0.00    +0.000 C 
ATOM      3  N   UNL     1       0.545  11.722  19.158  0.00  0.00    +0.000 N 
ENDROOT
BRANCH   3   4
ATOM      4  C   UNL     1       0.653  13.123  18.660  0.00  0.00    +0.000 C 
ATOM      5  C   UNL     1       0.425  14.180  19.753  0.00  0.00    +0.000 C 
ATOM      6  C   UNL     1       1.616  14.404  20.680  0.00  0.00    +0.000 C 
ATOM      7  C   UNL     1       2.967  14.573  19.978  0.00  0.00    +0.000 C 
ATOM      8  C   UNL     1       3.178  13.707  18.724  0.00  0.00    +0.000 C 
ATOM      9  C   UNL     1       1.931  13.460  17.878  0.00  0.00    +0.000 C 
ATOM     10  O   UNL     1       3.151  15.944  19.611  0.00  0.00    +0.000 OA
ATOM     11  C   UNL     1       4.542  16.217  19.821  0.00  0.00    +0.000 C 
ATOM     12  C   UNL     1       5.098  15.065  20.624  0.00  0.00    +0.000 C 
ATOM     13  O   UNL     1       3.985  14.237  20.931  0.00  0.00    +0.000 OA
ENDBRANCH   3   4
BRANCH   2  14
ATOM     14  C   UNL     1      -1.911  11.893  19.848  0.00  0.00    +0.000 A 
ATOM     15  C   UNL     1      -2.386  12.503  20.988  0.00  0.00    +0.000 A 
ATOM     16  S   UNL     1      -4.034  12.937  20.882  0.00  0.00    +0.000 S 
ATOM     17  C   UNL     1      -4.187  12.284  19.300  0.00  0.00    +0.000 A 
ATOM     18  C   UNL     1      -5.366  12.172  18.530  0.00  0.00    +0.000 A 
ATOM     19  C   UNL     1      -5.293  11.649  17.236  0.00  0.00    +0.000 A 
ATOM     20  C   UNL     1      -4.076  11.247  16.711  0.00  0.00    +0.000 A 
ATOM     21  C   UNL     1      -2.920  11.325  17.490  0.00  0.00    +0.000 A 
ATOM     22  C   UNL     1      -2.956  11.836  18.821  0.00  0.00    +0.000 A 
ENDBRANCH   2  14
BRANCH   3  23
ATOM     23  C   UNL     1       1.719  10.813  18.954  0.00  0.00    +0.000 C 
BRANCH  23  24
ATOM     24  C   UNL     1       1.550   9.614  18.020  0.00  0.00    +0.000 C 
BRANCH  24  25
ATOM     25  O   UNL     1       2.652   8.702  18.003  0.00  0.00    +0.000 OA
BRANCH  25  26
ATOM     26  C   UNL     1       2.376   7.549  18.716  0.00  0.00    +0.000 A 
ATOM     27  C   UNL     1       1.965   7.508  20.060  0.00  0.00    +0.000 A 
ATOM     28  C   UNL     1       1.710   6.289  20.696  0.00  0.00    +0.000 A 
ATOM     29  C   UNL     1       1.860   5.106  19.993  0.00  0.00    +0.000 A 
ATOM     30 CL   UNL     1       1.547   3.614  20.780  0.00  0.00    +0.000 Cl
ATOM     31  C   UNL     1       2.263   5.130  18.658  0.00  0.00    +0.000 A 
ATOM     32  C   UNL     1       2.521   6.349  18.019  0.00  0.00    +0.000 A 
ENDBRANCH  25  26
ENDBRANCH  24  25
ENDBRANCH  23  24
ENDBRANCH   3  23
TORSDOF 6
ENDMDL
MODEL 9
REMARK VINA RESULT:      -7.2      4.126      7.670
REMARK  Name = 
REMARK  6 active torsions:
REMARK  status: ('A' for Active; 'I' for Inactive)
REMARK    1  A    between atoms: C_2  and  C_3
REMARK    2  A    between atoms: N_12  and  C_13
REMARK    3  A    between atoms: N_12  and  C_23
REMARK    4  A    between atoms: C_13  and  C_14
REMARK    5  A    between atoms: C_14  and  O_15
REMARK    6  A    between atoms: O_15  and  C_16
REMARK                            x       y       z     vdW  Elec       q    Type
REMARK                         _______ _______ _______ _____ _____    ______ ____
ROOT
ATOM      1  O   UNL     1       3.351   9.300  17.806  0.00  0.00    +0.000 OA
ATOM      2  C   UNL     1       2.522   8.458  18.137  0.00  0.00    +0.000 C 
ATOM      3  N   UNL     1       2.850   7.072  18.155  0.00  0.00    +0.000 N 
ENDROOT
BRANCH   3   4
ATOM      4  C   UNL     1       1.909   6.000  18.590  0.00  0.00    +0.000 C 
ATOM      5  C   UNL     1       1.929   4.761  17.680  0.00  0.00    +0.000 C 
ATOM      6  C   UNL     1       3.115   3.828  17.905  0.00  0.00    +0.000 C 
ATOM      7  C   UNL     1       3.406   3.482  19.368  0.00  0.00    +0.000 C 
ATOM      8  C   UNL     1       3.180   4.621  20.378  0.00  0.00    +0.000 C 
ATOM      9  C   UNL     1       2.022   5.563  20.058  0.00  0.00    +0.000 C 
ATOM     10  O   UNL     1       2.607   2.364  19.768  0.00  0.00    +0.000 OA
ATOM     11  C   UNL     1       3.440   1.582  20.632  0.00  0.00    +0.000 C 
ATOM     12  C   UNL     1       4.849   2.101  20.469  0.00  0.00    +0.000 C 
ATOM     13  O   UNL     1       4.782   3.083  19.444  0.00  0.00    +0.000 OA
ENDBRANCH   3   4
BRANCH   2  14
ATOM     14  C   UNL     1       1.217   9.004  18.523  0.00  0.00    +0.000 A 
ATOM     15  C   UNL     1       0.289   9.600  17.698  0.00  0.00    +0.000 A 
ATOM     16  S   UNL     1      -0.937  10.426  18.552  0.00  0.00    +0.000 S 
ATOM     17  C   UNL     1      -0.244  10.044  20.077  0.00  0.00    +0.000 A 
ATOM     18  C   UNL     1      -0.669  10.492  21.347  0.00  0.00    +0.000 A 
ATOM     19  C   UNL     1      -0.006  10.040  22.491  0.00  0.00    +0.000 A 
ATOM     20  C   UNL     1       1.056   9.157  22.383  0.00  0.00    +0.000 A 
ATOM     21  C   UNL     1       1.495   8.746  21.122  0.00  0.00    +0.000 A 
ATOM     22  C   UNL     1       0.856   9.199  19.931  0.00  0.00    +0.000 A 
ENDBRANCH   2  14
BRANCH   3  23
ATOM     23  C   UNL     1       4.264   6.680  17.849  0.00  0.00    +0.000 C 
BRANCH  23  24
ATOM     24  C   UNL     1       4.725   6.717  16.391  0.00  0.00    +0.000 C 
BRANCH  24  25
ATOM     25  O   UNL     1       6.074   6.293  16.173  0.00  0.00    +0.000 OA
BRANCH  25  26
ATOM     26  C   UNL     1       6.174   5.433  15.095  0.00  0.00    +0.000 A 
ATOM     27  C   UNL     1       7.278   5.345  14.230  0.00  0.00    +0.000 A 
ATOM     28  C   UNL     1       7.285   4.440  13.164  0.00  0.00    +0.000 A 
ATOM     29  C   UNL     1       6.192   3.616  12.958  0.00  0.00    +0.000 A 
ATOM     30 CL   UNL     1       6.206   2.510  11.646  0.00  0.00    +0.000 Cl
ATOM     31  C   UNL     1       5.090   3.689  13.810  0.00  0.00    +0.000 A 
ATOM     32  C   UNL     1       5.080   4.595  14.877  0.00  0.00    +0.000 A 
ENDBRANCH  25  26
ENDBRANCH  24  25
ENDBRANCH  23  24
ENDBRANCH   3  23
TORSDOF 6
ENDMDL
