MODEL 1
REMARK VINA RESULT:      -7.3      0.000      0.000
REMARK  Name = 
REMARK  6 active torsions:
REMARK  status: ('A' for Active; 'I' for Inactive)
REMARK    1  A    between atoms: N_3  and  C_4
REMARK    2  A    between atoms: C_4  and  C_5
REMARK    3  A    between atoms: N_17  and  C_18
REMARK    4  A    between atoms: C_18  and  C_19
REMARK    5  A    between atoms: C_19  and  C_20
REMARK    6  A    between atoms: C_20  and  O_21
REMARK                            x       y       z     vdW  Elec       q    Type
REMARK                         _______ _______ _______ _____ _____    ______ ____
ROOT
ATOM      1  N   UNL     1       5.640   3.134  16.255  0.00  0.00    +0.000 N 
ATOM      2  C   UNL     1       4.949   4.158  16.752  0.00  0.00    +0.000 A 
ATOM      3  N   UNL     1       3.746   4.073  17.298  0.00  0.00    +0.000 N 
ATOM      4  C   UNL     1       3.279   5.359  17.562  0.00  0.00    +0.000 A 
ATOM      5  C   UNL     1       2.057   5.814  18.055  0.00  0.00    +0.000 A 
ATOM      6  C   UNL     1       1.925   7.201  18.186  0.00  0.00    +0.000 A 
ATOM      7  C   UNL     1       2.971   8.080  17.841  0.00  0.00    +0.000 A 
ATOM      8  C   UNL     1       4.197   7.610  17.344  0.00  0.00    +0.000 A 
ATOM      9  C   UNL     1       4.315   6.228  17.211  0.00  0.00    +0.000 A 
ATOM     10  N   UNL     1       5.359   5.421  16.752  0.00  0.00    +0.000 N 
ATOM     11  H   UNL     1       5.226   2.216  16.183  0.00  0.00    +0.000 HD
ATOM     12  H   UNL     1       6.557   3.266  15.856  0.00  0.00    +0.000 HD
ENDROOT
BRANCH   3  13
ATOM     13  C   UNL     1       3.033   2.845  17.621  0.00  0.00    +0.000 C 
BRANCH  13  14
ATOM     14  C   UNL     1       2.556   2.824  19.051  0.00  0.00    +0.000 A 
ATOM     15  C   UNL     1       3.418   2.711  20.153  0.00  0.00    +0.000 A 
ATOM     16  C   UNL     1       2.911   2.625  21.452  0.00  0.00    +0.000 A 
ATOM     17  C   UNL     1       1.537   2.668  21.669  0.00  0.00    +0.000 A 
ATOM     18  C   UNL     1       0.669   2.817  20.592  0.00  0.00    +0.000 A 
ATOM     19  C   UNL     1       1.173   2.900  19.293  0.00  0.00    +0.000 A 
ENDBRANCH  13  14
ENDBRANCH   3  13
BRANCH  10  20
ATOM     20  C   UNL     1       6.687   5.898  16.361  0.00  0.00    +0.000 C 
BRANCH  20  21
ATOM     21  C   UNL     1       7.509   6.330  17.573  0.00  0.00    +0.000 C 
BRANCH  21  22
ATOM     22  C   UNL     1       7.775   5.153  18.498  0.00  0.00    +0.000 C 
BRANCH  22  23
ATOM     23  O   UNL     1       8.288   4.069  17.743  0.00  0.00    +0.000 OA
ATOM     24  H   UNL     1       7.735   3.286  17.925  0.00  0.00    +0.000 HD
ENDBRANCH  22  23
ENDBRANCH  21  22
ENDBRANCH  20  21
ENDBRANCH  10  20
TORSDOF 6
ENDMDL
MODEL 2
REMARK VINA RESULT:      -7.0      0.595      1.207
REMARK  Name = 
REMARK  6 active torsions:
REMARK  status: ('A' for Active; 'I' for Inactive)
REMARK    1  A    between atoms: N_3  and  C_4
REMARK    2  A    between atoms: C_4  and  C_5
REMARK    3  A    between atoms: N_17  and  C_18
REMARK    4  A    between atoms: C_18  and  C_19
REMARK    5  A    between atoms: C_19  and  C_20
REMARK    6  A    between atoms: C_20  and  O_21
REMARK                            x       y       z     vdW  Elec       q    Type
REMARK                         _______ _______ _______ _____ _____    ______ ____
ROOT
ATOM      1  N   UNL     1       5.693   3.177  16.276  0.00  0.00    +0.000 N 
ATOM      2  C   UNL     1       4.985   4.189  16.774  0.00  0.00    +0.000 A 
ATOM      3  N   UNL     1       3.758   4.095  17.260  0.00  0.00    +0.000 N 
ATOM      4  C   UNL     1       3.286   5.375  17.544  0.00  0.00    +0.000 A 
ATOM      5  C   UNL     1       2.045   5.822  17.995  0.00  0.00    +0.000 A 
ATOM      6  C   UNL     1       1.913   7.205  18.164  0.00  0.00    +0.000 A 
ATOM      7  C   UNL     1       2.979   8.087  17.896  0.00  0.00    +0.000 A 
ATOM      8  C   UNL     1       4.224   7.625  17.441  0.00  0.00    +0.000 A 
ATOM      9  C   UNL     1       4.341   6.248  17.269  0.00  0.00    +0.000 A 
ATOM     10  N   UNL     1       5.401   5.449  16.833  0.00  0.00    +0.000 N 
ATOM     11  H   UNL     1       5.277   2.264  16.155  0.00  0.00    +0.000 HD
ATOM     12  H   UNL     1       6.627   3.315  15.924  0.00  0.00    +0.000 HD
ENDROOT
BRANCH   3  13
ATOM     13  C   UNL     1       3.024   2.862  17.511  0.00  0.00    +0.000 C 
BRANCH  13  14
ATOM     14  C   UNL     1       2.514   2.782  18.928  0.00  0.00    +0.000 A 
ATOM     15  C   UNL     1       1.156   2.866  19.269  0.00  0.00    +0.000 A 
ATOM     16  C   UNL     1       0.752   2.857  20.606  0.00  0.00    +0.000 A 
ATOM     17  C   UNL     1       1.699   2.746  21.620  0.00  0.00    +0.000 A 
ATOM     18  C   UNL     1       3.047   2.623  21.300  0.00  0.00    +0.000 A 
ATOM     19  C   UNL     1       3.453   2.636  19.965  0.00  0.00    +0.000 A 
ENDBRANCH  13  14
ENDBRANCH   3  13
BRANCH  10  20
ATOM     20  C   UNL     1       6.748   5.929  16.518  0.00  0.00    +0.000 C 
BRANCH  20  21
ATOM     21  C   UNL     1       7.501   6.356  17.776  0.00  0.00    +0.000 C 
BRANCH  21  22
ATOM     22  C   UNL     1       7.661   5.190  18.738  0.00  0.00    +0.000 C 
BRANCH  22  23
ATOM     23  O   UNL     1       8.339   5.629  19.901  0.00  0.00    +0.000 OA
ATOM     24  H   UNL     1       9.295   5.649  19.704  0.00  0.00    +0.000 HD
ENDBRANCH  22  23
ENDBRANCH  21  22
ENDBRANCH  20  21
ENDBRANCH  10  20
TORSDOF 6
ENDMDL
MODEL 3
REMARK VINA RESULT:      -7.0      2.243      5.382
REMARK  Name = 
REMARK  6 active torsions:
REMARK  status: ('A' for Active; 'I' for Inactive)
REMARK    1  A    between atoms: N_3  and  C_4
REMARK    2  A    between atoms: C_4  and  C_5
REMARK    3  A    between atoms: N_17  and  C_18
REMARK    4  A    between atoms: C_18  and  C_19
REMARK    5  A    between atoms: C_19  and  C_20
REMARK    6  A    between atoms: C_20  and  O_21
REMARK                            x       y       z     vdW  Elec       q    Type
REMARK                         _______ _______ _______ _____ _____    ______ ____
ROOT
ATOM      1  N   UNL     1       5.174   2.781  19.759  0.00  0.00    +0.000 N 
ATOM      2  C   UNL     1       4.629   3.878  19.236  0.00  0.00    +0.000 A 
ATOM      3  N   UNL     1       5.237   4.712  18.408  0.00  0.00    +0.000 N 
ATOM      4  C   UNL     1       4.416   5.818  18.197  0.00  0.00    +0.000 A 
ATOM      5  C   UNL     1       4.620   6.996  17.480  0.00  0.00    +0.000 A 
ATOM      6  C   UNL     1       3.564   7.914  17.492  0.00  0.00    +0.000 A 
ATOM      7  C   UNL     1       2.366   7.653  18.186  0.00  0.00    +0.000 A 
ATOM      8  C   UNL     1       2.173   6.464  18.906  0.00  0.00    +0.000 A 
ATOM      9  C   UNL     1       3.233   5.561  18.894  0.00  0.00    +0.000 A 
ATOM     10  N   UNL     1       3.399   4.309  19.491  0.00  0.00    +0.000 N 
ATOM     11  H   UNL     1       6.151   2.569  19.614  0.00  0.00    +0.000 HD
ATOM     12  H   UNL     1       4.653   2.184  20.382  0.00  0.00    +0.000 HD
ENDROOT
BRANCH   3  13
ATOM     13  C   UNL     1       6.531   4.502  17.773  0.00  0.00    +0.000 C 
BRANCH  13  14
ATOM     14  C   UNL     1       6.420   4.418  16.271  0.00  0.00    +0.000 A 
ATOM     15  C   UNL     1       5.462   3.636  15.607  0.00  0.00    +0.000 A 
ATOM     16  C   UNL     1       5.455   3.543  14.214  0.00  0.00    +0.000 A 
ATOM     17  C   UNL     1       6.396   4.243  13.463  0.00  0.00    +0.000 A 
ATOM     18  C   UNL     1       7.330   5.052  14.101  0.00  0.00    +0.000 A 
ATOM     19  C   UNL     1       7.340   5.144  15.494  0.00  0.00    +0.000 A 
ENDBRANCH  13  14
ENDBRANCH   3  13
BRANCH  10  20
ATOM     20  C   UNL     1       2.373   3.592  20.250  0.00  0.00    +0.000 C 
BRANCH  20  21
ATOM     21  C   UNL     1       1.234   3.120  19.349  0.00  0.00    +0.000 C 
BRANCH  21  22
ATOM     22  C   UNL     1       1.767   2.318  18.173  0.00  0.00    +0.000 C 
BRANCH  22  23
ATOM     23  O   UNL     1       2.537   1.231  18.655  0.00  0.00    +0.000 OA
ATOM     24  H   UNL     1       1.968   0.692  19.236  0.00  0.00    +0.000 HD
ENDBRANCH  22  23
ENDBRANCH  21  22
ENDBRANCH  20  21
ENDBRANCH  10  20
TORSDOF 6
ENDMDL
MODEL 4
REMARK VINA RESULT:      -7.0      2.274      3.476
REMARK  Name = 
REMARK  6 active torsions:
REMARK  status: ('A' for Active; 'I' for Inactive)
REMARK    1  A    between atoms: N_3  and  C_4
REMARK    2  A    between atoms: C_4  and  C_5
REMARK    3  A    between atoms: N_17  and  C_18
REMARK    4  A    between atoms: C_18  and  C_19
REMARK    5  A    between atoms: C_19  and  C_20
REMARK    6  A    between atoms: C_20  and  O_21
REMARK                            x       y       z     vdW  Elec       q    Type
REMARK                         _______ _______ _______ _____ _____    ______ ____
ROOT
ATOM      1  N   UNL     1       3.675   3.281  16.507  0.00  0.00    +0.000 N 
ATOM      2  C   UNL     1       4.707   3.995  16.952  0.00  0.00    +0.000 A 
ATOM      3  N   UNL     1       5.141   4.012  18.202  0.00  0.00    +0.000 N 
ATOM      4  C   UNL     1       6.132   4.984  18.322  0.00  0.00    +0.000 A 
ATOM      5  C   UNL     1       6.843   5.445  19.430  0.00  0.00    +0.000 A 
ATOM      6  C   UNL     1       7.774   6.460  19.184  0.00  0.00    +0.000 A 
ATOM      7  C   UNL     1       7.978   6.978  17.889  0.00  0.00    +0.000 A 
ATOM      8  C   UNL     1       7.255   6.508  16.783  0.00  0.00    +0.000 A 
ATOM      9  C   UNL     1       6.326   5.503  17.040  0.00  0.00    +0.000 A 
ATOM     10  N   UNL     1       5.440   4.815  16.206  0.00  0.00    +0.000 N 
ATOM     11  H   UNL     1       3.089   2.764  17.146  0.00  0.00    +0.000 HD
ATOM     12  H   UNL     1       3.399   3.309  15.537  0.00  0.00    +0.000 HD
ENDROOT
BRANCH   3  13
ATOM     13  C   UNL     1       4.700   3.134  19.277  0.00  0.00    +0.000 C 
BRANCH  13  14
ATOM     14  C   UNL     1       3.309   3.470  19.752  0.00  0.00    +0.000 A 
ATOM     15  C   UNL     1       2.252   2.547  19.770  0.00  0.00    +0.000 A 
ATOM     16  C   UNL     1       0.967   2.939  20.153  0.00  0.00    +0.000 A 
ATOM     17  C   UNL     1       0.724   4.254  20.540  0.00  0.00    +0.000 A 
ATOM     18  C   UNL     1       1.767   5.174  20.564  0.00  0.00    +0.000 A 
ATOM     19  C   UNL     1       3.052   4.786  20.178  0.00  0.00    +0.000 A 
ENDBRANCH  13  14
ENDBRANCH   3  13
BRANCH  10  20
ATOM     20  C   UNL     1       5.359   4.966  14.752  0.00  0.00    +0.000 C 
BRANCH  20  21
ATOM     21  C   UNL     1       6.304   4.005  14.033  0.00  0.00    +0.000 C 
BRANCH  21  22
ATOM     22  C   UNL     1       5.691   3.511  12.733  0.00  0.00    +0.000 C 
BRANCH  22  23
ATOM     23  O   UNL     1       6.560   2.565  12.134  0.00  0.00    +0.000 OA
ATOM     24  H   UNL     1       6.977   2.987  11.360  0.00  0.00    +0.000 HD
ENDBRANCH  22  23
ENDBRANCH  21  22
ENDBRANCH  20  21
ENDBRANCH  10  20
TORSDOF 6
ENDMDL
MODEL 5
REMARK VINA RESULT:      -6.9      2.244      5.353
REMARK  Name = 
REMARK  6 active torsions:
REMARK  status: ('A' for Active; 'I' for Inactive)
REMARK    1  A    between atoms: N_3  and  C_4
REMARK    2  A    between atoms: C_4  and  C_5
REMARK    3  A    between atoms: N_17  and  C_18
REMARK    4  A    between atoms: C_18  and  C_19
REMARK    5  A    between atoms: C_19  and  C_20
REMARK    6  A    between atoms: C_20  and  O_21
REMARK                            x       y       z     vdW  Elec       q    Type
REMARK                         _______ _______ _______ _____ _____    ______ ____
ROOT
ATOM      1  N   UNL     1       4.653   2.383  19.237  0.00  0.00    +0.000 N 
ATOM      2  C   UNL     1       4.206   3.560  18.803  0.00  0.00    +0.000 A 
ATOM      3  N   UNL     1       4.951   4.498  18.240  0.00  0.00    +0.000 N 
ATOM      4  C   UNL     1       4.175   5.642  18.059  0.00  0.00    +0.000 A 
ATOM      5  C   UNL     1       4.500   6.911  17.584  0.00  0.00    +0.000 A 
ATOM      6  C   UNL     1       3.454   7.840  17.546  0.00  0.00    +0.000 A 
ATOM      7  C   UNL     1       2.150   7.502  17.960  0.00  0.00    +0.000 A 
ATOM      8  C   UNL     1       1.835   6.220  18.437  0.00  0.00    +0.000 A 
ATOM      9  C   UNL     1       2.885   5.306  18.478  0.00  0.00    +0.000 A 
ATOM     10  N   UNL     1       2.947   3.974  18.892  0.00  0.00    +0.000 N 
ATOM     11  H   UNL     1       5.641   2.174  19.243  0.00  0.00    +0.000 HD
ATOM     12  H   UNL     1       4.030   1.709  19.654  0.00  0.00    +0.000 HD
ENDROOT
BRANCH   3  13
ATOM     13  C   UNL     1       6.341   4.361  17.828  0.00  0.00    +0.000 C 
BRANCH  13  14
ATOM     14  C   UNL     1       6.493   4.382  16.328  0.00  0.00    +0.000 A 
ATOM     15  C   UNL     1       7.403   5.211  15.653  0.00  0.00    +0.000 A 
ATOM     16  C   UNL     1       7.447   5.237  14.257  0.00  0.00    +0.000 A 
ATOM     17  C   UNL     1       6.595   4.423  13.516  0.00  0.00    +0.000 A 
ATOM     18  C   UNL     1       5.712   3.567  14.168  0.00  0.00    +0.000 A 
ATOM     19  C   UNL     1       5.664   3.542  15.563  0.00  0.00    +0.000 A 
ENDBRANCH  13  14
ENDBRANCH   3  13
BRANCH  10  20
ATOM     20  C   UNL     1       1.803   3.171  19.329  0.00  0.00    +0.000 C 
BRANCH  20  21
ATOM     21  C   UNL     1       1.225   3.684  20.646  0.00  0.00    +0.000 C 
BRANCH  21  22
ATOM     22  C   UNL     1       2.301   3.764  21.717  0.00  0.00    +0.000 C 
BRANCH  22  23
ATOM     23  O   UNL     1       2.836   2.471  21.943  0.00  0.00    +0.000 OA
ATOM     24  H   UNL     1       3.162   2.436  22.862  0.00  0.00    +0.000 HD
ENDBRANCH  22  23
ENDBRANCH  21  22
ENDBRANCH  20  21
ENDBRANCH  10  20
TORSDOF 6
ENDMDL
MODEL 6
REMARK VINA RESULT:      -6.9      2.864      6.119
REMARK  Name = 
REMARK  6 active torsions:
REMARK  status: ('A' for Active; 'I' for Inactive)
REMARK    1  A    between atoms: N_3  and  C_4
REMARK    2  A    between atoms: C_4  and  C_5
REMARK    3  A    between atoms: N_17  and  C_18
REMARK    4  A    between atoms: C_18  and  C_19
REMARK    5  A    between atoms: C_19  and  C_20
REMARK    6  A    between atoms: C_20  and  O_21
REMARK                            x       y       z     vdW  Elec       q    Type
REMARK                         _______ _______ _______ _____ _____    ______ ____
ROOT
ATOM      1  N   UNL     1       5.918   7.279  16.648  0.00  0.00    +0.000 N 
ATOM      2  C   UNL     1       5.092   6.303  17.020  0.00  0.00    +0.000 A 
ATOM      3  N   UNL     1       5.306   5.010  16.836  0.00  0.00    +0.000 N 
ATOM      4  C   UNL     1       4.163   4.306  17.210  0.00  0.00    +0.000 A 
ATOM      5  C   UNL     1       3.850   2.949  17.139  0.00  0.00    +0.000 A 
ATOM      6  C   UNL     1       2.581   2.585  17.603  0.00  0.00    +0.000 A 
ATOM      7  C   UNL     1       1.680   3.539  18.114  0.00  0.00    +0.000 A 
ATOM      8  C   UNL     1       2.005   4.903  18.179  0.00  0.00    +0.000 A 
ATOM      9  C   UNL     1       3.267   5.255  17.708  0.00  0.00    +0.000 A 
ATOM     10  N   UNL     1       3.916   6.488  17.611  0.00  0.00    +0.000 N 
ATOM     11  H   UNL     1       6.744   7.078  16.103  0.00  0.00    +0.000 HD
ATOM     12  H   UNL     1       5.697   8.246  16.823  0.00  0.00    +0.000 HD
ENDROOT
BRANCH   3  13
ATOM     13  C   UNL     1       6.543   4.401  16.366  0.00  0.00    +0.000 C 
BRANCH  13  14
ATOM     14  C   UNL     1       6.622   4.365  14.861  0.00  0.00    +0.000 A 
ATOM     15  C   UNL     1       5.798   3.560  14.060  0.00  0.00    +0.000 A 
ATOM     16  C   UNL     1       5.968   3.517  12.674  0.00  0.00    +0.000 A 
ATOM     17  C   UNL     1       6.954   4.291  12.068  0.00  0.00    +0.000 A 
ATOM     18  C   UNL     1       7.756   5.124  12.841  0.00  0.00    +0.000 A 
ATOM     19  C   UNL     1       7.590   5.165  14.227  0.00  0.00    +0.000 A 
ENDBRANCH  13  14
ENDBRANCH   3  13
BRANCH  10  20
ATOM     20  C   UNL     1       3.388   7.762  18.102  0.00  0.00    +0.000 C 
BRANCH  20  21
ATOM     21  C   UNL     1       1.999   8.050  17.538  0.00  0.00    +0.000 C 
BRANCH  21  22
ATOM     22  C   UNL     1       1.459   9.369  18.067  0.00  0.00    +0.000 C 
BRANCH  22  23
ATOM     23  O   UNL     1       2.101  10.441  17.400  0.00  0.00    +0.000 OA
ATOM     24  H   UNL     1       3.053  10.403  17.614  0.00  0.00    +0.000 HD
ENDBRANCH  22  23
ENDBRANCH  21  22
ENDBRANCH  20  21
ENDBRANCH  10  20
TORSDOF 6
ENDMDL
MODEL 7
REMARK VINA RESULT:      -6.9      2.386      5.592
REMARK  Name = 
REMARK  6 active torsions:
REMARK  status: ('A' for Active; 'I' for Inactive)
REMARK    1  A    between atoms: N_3  and  C_4
REMARK    2  A    between atoms: C_4  and  C_5
REMARK    3  A    between atoms: N_17  and  C_18
REMARK    4  A    between atoms: C_18  and  C_19
REMARK    5  A    between atoms: C_19  and  C_20
REMARK    6  A    between atoms: C_20  and  O_21
REMARK                            x       y       z     vdW  Elec       q    Type
REMARK                         _______ _______ _______ _____ _____    ______ ____
ROOT
ATOM      1  N   UNL     1       4.242   2.212  18.363  0.00  0.00    +0.000 N 
ATOM      2  C   UNL     1       3.916   3.479  18.114  0.00  0.00    +0.000 A 
ATOM      3  N   UNL     1       4.749   4.409  17.674  0.00  0.00    +0.000 N 
ATOM      4  C   UNL     1       4.095   5.639  17.679  0.00  0.00    +0.000 A 
ATOM      5  C   UNL     1       4.546   6.925  17.386  0.00  0.00    +0.000 A 
ATOM      6  C   UNL     1       3.602   7.951  17.508  0.00  0.00    +0.000 A 
ATOM      7  C   UNL     1       2.274   7.690  17.901  0.00  0.00    +0.000 A 
ATOM      8  C   UNL     1       1.832   6.391  18.196  0.00  0.00    +0.000 A 
ATOM      9  C   UNL     1       2.782   5.379  18.078  0.00  0.00    +0.000 A 
ATOM     10  N   UNL     1       2.708   4.001  18.294  0.00  0.00    +0.000 N 
ATOM     11  H   UNL     1       5.203   1.905  18.313  0.00  0.00    +0.000 HD
ATOM     12  H   UNL     1       3.556   1.551  18.693  0.00  0.00    +0.000 HD
ENDROOT
BRANCH   3  13
ATOM     13  C   UNL     1       6.113   4.193  17.212  0.00  0.00    +0.000 C 
BRANCH  13  14
ATOM     14  C   UNL     1       6.221   4.260  15.709  0.00  0.00    +0.000 A 
ATOM     15  C   UNL     1       5.309   3.644  14.838  0.00  0.00    +0.000 A 
ATOM     16  C   UNL     1       5.503   3.683  13.455  0.00  0.00    +0.000 A 
ATOM     17  C   UNL     1       6.602   4.352  12.923  0.00  0.00    +0.000 A 
ATOM     18  C   UNL     1       7.496   5.000  13.769  0.00  0.00    +0.000 A 
ATOM     19  C   UNL     1       7.306   4.960  15.151  0.00  0.00    +0.000 A 
ENDBRANCH  13  14
ENDBRANCH   3  13
BRANCH  10  20
ATOM     20  C   UNL     1       1.491   3.263  18.638  0.00  0.00    +0.000 C 
BRANCH  20  21
ATOM     21  C   UNL     1       1.085   3.496  20.092  0.00  0.00    +0.000 C 
BRANCH  21  22
ATOM     22  C   UNL     1       1.776   2.507  21.016  0.00  0.00    +0.000 C 
BRANCH  22  23
ATOM     23  O   UNL     1       2.063   3.140  22.251  0.00  0.00    +0.000 OA
ATOM     24  H   UNL     1       1.460   2.775  22.925  0.00  0.00    +0.000 HD
ENDBRANCH  22  23
ENDBRANCH  21  22
ENDBRANCH  20  21
ENDBRANCH  10  20
TORSDOF 6
ENDMDL
MODEL 8
REMARK VINA RESULT:      -6.8      2.278      5.306
REMARK  Name = 
REMARK  6 active torsions:
REMARK  status: ('A' for Active; 'I' for Inactive)
REMARK    1  A    between atoms: N_3  and  C_4
REMARK    2  A    between atoms: C_4  and  C_5
REMARK    3  A    between atoms: N_17  and  C_18
REMARK    4  A    between atoms: C_18  and  C_19
REMARK    5  A    between atoms: C_19  and  C_20
REMARK    6  A    between atoms: C_20  and  O_21
REMARK                            x       y       z     vdW  Elec       q    Type
REMARK                         _______ _______ _______ _____ _____    ______ ____
ROOT
ATOM      1  N   UNL     1       5.152   2.788  19.859  0.00  0.00    +0.000 N 
ATOM      2  C   UNL     1       4.625   3.880  19.308  0.00  0.00    +0.000 A 
ATOM      3  N   UNL     1       5.254   4.695  18.477  0.00  0.00    +0.000 N 
ATOM      4  C   UNL     1       4.444   5.803  18.232  0.00  0.00    +0.000 A 
ATOM      5  C   UNL     1       4.670   6.967  17.499  0.00  0.00    +0.000 A 
ATOM      6  C   UNL     1       3.620   7.892  17.475  0.00  0.00    +0.000 A 
ATOM      7  C   UNL     1       2.407   7.651  18.151  0.00  0.00    +0.000 A 
ATOM      8  C   UNL     1       2.193   6.476  18.888  0.00  0.00    +0.000 A 
ATOM      9  C   UNL     1       3.246   5.566  18.911  0.00  0.00    +0.000 A 
ATOM     10  N   UNL     1       3.393   4.323  19.532  0.00  0.00    +0.000 N 
ATOM     11  H   UNL     1       6.130   2.567  19.737  0.00  0.00    +0.000 HD
ATOM     12  H   UNL     1       4.616   2.206  20.483  0.00  0.00    +0.000 HD
ENDROOT
BRANCH   3  13
ATOM     13  C   UNL     1       6.558   4.466  17.870  0.00  0.00    +0.000 C 
BRANCH  13  14
ATOM     14  C   UNL     1       6.478   4.387  16.366  0.00  0.00    +0.000 A 
ATOM     15  C   UNL     1       7.360   5.061  15.507  0.00  0.00    +0.000 A 
ATOM     16  C   UNL     1       7.191   5.005  14.121  0.00  0.00    +0.000 A 
ATOM     17  C   UNL     1       6.149   4.262  13.574  0.00  0.00    +0.000 A 
ATOM     18  C   UNL     1       5.287   3.557  14.409  0.00  0.00    +0.000 A 
ATOM     19  C   UNL     1       5.452   3.614  15.794  0.00  0.00    +0.000 A 
ENDBRANCH  13  14
ENDBRANCH   3  13
BRANCH  10  20
ATOM     20  C   UNL     1       2.348   3.626  20.284  0.00  0.00    +0.000 C 
BRANCH  20  21
ATOM     21  C   UNL     1       1.125   3.339  19.415  0.00  0.00    +0.000 C 
BRANCH  21  22
ATOM     22  C   UNL     1       1.478   2.400  18.273  0.00  0.00    +0.000 C 
BRANCH  22  23
ATOM     23  O   UNL     1       2.164   1.272  18.787  0.00  0.00    +0.000 OA
ATOM     24  H   UNL     1       1.503   0.584  18.992  0.00  0.00    +0.000 HD
ENDBRANCH  22  23
ENDBRANCH  21  22
ENDBRANCH  20  21
ENDBRANCH  10  20
TORSDOF 6
ENDMDL
MODEL 9
REMARK VINA RESULT:      -6.8      2.293      3.428
REMARK  Name = 
REMARK  6 active torsions:
REMARK  status: ('A' for Active; 'I' for Inactive)
REMARK    1  A    between atoms: N_3  and  C_4
REMARK    2  A    between atoms: C_4  and  C_5
REMARK    3  A    between atoms: N_17  and  C_18
REMARK    4  A    between atoms: C_18  and  C_19
REMARK    5  A    between atoms: C_19  and  C_20
REMARK    6  A    between atoms: C_20  and  O_21
REMARK                            x       y       z     vdW  Elec       q    Type
REMARK                         _______ _______ _______ _____ _____    ______ ____
ROOT
ATOM      1  N   UNL     1       3.733   3.358  16.372  0.00  0.00    +0.000 N 
ATOM      2  C   UNL     1       4.757   4.057  16.859  0.00  0.00    +0.000 A 
ATOM      3  N   UNL     1       5.154   4.050  18.121  0.00  0.00    +0.000 N 
ATOM      4  C   UNL     1       6.147   5.013  18.287  0.00  0.00    +0.000 A 
ATOM      5  C   UNL     1       6.829   5.450  19.422  0.00  0.00    +0.000 A 
ATOM      6  C   UNL     1       7.774   6.463  19.220  0.00  0.00    +0.000 A 
ATOM      7  C   UNL     1       8.019   7.001  17.942  0.00  0.00    +0.000 A 
ATOM      8  C   UNL     1       7.325   6.554  16.807  0.00  0.00    +0.000 A 
ATOM      9  C   UNL     1       6.382   5.551  17.020  0.00  0.00    +0.000 A 
ATOM     10  N   UNL     1       5.516   4.884  16.149  0.00  0.00    +0.000 N 
ATOM     11  H   UNL     1       3.125   2.835  16.986  0.00  0.00    +0.000 HD
ATOM     12  H   UNL     1       3.485   3.404  15.396  0.00  0.00    +0.000 HD
ENDROOT
BRANCH   3  13
ATOM     13  C   UNL     1       4.676   3.158  19.168  0.00  0.00    +0.000 C 
BRANCH  13  14
ATOM     14  C   UNL     1       3.285   3.515  19.629  0.00  0.00    +0.000 A 
ATOM     15  C   UNL     1       2.932   4.782  20.117  0.00  0.00    +0.000 A 
ATOM     16  C   UNL     1       1.643   5.030  20.596  0.00  0.00    +0.000 A 
ATOM     17  C   UNL     1       0.685   4.021  20.578  0.00  0.00    +0.000 A 
ATOM     18  C   UNL     1       1.007   2.769  20.064  0.00  0.00    +0.000 A 
ATOM     19  C   UNL     1       2.295   2.517  19.588  0.00  0.00    +0.000 A 
ENDBRANCH  13  14
ENDBRANCH   3  13
BRANCH  10  20
ATOM     20  C   UNL     1       5.478   5.059  14.696  0.00  0.00    +0.000 C 
BRANCH  20  21
ATOM     21  C   UNL     1       6.326   4.010  13.980  0.00  0.00    +0.000 C 
BRANCH  21  22
ATOM     22  C   UNL     1       5.675   3.583  12.675  0.00  0.00    +0.000 C 
BRANCH  22  23
ATOM     23  O   UNL     1       6.264   2.374  12.230  0.00  0.00    +0.000 OA
ATOM     24  H   UNL     1       6.717   1.961  12.989  0.00  0.00    +0.000 HD
ENDBRANCH  22  23
ENDBRANCH  21  22
ENDBRANCH  20  21
ENDBRANCH  10  20
TORSDOF 6
ENDMDL
