MODEL 1
REMARK VINA RESULT:      -8.0      0.000      0.000
REMARK  Name = 
REMARK  8 active torsions:
REMARK  status: ('A' for Active; 'I' for Inactive)
REMARK    1  A    between atoms: N_1  and  C_2
REMARK    2  A    between atoms: N_10  and  C_11
REMARK    3  A    between atoms: C_14  and  C_15
REMARK    4  A    between atoms: C_15  and  O_16
REMARK    5  A    between atoms: O_16  and  P_17
REMARK    6  A    between atoms: P_17  and  O_19
REMARK    7  A    between atoms: P_17  and  O_20
REMARK    8  A    between atoms: O_20  and  C_21
REMARK                            x       y       z     vdW  Elec       q    Type
REMARK                         _______ _______ _______ _____ _____    ______ ____
ROOT
ATOM      1  C   UNL     1       2.581   5.141  19.461  0.00  0.00    +0.000 C 
ATOM      2  C   UNL     1       2.628   4.045  18.406  0.00  0.00    +0.000 C 
ATOM      3  C   UNL     1       4.089   4.009  18.037  0.00  0.00    +0.000 C 
ATOM      4  C   UNL     1       4.782   4.298  19.364  0.00  0.00    +0.000 C 
ATOM      5  O   UNL     1       3.840   5.047  20.167  0.00  0.00    +0.000 OA
ENDROOT
BRANCH   1  14
ATOM      6  C   UNL     1       1.447   9.850  19.121  0.00  0.00    +0.000 A 
ATOM      7  N   UNL     1       0.913   9.941  20.359  0.00  0.00    +0.000 NA
ATOM      8  C   UNL     1       0.892   8.829  21.129  0.00  0.00    +0.000 A 
ATOM      9  N   UNL     1       1.351   7.591  20.838  0.00  0.00    +0.000 NA
ATOM     10  C   UNL     1       1.883   7.561  19.604  0.00  0.00    +0.000 A 
ATOM     11  C   UNL     1       1.980   8.618  18.710  0.00  0.00    +0.000 A 
ATOM     12  N   UNL     1       2.624   8.233  17.555  0.00  0.00    +0.000 NA
ATOM     13  C   UNL     1       2.902   6.961  17.742  0.00  0.00    +0.000 A 
ATOM     14  N   UNL     1       2.437   6.494  18.948  0.00  0.00    +0.000 N 
BRANCH   6  15
ATOM     15  N   UNL     1       1.465  10.983  18.319  0.00  0.00    +0.000 N 
ATOM     16  H   UNL     1       2.265  11.008  17.701  0.00  0.00    +0.000 HD
ATOM     17  H   UNL     1       0.558  11.214  17.930  0.00  0.00    +0.000 HD
ENDBRANCH   6  15
ENDBRANCH   1  14
BRANCH   4  18
ATOM     18  C   UNL     1       6.077   5.087  19.148  0.00  0.00    +0.000 C 
BRANCH  18  19
ATOM     19  O   UNL     1       5.917   6.123  18.167  0.00  0.00    +0.000 OA
BRANCH  19  20
ATOM     20  P   UNL     1       6.777   5.912  16.680  0.00  0.00    +0.000 P 
ATOM     21  O   UNL     1       7.460   7.271  16.868  0.00  0.00    +0.000 OA
BRANCH  20  22
ATOM     22  O   UNL     1       7.716   4.748  17.345  0.00  0.00    +0.000 OA
ATOM     23  H   UNL     1       7.428   4.480  18.233  0.00  0.00    +0.000 HD
ENDBRANCH  20  22
BRANCH  20  24
ATOM     24  O   UNL     1       7.635   5.701  15.193  0.00  0.00    +0.000 OA
BRANCH  24  25
ATOM     25  C   UNL     1       7.069   4.969  14.186  0.00  0.00    +0.000 A 
ATOM     26  C   UNL     1       7.735   4.992  12.961  0.00  0.00    +0.000 A 
ATOM     27  C   UNL     1       7.252   4.245  11.888  0.00  0.00    +0.000 A 
ATOM     28  C   UNL     1       6.107   3.467  12.045  0.00  0.00    +0.000 A 
ATOM     29  C   UNL     1       5.445   3.440  13.274  0.00  0.00    +0.000 A 
ATOM     30  C   UNL     1       5.925   4.191  14.351  0.00  0.00    +0.000 A 
ENDBRANCH  24  25
ENDBRANCH  20  24
ENDBRANCH  19  20
ENDBRANCH  18  19
ENDBRANCH   4  18
TORSDOF 8
ENDMDL
MODEL 2
REMARK VINA RESULT:      -7.9      0.832      1.396
REMARK  Name = 
REMARK  8 active torsions:
REMARK  status: ('A' for Active; 'I' for Inactive)
REMARK    1  A    between atoms: N_1  and  C_2
REMARK    2  A    between atoms: N_10  and  C_11
REMARK    3  A    between atoms: C_14  and  C_15
REMARK    4  A    between atoms: C_15  and  O_16
REMARK    5  A    between atoms: O_16  and  P_17
REMARK    6  A    between atoms: P_17  and  O_19
REMARK    7  A    between atoms: P_17  and  O_20
REMARK    8  A    between atoms: O_20  and  C_21
REMARK                            x       y       z     vdW  Elec       q    Type
REMARK                         _______ _______ _______ _____ _____    ______ ____
ROOT
ATOM      1  C   UNL     1       2.402   5.334  20.509  0.00  0.00    +0.000 C 
ATOM      2  C   UNL     1       1.398   4.238  20.186  0.00  0.00    +0.000 C 
ATOM      3  C   UNL     1       2.104   3.454  19.109  0.00  0.00    +0.000 C 
ATOM      4  C   UNL     1       3.565   3.524  19.540  0.00  0.00    +0.000 C 
ATOM      5  O   UNL     1       3.703   4.725  20.336  0.00  0.00    +0.000 OA
ENDROOT
BRANCH   1  14
ATOM      6  C   UNL     1       1.371   9.797  18.899  0.00  0.00    +0.000 A 
ATOM      7  N   UNL     1       0.717  10.187  20.016  0.00  0.00    +0.000 NA
ATOM      8  C   UNL     1       0.605   9.301  21.032  0.00  0.00    +0.000 A 
ATOM      9  N   UNL     1       1.075   8.035  21.105  0.00  0.00    +0.000 NA
ATOM     10  C   UNL     1       1.726   7.705  19.977  0.00  0.00    +0.000 A 
ATOM     11  C   UNL     1       1.926   8.508  18.863  0.00  0.00    +0.000 A 
ATOM     12  N   UNL     1       2.677   7.856  17.910  0.00  0.00    +0.000 NA
ATOM     13  C   UNL     1       2.918   6.674  18.433  0.00  0.00    +0.000 A 
ATOM     14  N   UNL     1       2.329   6.515  19.665  0.00  0.00    +0.000 N 
BRANCH   6  15
ATOM     15  N   UNL     1       1.484  10.696  17.846  0.00  0.00    +0.000 N 
ATOM     16  H   UNL     1       1.309  11.650  18.131  0.00  0.00    +0.000 HD
ATOM     17  H   UNL     1       2.284  10.518  17.251  0.00  0.00    +0.000 HD
ENDBRANCH   6  15
ENDBRANCH   1  14
BRANCH   4  18
ATOM     18  C   UNL     1       4.497   3.554  18.326  0.00  0.00    +0.000 C 
BRANCH  18  19
ATOM     19  O   UNL     1       5.554   4.512  18.484  0.00  0.00    +0.000 OA
BRANCH  19  20
ATOM     20  P   UNL     1       6.231   5.157  17.028  0.00  0.00    +0.000 P 
ATOM     21  O   UNL     1       6.532   6.480  17.738  0.00  0.00    +0.000 OA
BRANCH  20  22
ATOM     22  O   UNL     1       7.535   4.176  17.156  0.00  0.00    +0.000 OA
ATOM     23  H   UNL     1       7.404   3.437  17.773  0.00  0.00    +0.000 HD
ENDBRANCH  20  22
BRANCH  20  24
ATOM     24  O   UNL     1       6.907   5.800  15.571  0.00  0.00    +0.000 OA
BRANCH  24  25
ATOM     25  C   UNL     1       6.816   5.081  14.411  0.00  0.00    +0.000 A 
ATOM     26  C   UNL     1       5.718   4.228  14.303  0.00  0.00    +0.000 A 
ATOM     27  C   UNL     1       5.523   3.485  13.140  0.00  0.00    +0.000 A 
ATOM     28  C   UNL     1       6.423   3.602  12.083  0.00  0.00    +0.000 A 
ATOM     29  C   UNL     1       7.518   4.461  12.191  0.00  0.00    +0.000 A 
ATOM     30  C   UNL     1       7.718   5.206  13.357  0.00  0.00    +0.000 A 
ENDBRANCH  24  25
ENDBRANCH  20  24
ENDBRANCH  19  20
ENDBRANCH  18  19
ENDBRANCH   4  18
TORSDOF 8
ENDMDL
MODEL 3
REMARK VINA RESULT:      -7.9      0.652      1.135
REMARK  Name = 
REMARK  8 active torsions:
REMARK  status: ('A' for Active; 'I' for Inactive)
REMARK    1  A    between atoms: N_1  and  C_2
REMARK    2  A    between atoms: N_10  and  C_11
REMARK    3  A    between atoms: C_14  and  C_15
REMARK    4  A    between atoms: C_15  and  O_16
REMARK    5  A    between atoms: O_16  and  P_17
REMARK    6  A    between atoms: P_17  and  O_19
REMARK    7  A    between atoms: P_17  and  O_20
REMARK    8  A    between atoms: O_20  and  C_21
REMARK                            x       y       z     vdW  Elec       q    Type
REMARK                         _______ _______ _______ _____ _____    ______ ____
ROOT
ATOM      1  C   UNL     1       2.151   5.414  19.423  0.00  0.00    +0.000 C 
ATOM      2  C   UNL     1       2.253   4.446  18.253  0.00  0.00    +0.000 C 
ATOM      3  C   UNL     1       3.730   4.448  17.954  0.00  0.00    +0.000 C 
ATOM      4  C   UNL     1       4.357   4.581  19.338  0.00  0.00    +0.000 C 
ATOM      5  O   UNL     1       3.375   5.237  20.174  0.00  0.00    +0.000 OA
ENDROOT
BRANCH   1  14
ATOM      6  C   UNL     1       1.229  10.175  19.656  0.00  0.00    +0.000 A 
ATOM      7  N   UNL     1       0.816  10.161  20.942  0.00  0.00    +0.000 NA
ATOM      8  C   UNL     1       0.810   8.979  21.599  0.00  0.00    +0.000 A 
ATOM      9  N   UNL     1       1.178   7.759  21.144  0.00  0.00    +0.000 NA
ATOM     10  C   UNL     1       1.592   7.833  19.868  0.00  0.00    +0.000 A 
ATOM     11  C   UNL     1       1.660   8.971  19.077  0.00  0.00    +0.000 A 
ATOM     12  N   UNL     1       2.176   8.680  17.833  0.00  0.00    +0.000 NA
ATOM     13  C   UNL     1       2.405   7.385  17.867  0.00  0.00    +0.000 A 
ATOM     14  N   UNL     1       2.030   6.817  19.061  0.00  0.00    +0.000 N 
BRANCH   6  15
ATOM     15  N   UNL     1       1.231  11.383  18.970  0.00  0.00    +0.000 N 
ATOM     16  H   UNL     1       1.861  12.061  19.379  0.00  0.00    +0.000 HD
ATOM     17  H   UNL     1       1.242  11.273  17.963  0.00  0.00    +0.000 HD
ENDBRANCH   6  15
ENDBRANCH   1  14
BRANCH   4  18
ATOM     18  C   UNL     1       5.659   5.386  19.277  0.00  0.00    +0.000 C 
BRANCH  18  19
ATOM     19  O   UNL     1       6.702   4.668  18.598  0.00  0.00    +0.000 OA
BRANCH  19  20
ATOM     20  P   UNL     1       7.085   5.201  16.998  0.00  0.00    +0.000 P 
ATOM     21  O   UNL     1       7.738   6.468  17.562  0.00  0.00    +0.000 OA
BRANCH  20  22
ATOM     22  O   UNL     1       8.227   4.038  16.844  0.00  0.00    +0.000 OA
ATOM     23  H   UNL     1       7.860   3.140  16.804  0.00  0.00    +0.000 HD
ENDBRANCH  20  22
BRANCH  20  24
ATOM     24  O   UNL     1       7.468   5.734  15.397  0.00  0.00    +0.000 OA
BRANCH  24  25
ATOM     25  C   UNL     1       7.055   4.994  14.324  0.00  0.00    +0.000 A 
ATOM     26  C   UNL     1       5.855   4.301  14.482  0.00  0.00    +0.000 A 
ATOM     27  C   UNL     1       5.337   3.550  13.427  0.00  0.00    +0.000 A 
ATOM     28  C   UNL     1       6.016   3.501  12.212  0.00  0.00    +0.000 A 
ATOM     29  C   UNL     1       7.214   4.201  12.054  0.00  0.00    +0.000 A 
ATOM     30  C   UNL     1       7.737   4.951  13.110  0.00  0.00    +0.000 A 
ENDBRANCH  24  25
ENDBRANCH  20  24
ENDBRANCH  19  20
ENDBRANCH  18  19
ENDBRANCH   4  18
TORSDOF 8
ENDMDL
MODEL 4
REMARK VINA RESULT:      -7.7      1.429      1.938
REMARK  Name = 
REMARK  8 active torsions:
REMARK  status: ('A' for Active; 'I' for Inactive)
REMARK    1  A    between atoms: N_1  and  C_2
REMARK    2  A    between atoms: N_10  and  C_11
REMARK    3  A    between atoms: C_14  and  C_15
REMARK    4  A    between atoms: C_15  and  O_16
REMARK    5  A    between atoms: O_16  and  P_17
REMARK    6  A    between atoms: P_17  and  O_19
REMARK    7  A    between atoms: P_17  and  O_20
REMARK    8  A    between atoms: O_20  and  C_21
REMARK                            x       y       z     vdW  Elec       q    Type
REMARK                         _______ _______ _______ _____ _____    ______ ____
ROOT
ATOM      1  C   UNL     1       2.612   5.273  20.502  0.00  0.00    +0.000 C 
ATOM      2  C   UNL     1       1.316   4.532  20.795  0.00  0.00    +0.000 C 
ATOM      3  C   UNL     1       1.181   3.623  19.600  0.00  0.00    +0.000 C 
ATOM      4  C   UNL     1       2.627   3.246  19.295  0.00  0.00    +0.000 C 
ATOM      5  O   UNL     1       3.450   4.319  19.809  0.00  0.00    +0.000 OA
ENDROOT
BRANCH   1  14
ATOM      6  C   UNL     1       1.362   9.701  18.952  0.00  0.00    +0.000 A 
ATOM      7  N   UNL     1       0.698  10.046  20.077  0.00  0.00    +0.000 NA
ATOM      8  C   UNL     1       0.634   9.144  21.083  0.00  0.00    +0.000 A 
ATOM      9  N   UNL     1       1.163   7.901  21.137  0.00  0.00    +0.000 NA
ATOM     10  C   UNL     1       1.822   7.615  20.002  0.00  0.00    +0.000 A 
ATOM     11  C   UNL     1       1.977   8.440  18.896  0.00  0.00    +0.000 A 
ATOM     12  N   UNL     1       2.752   7.835  17.931  0.00  0.00    +0.000 NA
ATOM     13  C   UNL     1       3.051   6.659  18.439  0.00  0.00    +0.000 A 
ATOM     14  N   UNL     1       2.478   6.459  19.672  0.00  0.00    +0.000 N 
BRANCH   6  15
ATOM     15  N   UNL     1       1.427  10.616  17.909  0.00  0.00    +0.000 N 
ATOM     16  H   UNL     1       0.705  11.322  17.968  0.00  0.00    +0.000 HD
ATOM     17  H   UNL     1       2.370  10.919  17.699  0.00  0.00    +0.000 HD
ENDBRANCH   6  15
ENDBRANCH   1  14
BRANCH   4  18
ATOM     18  C   UNL     1       2.841   3.054  17.791  0.00  0.00    +0.000 C 
BRANCH  18  19
ATOM     19  O   UNL     1       4.171   2.604  17.491  0.00  0.00    +0.000 OA
BRANCH  19  20
ATOM     20  P   UNL     1       5.181   3.713  16.628  0.00  0.00    +0.000 P 
ATOM     21  O   UNL     1       4.009   4.690  16.486  0.00  0.00    +0.000 OA
BRANCH  20  22
ATOM     22  O   UNL     1       6.013   4.075  17.991  0.00  0.00    +0.000 OA
ATOM     23  H   UNL     1       6.658   3.394  18.243  0.00  0.00    +0.000 HD
ENDBRANCH  20  22
BRANCH  20  24
ATOM     24  O   UNL     1       6.191   4.821  15.765  0.00  0.00    +0.000 OA
BRANCH  24  25
ATOM     25  C   UNL     1       6.451   4.604  14.440  0.00  0.00    +0.000 A 
ATOM     26  C   UNL     1       7.555   5.274  13.914  0.00  0.00    +0.000 A 
ATOM     27  C   UNL     1       7.919   5.083  12.581  0.00  0.00    +0.000 A 
ATOM     28  C   UNL     1       7.182   4.215  11.779  0.00  0.00    +0.000 A 
ATOM     29  C   UNL     1       6.081   3.540  12.310  0.00  0.00    +0.000 A 
ATOM     30  C   UNL     1       5.712   3.732  13.644  0.00  0.00    +0.000 A 
ENDBRANCH  24  25
ENDBRANCH  20  24
ENDBRANCH  19  20
ENDBRANCH  18  19
ENDBRANCH   4  18
TORSDOF 8
ENDMDL
MODEL 5
REMARK VINA RESULT:      -7.6      1.275      1.605
REMARK  Name = 
REMARK  8 active torsions:
REMARK  status: ('A' for Active; 'I' for Inactive)
REMARK    1  A    between atoms: N_1  and  C_2
REMARK    2  A    between atoms: N_10  and  C_11
REMARK    3  A    between atoms: C_14  and  C_15
REMARK    4  A    between atoms: C_15  and  O_16
REMARK    5  A    between atoms: O_16  and  P_17
REMARK    6  A    between atoms: P_17  and  O_19
REMARK    7  A    between atoms: P_17  and  O_20
REMARK    8  A    between atoms: O_20  and  C_21
REMARK                            x       y       z     vdW  Elec       q    Type
REMARK                         _______ _______ _______ _____ _____    ______ ____
ROOT
ATOM      1  C   UNL     1       2.957   5.556  19.968  0.00  0.00    +0.000 C 
ATOM      2  C   UNL     1       1.877   4.484  19.934  0.00  0.00    +0.000 C 
ATOM      3  C   UNL     1       2.141   3.796  18.619  0.00  0.00    +0.000 C 
ATOM      4  C   UNL     1       3.662   3.839  18.511  0.00  0.00    +0.000 C 
ATOM      5  O   UNL     1       4.099   4.971  19.300  0.00  0.00    +0.000 OA
ENDROOT
BRANCH   1  14
ATOM      6  C   UNL     1       1.083   9.942  19.058  0.00  0.00    +0.000 A 
ATOM      7  N   UNL     1       0.480  10.074  20.261  0.00  0.00    +0.000 NA
ATOM      8  C   UNL     1       0.604   9.064  21.151  0.00  0.00    +0.000 A 
ATOM      9  N   UNL     1       1.275   7.897  21.017  0.00  0.00    +0.000 NA
ATOM     10  C   UNL     1       1.864   7.824  19.812  0.00  0.00    +0.000 A 
ATOM     11  C   UNL     1       1.831   8.780  18.807  0.00  0.00    +0.000 A 
ATOM     12  N   UNL     1       2.586   8.388  17.724  0.00  0.00    +0.000 NA
ATOM     13  C   UNL     1       3.060   7.209  18.063  0.00  0.00    +0.000 A 
ATOM     14  N   UNL     1       2.619   6.802  19.300  0.00  0.00    +0.000 N 
BRANCH   6  15
ATOM     15  N   UNL     1       0.954  10.969  18.132  0.00  0.00    +0.000 N 
ATOM     16  H   UNL     1       0.120  10.880  17.568  0.00  0.00    +0.000 HD
ATOM     17  H   UNL     1       1.174  11.882  18.514  0.00  0.00    +0.000 HD
ENDBRANCH   6  15
ENDBRANCH   1  14
BRANCH   4  18
ATOM     18  C   UNL     1       4.107   3.974  17.053  0.00  0.00    +0.000 C 
BRANCH  18  19
ATOM     19  O   UNL     1       5.379   4.632  16.939  0.00  0.00    +0.000 OA
BRANCH  19  20
ATOM     20  P   UNL     1       6.085   4.670  15.360  0.00  0.00    +0.000 P 
ATOM     21  O   UNL     1       5.457   6.043  15.098  0.00  0.00    +0.000 OA
BRANCH  20  22
ATOM     22  O   UNL     1       7.580   4.881  15.993  0.00  0.00    +0.000 OA
ATOM     23  H   UNL     1       8.100   5.564  15.538  0.00  0.00    +0.000 HD
ENDBRANCH  20  22
BRANCH  20  24
ATOM     24  O   UNL     1       6.791   4.707  13.780  0.00  0.00    +0.000 OA
BRANCH  24  25
ATOM     25  C   UNL     1       6.350   3.835  12.825  0.00  0.00    +0.000 A 
ATOM     26  C   UNL     1       7.331   3.073  12.189  0.00  0.00    +0.000 A 
ATOM     27  C   UNL     1       6.971   2.130  11.228  0.00  0.00    +0.000 A 
ATOM     28  C   UNL     1       5.628   1.943  10.910  0.00  0.00    +0.000 A 
ATOM     29  C   UNL     1       4.647   2.702  11.551  0.00  0.00    +0.000 A 
ATOM     30  C   UNL     1       5.005   3.650  12.513  0.00  0.00    +0.000 A 
ENDBRANCH  24  25
ENDBRANCH  20  24
ENDBRANCH  19  20
ENDBRANCH  18  19
ENDBRANCH   4  18
TORSDOF 8
ENDMDL
MODEL 6
REMARK VINA RESULT:      -7.5      3.854      7.500
REMARK  Name = 
REMARK  8 active torsions:
REMARK  status: ('A' for Active; 'I' for Inactive)
REMARK    1  A    between atoms: N_1  and  C_2
REMARK    2  A    between atoms: N_10  and  C_11
REMARK    3  A    between atoms: C_14  and  C_15
REMARK    4  A    between atoms: C_15  and  O_16
REMARK    5  A    between atoms: O_16  and  P_17
REMARK    6  A    between atoms: P_17  and  O_19
REMARK    7  A    between atoms: P_17  and  O_20
REMARK    8  A    between atoms: O_20  and  C_21
REMARK                            x       y       z     vdW  Elec       q    Type
REMARK                         _______ _______ _______ _____ _____    ______ ____
ROOT
ATOM      1  C   UNL     1       3.970   2.536  17.457  0.00  0.00    +0.000 C 
ATOM      2  C   UNL     1       3.582   1.451  18.451  0.00  0.00    +0.000 C 
ATOM      3  C   UNL     1       2.425   2.079  19.186  0.00  0.00    +0.000 C 
ATOM      4  C   UNL     1       1.725   2.882  18.095  0.00  0.00    +0.000 C 
ATOM      5  O   UNL     1       2.730   3.190  17.100  0.00  0.00    +0.000 OA
ENDROOT
BRANCH   1  14
ATOM      6  C   UNL     1       7.259   6.102  17.633  0.00  0.00    +0.000 A 
ATOM      7  N   UNL     1       7.359   6.249  16.293  0.00  0.00    +0.000 NA
ATOM      8  C   UNL     1       6.606   5.448  15.505  0.00  0.00    +0.000 A 
ATOM      9  N   UNL     1       5.726   4.489  15.872  0.00  0.00    +0.000 NA
ATOM     10  C   UNL     1       5.657   4.395  17.211  0.00  0.00    +0.000 A 
ATOM     11  C   UNL     1       6.359   5.151  18.138  0.00  0.00    +0.000 A 
ATOM     12  N   UNL     1       6.003   4.813  19.425  0.00  0.00    +0.000 NA
ATOM     13  C   UNL     1       5.109   3.860  19.279  0.00  0.00    +0.000 A 
ATOM     14  N   UNL     1       4.894   3.539  17.960  0.00  0.00    +0.000 N 
BRANCH   6  15
ATOM     15  N   UNL     1       8.035   6.914  18.451  0.00  0.00    +0.000 N 
ATOM     16  H   UNL     1       7.749   6.874  19.420  0.00  0.00    +0.000 HD
ATOM     17  H   UNL     1       9.026   6.859  18.246  0.00  0.00    +0.000 HD
ENDBRANCH   6  15
ENDBRANCH   1  14
BRANCH   4  18
ATOM     18  C   UNL     1       1.101   4.159  18.666  0.00  0.00    +0.000 C 
BRANCH  18  19
ATOM     19  O   UNL     1       1.994   5.280  18.574  0.00  0.00    +0.000 OA
BRANCH  19  20
ATOM     20  P   UNL     1       1.940   6.414  19.879  0.00  0.00    +0.000 P 
ATOM     21  O   UNL     1       1.621   5.284  20.864  0.00  0.00    +0.000 OA
BRANCH  20  22
ATOM     22  O   UNL     1       3.564   6.620  19.816  0.00  0.00    +0.000 OA
ATOM     23  H   UNL     1       4.007   6.006  19.208  0.00  0.00    +0.000 HD
ENDBRANCH  20  22
BRANCH  20  24
ATOM     24  O   UNL     1       1.887   7.548  21.184  0.00  0.00    +0.000 OA
BRANCH  24  25
ATOM     25  C   UNL     1       1.078   8.647  21.089  0.00  0.00    +0.000 A 
ATOM     26  C   UNL     1       0.971   9.222  19.823  0.00  0.00    +0.000 A 
ATOM     27  C   UNL     1       0.138  10.323  19.624  0.00  0.00    +0.000 A 
ATOM     28  C   UNL     1      -0.594  10.840  20.690  0.00  0.00    +0.000 A 
ATOM     29  C   UNL     1      -0.490  10.259  21.955  0.00  0.00    +0.000 A 
ATOM     30  C   UNL     1       0.346   9.158  22.159  0.00  0.00    +0.000 A 
ENDBRANCH  24  25
ENDBRANCH  20  24
ENDBRANCH  19  20
ENDBRANCH  18  19
ENDBRANCH   4  18
TORSDOF 8
ENDMDL
MODEL 7
REMARK VINA RESULT:      -7.4      3.785      7.054
REMARK  Name = 
REMARK  8 active torsions:
REMARK  status: ('A' for Active; 'I' for Inactive)
REMARK    1  A    between atoms: N_1  and  C_2
REMARK    2  A    between atoms: N_10  and  C_11
REMARK    3  A    between atoms: C_14  and  C_15
REMARK    4  A    between atoms: C_15  and  O_16
REMARK    5  A    between atoms: O_16  and  P_17
REMARK    6  A    between atoms: P_17  and  O_19
REMARK    7  A    between atoms: P_17  and  O_20
REMARK    8  A    between atoms: O_20  and  C_21
REMARK                            x       y       z     vdW  Elec       q    Type
REMARK                         _______ _______ _______ _____ _____    ______ ____
ROOT
ATOM      1  C   UNL     1       4.110   2.768  17.805  0.00  0.00    +0.000 C 
ATOM      2  C   UNL     1       3.303   2.047  18.875  0.00  0.00    +0.000 C 
ATOM      3  C   UNL     1       2.143   2.983  19.096  0.00  0.00    +0.000 C 
ATOM      4  C   UNL     1       1.882   3.539  17.700  0.00  0.00    +0.000 C 
ATOM      5  O   UNL     1       3.133   3.443  16.979  0.00  0.00    +0.000 OA
ENDROOT
BRANCH   1  14
ATOM      6  C   UNL     1       7.472   6.268  17.947  0.00  0.00    +0.000 A 
ATOM      7  N   UNL     1       7.561   6.412  16.606  0.00  0.00    +0.000 NA
ATOM      8  C   UNL     1       6.785   5.626  15.826  0.00  0.00    +0.000 A 
ATOM      9  N   UNL     1       5.890   4.684  16.202  0.00  0.00    +0.000 NA
ATOM     10  C   UNL     1       5.831   4.593  17.541  0.00  0.00    +0.000 A 
ATOM     11  C   UNL     1       6.558   5.335  18.461  0.00  0.00    +0.000 A 
ATOM     12  N   UNL     1       6.207   5.005  19.752  0.00  0.00    +0.000 NA
ATOM     13  C   UNL     1       5.292   4.070  19.615  0.00  0.00    +0.000 A 
ATOM     14  N   UNL     1       5.058   3.753  18.298  0.00  0.00    +0.000 N 
BRANCH   6  15
ATOM     15  N   UNL     1       8.272   7.064  18.757  0.00  0.00    +0.000 N 
ATOM     16  H   UNL     1       9.000   7.536  18.238  0.00  0.00    +0.000 HD
ATOM     17  H   UNL     1       7.745   7.604  19.434  0.00  0.00    +0.000 HD
ENDBRANCH   6  15
ENDBRANCH   1  14
BRANCH   4  18
ATOM     18  C   UNL     1       1.389   4.987  17.767  0.00  0.00    +0.000 C 
BRANCH  18  19
ATOM     19  O   UNL     1       2.318   5.838  18.456  0.00  0.00    +0.000 OA
BRANCH  19  20
ATOM     20  P   UNL     1       2.274   7.518  18.042  0.00  0.00    +0.000 P 
ATOM     21  O   UNL     1       2.215   7.896  19.525  0.00  0.00    +0.000 OA
BRANCH  20  22
ATOM     22  O   UNL     1       3.839   7.479  17.564  0.00  0.00    +0.000 OA
ATOM     23  H   UNL     1       4.357   8.240  17.874  0.00  0.00    +0.000 HD
ENDBRANCH  20  22
BRANCH  20  24
ATOM     24  O   UNL     1       2.229   9.196  17.626  0.00  0.00    +0.000 OA
BRANCH  24  25
ATOM     25  C   UNL     1       1.190   9.971  18.061  0.00  0.00    +0.000 A 
ATOM     26  C   UNL     1       1.536  11.183  18.658  0.00  0.00    +0.000 A 
ATOM     27  C   UNL     1       0.541  12.056  19.097  0.00  0.00    +0.000 A 
ATOM     28  C   UNL     1      -0.800  11.717  18.931  0.00  0.00    +0.000 A 
ATOM     29  C   UNL     1      -1.145  10.506  18.329  0.00  0.00    +0.000 A 
ATOM     30  C   UNL     1      -0.149   9.629  17.890  0.00  0.00    +0.000 A 
ENDBRANCH  24  25
ENDBRANCH  20  24
ENDBRANCH  19  20
ENDBRANCH  18  19
ENDBRANCH   4  18
TORSDOF 8
ENDMDL
MODEL 8
REMARK VINA RESULT:      -7.4      3.576      7.257
REMARK  Name = 
REMARK  8 active torsions:
REMARK  status: ('A' for Active; 'I' for Inactive)
REMARK    1  A    between atoms: N_1  and  C_2
REMARK    2  A    between atoms: N_10  and  C_11
REMARK    3  A    between atoms: C_14  and  C_15
REMARK    4  A    between atoms: C_15  and  O_16
REMARK    5  A    between atoms: O_16  and  P_17
REMARK    6  A    between atoms: P_17  and  O_19
REMARK    7  A    between atoms: P_17  and  O_20
REMARK    8  A    between atoms: O_20  and  C_21
REMARK                            x       y       z     vdW  Elec       q    Type
REMARK                         _______ _______ _______ _____ _____    ______ ____
ROOT
ATOM      1  C   UNL     1       4.093   2.337  17.881  0.00  0.00    +0.000 C 
ATOM      2  C   UNL     1       3.608   1.616  19.130  0.00  0.00    +0.000 C 
ATOM      3  C   UNL     1       2.393   2.418  19.519  0.00  0.00    +0.000 C 
ATOM      4  C   UNL     1       1.801   2.816  18.172  0.00  0.00    +0.000 C 
ATOM      5  O   UNL     1       2.896   2.815  17.225  0.00  0.00    +0.000 OA
ENDROOT
BRANCH   1  14
ATOM      6  C   UNL     1       7.227   5.975  17.159  0.00  0.00    +0.000 A 
ATOM      7  N   UNL     1       7.320   5.799  15.822  0.00  0.00    +0.000 NA
ATOM      8  C   UNL     1       6.602   4.801  15.258  0.00  0.00    +0.000 A 
ATOM      9  N   UNL     1       5.764   3.922  15.854  0.00  0.00    +0.000 NA
ATOM     10  C   UNL     1       5.699   4.151  17.176  0.00  0.00    +0.000 A 
ATOM     11  C   UNL     1       6.369   5.137  17.888  0.00  0.00    +0.000 A 
ATOM     12  N   UNL     1       6.028   5.104  19.222  0.00  0.00    +0.000 NA
ATOM     13  C   UNL     1       5.175   4.107  19.319  0.00  0.00    +0.000 A 
ATOM     14  N   UNL     1       4.973   3.470  18.118  0.00  0.00    +0.000 N 
BRANCH   6  15
ATOM     15  N   UNL     1       7.968   6.991  17.749  0.00  0.00    +0.000 N 
ATOM     16  H   UNL     1       8.120   7.772  17.126  0.00  0.00    +0.000 HD
ATOM     17  H   UNL     1       7.685   7.192  18.701  0.00  0.00    +0.000 HD
ENDBRANCH   6  15
ENDBRANCH   1  14
BRANCH   4  18
ATOM     18  C   UNL     1       1.136   4.193  18.247  0.00  0.00    +0.000 C 
BRANCH  18  19
ATOM     19  O   UNL     1       1.969   5.223  17.692  0.00  0.00    +0.000 OA
BRANCH  19  20
ATOM     20  P   UNL     1       2.102   6.682  18.612  0.00  0.00    +0.000 P 
ATOM     21  O   UNL     1       2.223   5.872  19.906  0.00  0.00    +0.000 OA
BRANCH  20  22
ATOM     22  O   UNL     1       3.602   6.964  18.018  0.00  0.00    +0.000 OA
ATOM     23  H   UNL     1       3.737   7.882  17.730  0.00  0.00    +0.000 HD
ENDBRANCH  20  22
BRANCH  20  24
ATOM     24  O   UNL     1       2.234   8.143  19.530  0.00  0.00    +0.000 OA
BRANCH  24  25
ATOM     25  C   UNL     1       1.200   9.037  19.527  0.00  0.00    +0.000 A 
ATOM     26  C   UNL     1       0.637   9.329  20.769  0.00  0.00    +0.000 A 
ATOM     27  C   UNL     1      -0.397  10.259  20.867  0.00  0.00    +0.000 A 
ATOM     28  C   UNL     1      -0.862  10.902  19.721  0.00  0.00    +0.000 A 
ATOM     29  C   UNL     1      -0.293  10.612  18.480  0.00  0.00    +0.000 A 
ATOM     30  C   UNL     1       0.742   9.679  18.378  0.00  0.00    +0.000 A 
ENDBRANCH  24  25
ENDBRANCH  20  24
ENDBRANCH  19  20
ENDBRANCH  18  19
ENDBRANCH   4  18
TORSDOF 8
ENDMDL
MODEL 9
REMARK VINA RESULT:      -7.4      1.452      2.031
REMARK  Name = 
REMARK  8 active torsions:
REMARK  status: ('A' for Active; 'I' for Inactive)
REMARK    1  A    between atoms: N_1  and  C_2
REMARK    2  A    between atoms: N_10  and  C_11
REMARK    3  A    between atoms: C_14  and  C_15
REMARK    4  A    between atoms: C_15  and  O_16
REMARK    5  A    between atoms: O_16  and  P_17
REMARK    6  A    between atoms: P_17  and  O_19
REMARK    7  A    between atoms: P_17  and  O_20
REMARK    8  A    between atoms: O_20  and  C_21
REMARK                            x       y       z     vdW  Elec       q    Type
REMARK                         _______ _______ _______ _____ _____    ______ ____
ROOT
ATOM      1  C   UNL     1       2.390   5.058  20.539  0.00  0.00    +0.000 C 
ATOM      2  C   UNL     1       1.078   4.296  20.653  0.00  0.00    +0.000 C 
ATOM      3  C   UNL     1       1.137   3.364  19.469  0.00  0.00    +0.000 C 
ATOM      4  C   UNL     1       2.619   3.012  19.387  0.00  0.00    +0.000 C 
ATOM      5  O   UNL     1       3.338   4.111  19.995  0.00  0.00    +0.000 OA
ENDROOT
BRANCH   1  14
ATOM      6  C   UNL     1       1.538   9.535  18.866  0.00  0.00    +0.000 A 
ATOM      7  N   UNL     1       0.917   9.973  19.984  0.00  0.00    +0.000 NA
ATOM      8  C   UNL     1       0.779   9.110  21.017  0.00  0.00    +0.000 A 
ATOM      9  N   UNL     1       1.192   7.825  21.105  0.00  0.00    +0.000 NA
ATOM     10  C   UNL     1       1.813   7.448  19.974  0.00  0.00    +0.000 A 
ATOM     11  C   UNL     1       2.033   8.222  18.844  0.00  0.00    +0.000 A 
ATOM     12  N   UNL     1       2.742   7.522  17.893  0.00  0.00    +0.000 NA
ATOM     13  C   UNL     1       2.936   6.338  18.434  0.00  0.00    +0.000 A 
ATOM     14  N   UNL     1       2.358   6.227  19.676  0.00  0.00    +0.000 N 
BRANCH   6  15
ATOM     15  N   UNL     1       1.676  10.411  17.796  0.00  0.00    +0.000 N 
ATOM     16  H   UNL     1       2.519  10.966  17.857  0.00  0.00    +0.000 HD
ATOM     17  H   UNL     1       1.447   9.992  16.903  0.00  0.00    +0.000 HD
ENDBRANCH   6  15
ENDBRANCH   1  14
BRANCH   4  18
ATOM     18  C   UNL     1       3.055   2.800  17.935  0.00  0.00    +0.000 C 
BRANCH  18  19
ATOM     19  O   UNL     1       4.478   2.910  17.781  0.00  0.00    +0.000 OA
BRANCH  19  20
ATOM     20  P   UNL     1       5.037   4.049  16.604  0.00  0.00    +0.000 P 
ATOM     21  O   UNL     1       5.801   4.815  17.689  0.00  0.00    +0.000 OA
BRANCH  20  22
ATOM     22  O   UNL     1       6.033   2.932  15.941  0.00  0.00    +0.000 OA
ATOM     23  H   UNL     1       6.963   3.039  16.203  0.00  0.00    +0.000 HD
ENDBRANCH  20  22
BRANCH  20  24
ATOM     24  O   UNL     1       5.595   5.188  15.427  0.00  0.00    +0.000 OA
BRANCH  24  25
ATOM     25  C   UNL     1       6.080   4.737  14.231  0.00  0.00    +0.000 A 
ATOM     26  C   UNL     1       5.234   3.902  13.501  0.00  0.00    +0.000 A 
ATOM     27  C   UNL     1       5.630   3.425  12.252  0.00  0.00    +0.000 A 
ATOM     28  C   UNL     1       6.868   3.792  11.731  0.00  0.00    +0.000 A 
ATOM     29  C   UNL     1       7.711   4.632  12.460  0.00  0.00    +0.000 A 
ATOM     30  C   UNL     1       7.319   5.110  13.714  0.00  0.00    +0.000 A 
ENDBRANCH  24  25
ENDBRANCH  20  24
ENDBRANCH  19  20
ENDBRANCH  18  19
ENDBRANCH   4  18
TORSDOF 8
ENDMDL
