MODEL 1
REMARK VINA RESULT:      -8.1      0.000      0.000
REMARK  Name = 
REMARK  3 active torsions:
REMARK  status: ('A' for Active; 'I' for Inactive)
REMARK    1  A    between atoms: C_5  and  C_6
REMARK    2  A    between atoms: C_6  and  N_7
REMARK    3  A    between atoms: N_7  and  C_8
REMARK                            x       y       z     vdW  Elec       q    Type
REMARK                         _______ _______ _______ _____ _____    ______ ____
ROOT
ATOM      1  C   UNL     1       6.631   6.614  16.739  0.00  0.00    +0.000 A 
ATOM      2  N   UNL     1       7.457   5.938  15.901  0.00  0.00    +0.000 NA
ATOM      3  C   UNL     1       7.124   4.706  15.461  0.00  0.00    +0.000 A 
ATOM      4  C   UNL     1       5.973   4.026  15.815  0.00  0.00    +0.000 A 
ATOM      5  C   UNL     1       5.110   4.685  16.699  0.00  0.00    +0.000 A 
ATOM      6  C   UNL     1       5.455   5.964  17.135  0.00  0.00    +0.000 A 
ATOM      7  N   UNL     1       4.458   6.371  17.993  0.00  0.00    +0.000 N 
ATOM      8  C   UNL     1       3.482   5.407  18.117  0.00  0.00    +0.000 A 
ATOM      9  C   UNL     1       2.307   5.401  18.877  0.00  0.00    +0.000 A 
ATOM     10  C   UNL     1       1.495   4.261  18.809  0.00  0.00    +0.000 A 
ATOM     11  C   UNL     1       1.851   3.175  18.014  0.00  0.00    +0.000 A 
ATOM     12  C   UNL     1       3.031   3.197  17.264  0.00  0.00    +0.000 A 
ATOM     13  C   UNL     1       3.866   4.335  17.314  0.00  0.00    +0.000 A 
ATOM     14  H   UNL     1       4.461   7.253  18.482  0.00  0.00    +0.000 HD
ENDROOT
BRANCH   1  15
ATOM     15  N   UNL     1       6.949   7.904  17.177  0.00  0.00    +0.000 N 
ATOM     16  H   UNL     1       7.052   8.523  16.382  0.00  0.00    +0.000 HD
BRANCH  15  17
ATOM     17  C   UNL     1       8.107   7.943  18.065  0.00  0.00    +0.000 C 
BRANCH  17  22
ATOM     18 CL   UNL     1       9.803  13.640  19.131  0.00  0.00    +0.000 Cl
ATOM     19  C   UNL     1       9.301  12.021  18.839  0.00  0.00    +0.000 A 
ATOM     20  C   UNL     1       9.672  11.009  19.723  0.00  0.00    +0.000 A 
ATOM     21  C   UNL     1       9.271   9.694  19.479  0.00  0.00    +0.000 A 
ATOM     22  C   UNL     1       8.494   9.379  18.354  0.00  0.00    +0.000 A 
ATOM     23  C   UNL     1       8.127  10.409  17.474  0.00  0.00    +0.000 A 
ATOM     24  C   UNL     1       8.530  11.726  17.716  0.00  0.00    +0.000 A 
ENDBRANCH  17  22
ENDBRANCH  15  17
ENDBRANCH   1  15
TORSDOF 3
ENDMDL
MODEL 2
REMARK VINA RESULT:      -8.1      0.040      1.031
REMARK  Name = 
REMARK  3 active torsions:
REMARK  status: ('A' for Active; 'I' for Inactive)
REMARK    1  A    between atoms: C_5  and  C_6
REMARK    2  A    between atoms: C_6  and  N_7
REMARK    3  A    between atoms: N_7  and  C_8
REMARK                            x       y       z     vdW  Elec       q    Type
REMARK                         _______ _______ _______ _____ _____    ______ ____
ROOT
ATOM      1  C   UNL     1       6.646   6.618  16.721  0.00  0.00    +0.000 A 
ATOM      2  N   UNL     1       7.470   5.947  15.879  0.00  0.00    +0.000 NA
ATOM      3  C   UNL     1       7.136   4.716  15.433  0.00  0.00    +0.000 A 
ATOM      4  C   UNL     1       5.986   4.035  15.787  0.00  0.00    +0.000 A 
ATOM      5  C   UNL     1       5.125   4.689  16.676  0.00  0.00    +0.000 A 
ATOM      6  C   UNL     1       5.470   5.966  17.117  0.00  0.00    +0.000 A 
ATOM      7  N   UNL     1       4.476   6.369  17.980  0.00  0.00    +0.000 N 
ATOM      8  C   UNL     1       3.501   5.404  18.101  0.00  0.00    +0.000 A 
ATOM      9  C   UNL     1       2.327   5.393  18.865  0.00  0.00    +0.000 A 
ATOM     10  C   UNL     1       1.516   4.254  18.793  0.00  0.00    +0.000 A 
ATOM     11  C   UNL     1       1.870   3.171  17.992  0.00  0.00    +0.000 A 
ATOM     12  C   UNL     1       3.048   3.197  17.239  0.00  0.00    +0.000 A 
ATOM     13  C   UNL     1       3.883   4.336  17.292  0.00  0.00    +0.000 A 
ATOM     14  H   UNL     1       4.480   7.249  18.473  0.00  0.00    +0.000 HD
ENDROOT
BRANCH   1  15
ATOM     15  N   UNL     1       6.964   7.906  17.165  0.00  0.00    +0.000 N 
ATOM     16  H   UNL     1       7.100   8.521  16.371  0.00  0.00    +0.000 HD
BRANCH  15  17
ATOM     17  C   UNL     1       8.093   7.935  18.090  0.00  0.00    +0.000 C 
BRANCH  17  22
ATOM     18 CL   UNL     1       9.691  13.662  19.147  0.00  0.00    +0.000 Cl
ATOM     19  C   UNL     1       9.255  12.028  18.834  0.00  0.00    +0.000 A 
ATOM     20  C   UNL     1       8.475  11.719  17.721  0.00  0.00    +0.000 A 
ATOM     21  C   UNL     1       8.114  10.393  17.473  0.00  0.00    +0.000 A 
ATOM     22  C   UNL     1       8.532   9.365  18.332  0.00  0.00    +0.000 A 
ATOM     23  C   UNL     1       9.318   9.692  19.448  0.00  0.00    +0.000 A 
ATOM     24  C   UNL     1       9.678  11.020  19.698  0.00  0.00    +0.000 A 
ENDBRANCH  17  22
ENDBRANCH  15  17
ENDBRANCH   1  15
TORSDOF 3
ENDMDL
MODEL 3
REMARK VINA RESULT:      -8.0      3.801      6.478
REMARK  Name = 
REMARK  3 active torsions:
REMARK  status: ('A' for Active; 'I' for Inactive)
REMARK    1  A    between atoms: C_5  and  C_6
REMARK    2  A    between atoms: C_6  and  N_7
REMARK    3  A    between atoms: N_7  and  C_8
REMARK                            x       y       z     vdW  Elec       q    Type
REMARK                         _______ _______ _______ _____ _____    ______ ____
ROOT
ATOM      1  C   UNL     1       5.501   4.123  17.904  0.00  0.00    +0.000 A 
ATOM      2  N   UNL     1       6.124   4.925  18.802  0.00  0.00    +0.000 NA
ATOM      3  C   UNL     1       7.065   5.805  18.396  0.00  0.00    +0.000 A 
ATOM      4  C   UNL     1       7.487   5.960  17.088  0.00  0.00    +0.000 A 
ATOM      5  C   UNL     1       6.881   5.129  16.137  0.00  0.00    +0.000 A 
ATOM      6  C   UNL     1       5.900   4.235  16.565  0.00  0.00    +0.000 A 
ATOM      7  N   UNL     1       5.487   3.539  15.451  0.00  0.00    +0.000 N 
ATOM      8  C   UNL     1       6.158   3.959  14.324  0.00  0.00    +0.000 A 
ATOM      9  C   UNL     1       6.056   3.527  12.996  0.00  0.00    +0.000 A 
ATOM     10  C   UNL     1       6.882   4.143  12.048  0.00  0.00    +0.000 A 
ATOM     11  C   UNL     1       7.775   5.146  12.419  0.00  0.00    +0.000 A 
ATOM     12  C   UNL     1       7.866   5.562  13.751  0.00  0.00    +0.000 A 
ATOM     13  C   UNL     1       7.042   4.958  14.726  0.00  0.00    +0.000 A 
ATOM     14  H   UNL     1       4.797   2.804  15.471  0.00  0.00    +0.000 HD
ENDROOT
BRANCH   1  15
ATOM     15  N   UNL     1       4.502   3.230  18.307  0.00  0.00    +0.000 N 
ATOM     16  H   UNL     1       4.745   2.289  18.023  0.00  0.00    +0.000 HD
BRANCH  15  17
ATOM     17  C   UNL     1       3.167   3.618  17.863  0.00  0.00    +0.000 C 
BRANCH  17  22
ATOM     18 CL   UNL     1       1.399   8.414  21.079  0.00  0.00    +0.000 Cl
ATOM     19  C   UNL     1       1.882   7.045  20.154  0.00  0.00    +0.000 A 
ATOM     20  C   UNL     1       1.796   5.769  20.707  0.00  0.00    +0.000 A 
ATOM     21  C   UNL     1       2.197   4.660  19.958  0.00  0.00    +0.000 A 
ATOM     22  C   UNL     1       2.683   4.817  18.651  0.00  0.00    +0.000 A 
ATOM     23  C   UNL     1       2.762   6.110  18.109  0.00  0.00    +0.000 A 
ATOM     24  C   UNL     1       2.362   7.220  18.858  0.00  0.00    +0.000 A 
ENDBRANCH  17  22
ENDBRANCH  15  17
ENDBRANCH   1  15
TORSDOF 3
ENDMDL
MODEL 4
REMARK VINA RESULT:      -8.0      3.875      6.547
REMARK  Name = 
REMARK  3 active torsions:
REMARK  status: ('A' for Active; 'I' for Inactive)
REMARK    1  A    between atoms: C_5  and  C_6
REMARK    2  A    between atoms: C_6  and  N_7
REMARK    3  A    between atoms: N_7  and  C_8
REMARK                            x       y       z     vdW  Elec       q    Type
REMARK                         _______ _______ _______ _____ _____    ______ ____
ROOT
ATOM      1  C   UNL     1       5.424   3.986  17.898  0.00  0.00    +0.000 A 
ATOM      2  N   UNL     1       6.053   4.746  18.829  0.00  0.00    +0.000 NA
ATOM      3  C   UNL     1       7.015   5.620  18.461  0.00  0.00    +0.000 A 
ATOM      4  C   UNL     1       7.454   5.809  17.163  0.00  0.00    +0.000 A 
ATOM      5  C   UNL     1       6.843   5.021  16.180  0.00  0.00    +0.000 A 
ATOM      6  C   UNL     1       5.839   4.134  16.568  0.00  0.00    +0.000 A 
ATOM      7  N   UNL     1       5.425   3.483  15.428  0.00  0.00    +0.000 N 
ATOM      8  C   UNL     1       6.116   3.925  14.322  0.00  0.00    +0.000 A 
ATOM      9  C   UNL     1       6.020   3.539  12.980  0.00  0.00    +0.000 A 
ATOM     10  C   UNL     1       6.868   4.169  12.060  0.00  0.00    +0.000 A 
ATOM     11  C   UNL     1       7.776   5.141  12.473  0.00  0.00    +0.000 A 
ATOM     12  C   UNL     1       7.861   5.512  13.818  0.00  0.00    +0.000 A 
ATOM     13  C   UNL     1       7.015   4.893  14.765  0.00  0.00    +0.000 A 
ATOM     14  H   UNL     1       4.721   2.760  15.417  0.00  0.00    +0.000 HD
ENDROOT
BRANCH   1  15
ATOM     15  N   UNL     1       4.404   3.100  18.262  0.00  0.00    +0.000 N 
ATOM     16  H   UNL     1       4.609   2.173  17.909  0.00  0.00    +0.000 HD
BRANCH  15  17
ATOM     17  C   UNL     1       3.074   3.561  17.875  0.00  0.00    +0.000 C 
BRANCH  17  22
ATOM     18 CL   UNL     1       1.375   8.415  21.040  0.00  0.00    +0.000 Cl
ATOM     19  C   UNL     1       1.880   7.034  20.147  0.00  0.00    +0.000 A 
ATOM     20  C   UNL     1       2.389   7.189  18.859  0.00  0.00    +0.000 A 
ATOM     21  C   UNL     1       2.791   6.066  18.132  0.00  0.00    +0.000 A 
ATOM     22  C   UNL     1       2.689   4.780  18.687  0.00  0.00    +0.000 A 
ATOM     23  C   UNL     1       2.175   4.642  19.985  0.00  0.00    +0.000 A 
ATOM     24  C   UNL     1       1.771   5.765  20.713  0.00  0.00    +0.000 A 
ENDBRANCH  17  22
ENDBRANCH  15  17
ENDBRANCH   1  15
TORSDOF 3
ENDMDL
MODEL 5
REMARK VINA RESULT:      -8.0      2.912      5.068
REMARK  Name = 
REMARK  3 active torsions:
REMARK  status: ('A' for Active; 'I' for Inactive)
REMARK    1  A    between atoms: C_5  and  C_6
REMARK    2  A    between atoms: C_6  and  N_7
REMARK    3  A    between atoms: N_7  and  C_8
REMARK                            x       y       z     vdW  Elec       q    Type
REMARK                         _______ _______ _______ _____ _____    ______ ____
ROOT
ATOM      1  C   UNL     1       3.493   4.216  18.074  0.00  0.00    +0.000 A 
ATOM      2  N   UNL     1       3.550   3.213  18.985  0.00  0.00    +0.000 NA
ATOM      3  C   UNL     1       3.056   3.390  20.229  0.00  0.00    +0.000 A 
ATOM      4  C   UNL     1       2.484   4.561  20.691  0.00  0.00    +0.000 A 
ATOM      5  C   UNL     1       2.432   5.627  19.783  0.00  0.00    +0.000 A 
ATOM      6  C   UNL     1       2.930   5.428  18.496  0.00  0.00    +0.000 A 
ATOM      7  N   UNL     1       2.773   6.619  17.824  0.00  0.00    +0.000 N 
ATOM      8  C   UNL     1       2.183   7.571  18.626  0.00  0.00    +0.000 A 
ATOM      9  C   UNL     1       1.845   8.901  18.353  0.00  0.00    +0.000 A 
ATOM     10  C   UNL     1       1.252   9.645  19.382  0.00  0.00    +0.000 A 
ATOM     11  C   UNL     1       1.012   9.076  20.630  0.00  0.00    +0.000 A 
ATOM     12  C   UNL     1       1.360   7.746  20.886  0.00  0.00    +0.000 A 
ATOM     13  C   UNL     1       1.958   6.974  19.865  0.00  0.00    +0.000 A 
ATOM     14  H   UNL     1       3.074   6.773  16.873  0.00  0.00    +0.000 HD
ENDROOT
BRANCH   1  15
ATOM     15  N   UNL     1       3.972   4.035  16.772  0.00  0.00    +0.000 N 
ATOM     16  H   UNL     1       3.398   3.359  16.284  0.00  0.00    +0.000 HD
BRANCH  15  17
ATOM     17  C   UNL     1       5.392   3.697  16.722  0.00  0.00    +0.000 C 
BRANCH  17  22
ATOM     18 CL   UNL     1       8.582   8.478  18.575  0.00  0.00    +0.000 Cl
ATOM     19  C   UNL     1       7.690   7.111  18.033  0.00  0.00    +0.000 A 
ATOM     20  C   UNL     1       6.820   7.234  16.952  0.00  0.00    +0.000 A 
ATOM     21  C   UNL     1       6.090   6.125  16.519  0.00  0.00    +0.000 A 
ATOM     22  C   UNL     1       6.225   4.884  17.160  0.00  0.00    +0.000 A 
ATOM     23  C   UNL     1       7.107   4.776  18.247  0.00  0.00    +0.000 A 
ATOM     24  C   UNL     1       7.837   5.886  18.682  0.00  0.00    +0.000 A 
ENDBRANCH  17  22
ENDBRANCH  15  17
ENDBRANCH   1  15
TORSDOF 3
ENDMDL
MODEL 6
REMARK VINA RESULT:      -7.9      4.156      6.619
REMARK  Name = 
REMARK  3 active torsions:
REMARK  status: ('A' for Active; 'I' for Inactive)
REMARK    1  A    between atoms: C_5  and  C_6
REMARK    2  A    between atoms: C_6  and  N_7
REMARK    3  A    between atoms: N_7  and  C_8
REMARK                            x       y       z     vdW  Elec       q    Type
REMARK                         _______ _______ _______ _____ _____    ______ ____
ROOT
ATOM      1  C   UNL     1       2.429   5.600  19.294  0.00  0.00    +0.000 A 
ATOM      2  N   UNL     1       1.436   4.677  19.301  0.00  0.00    +0.000 NA
ATOM      3  C   UNL     1       1.493   3.605  18.481  0.00  0.00    +0.000 A 
ATOM      4  C   UNL     1       2.510   3.357  17.578  0.00  0.00    +0.000 A 
ATOM      5  C   UNL     1       3.541   4.305  17.527  0.00  0.00    +0.000 A 
ATOM      6  C   UNL     1       3.480   5.399  18.389  0.00  0.00    +0.000 A 
ATOM      7  N   UNL     1       4.590   6.170  18.127  0.00  0.00    +0.000 N 
ATOM      8  C   UNL     1       5.366   5.608  17.138  0.00  0.00    +0.000 A 
ATOM      9  C   UNL     1       6.563   6.051  16.564  0.00  0.00    +0.000 A 
ATOM     10  C   UNL     1       7.132   5.262  15.556  0.00  0.00    +0.000 A 
ATOM     11  C   UNL     1       6.520   4.082  15.139  0.00  0.00    +0.000 A 
ATOM     12  C   UNL     1       5.322   3.657  15.720  0.00  0.00    +0.000 A 
ATOM     13  C   UNL     1       4.730   4.433  16.741  0.00  0.00    +0.000 A 
ATOM     14  H   UNL     1       4.790   7.044  18.589  0.00  0.00    +0.000 HD
ENDROOT
BRANCH   1  15
ATOM     15  N   UNL     1       2.398   6.698  20.162  0.00  0.00    +0.000 N 
ATOM     16  H   UNL     1       1.809   6.491  20.959  0.00  0.00    +0.000 HD
BRANCH  15  17
ATOM     17  C   UNL     1       2.022   7.944  19.501  0.00  0.00    +0.000 C 
BRANCH  17  22
ATOM     18 CL   UNL     1      -1.363  11.353  23.159  0.00  0.00    +0.000 Cl
ATOM     19  C   UNL     1      -0.415  10.368  22.115  0.00  0.00    +0.000 A 
ATOM     20  C   UNL     1       0.380   9.356  22.649  0.00  0.00    +0.000 A 
ATOM     21  C   UNL     1       1.155   8.562  21.800  0.00  0.00    +0.000 A 
ATOM     22  C   UNL     1       1.139   8.771  20.412  0.00  0.00    +0.000 A 
ATOM     23  C   UNL     1       0.331   9.793  19.891  0.00  0.00    +0.000 A 
ATOM     24  C   UNL     1      -0.444  10.589  20.740  0.00  0.00    +0.000 A 
ENDBRANCH  17  22
ENDBRANCH  15  17
ENDBRANCH   1  15
TORSDOF 3
ENDMDL
MODEL 7
REMARK VINA RESULT:      -7.9      3.111      5.277
REMARK  Name = 
REMARK  3 active torsions:
REMARK  status: ('A' for Active; 'I' for Inactive)
REMARK    1  A    between atoms: C_5  and  C_6
REMARK    2  A    between atoms: C_6  and  N_7
REMARK    3  A    between atoms: N_7  and  C_8
REMARK                            x       y       z     vdW  Elec       q    Type
REMARK                         _______ _______ _______ _____ _____    ______ ____
ROOT
ATOM      1  C   UNL     1       3.080   4.067  18.441  0.00  0.00    +0.000 A 
ATOM      2  N   UNL     1       3.121   3.123  19.414  0.00  0.00    +0.000 NA
ATOM      3  C   UNL     1       2.698   3.410  20.664  0.00  0.00    +0.000 A 
ATOM      4  C   UNL     1       2.222   4.643  21.071  0.00  0.00    +0.000 A 
ATOM      5  C   UNL     1       2.190   5.649  20.097  0.00  0.00    +0.000 A 
ATOM      6  C   UNL     1       2.613   5.337  18.805  0.00  0.00    +0.000 A 
ATOM      7  N   UNL     1       2.496   6.490  18.062  0.00  0.00    +0.000 N 
ATOM      8  C   UNL     1       2.005   7.527  18.824  0.00  0.00    +0.000 A 
ATOM      9  C   UNL     1       1.735   8.856  18.479  0.00  0.00    +0.000 A 
ATOM     10  C   UNL     1       1.238   9.700  19.480  0.00  0.00    +0.000 A 
ATOM     11  C   UNL     1       1.024   9.228  20.773  0.00  0.00    +0.000 A 
ATOM     12  C   UNL     1       1.303   7.898  21.102  0.00  0.00    +0.000 A 
ATOM     13  C   UNL     1       1.803   7.026  20.109  0.00  0.00    +0.000 A 
ATOM     14  H   UNL     1       2.759   6.563  17.091  0.00  0.00    +0.000 HD
ENDROOT
BRANCH   1  15
ATOM     15  N   UNL     1       3.485   3.773  17.134  0.00  0.00    +0.000 N 
ATOM     16  H   UNL     1       2.917   3.023  16.758  0.00  0.00    +0.000 HD
BRANCH  15  17
ATOM     17  C   UNL     1       4.914   3.499  17.021  0.00  0.00    +0.000 C 
BRANCH  17  22
ATOM     18 CL   UNL     1       8.207   8.479  17.924  0.00  0.00    +0.000 Cl
ATOM     19  C   UNL     1       7.254   7.068  17.682  0.00  0.00    +0.000 A 
ATOM     20  C   UNL     1       7.488   5.932  18.455  0.00  0.00    +0.000 A 
ATOM     21  C   UNL     1       6.718   4.784  18.251  0.00  0.00    +0.000 A 
ATOM     22  C   UNL     1       5.709   4.762  17.276  0.00  0.00    +0.000 A 
ATOM     23  C   UNL     1       5.486   5.915  16.507  0.00  0.00    +0.000 A 
ATOM     24  C   UNL     1       6.256   7.064  16.709  0.00  0.00    +0.000 A 
ENDBRANCH  17  22
ENDBRANCH  15  17
ENDBRANCH   1  15
TORSDOF 3
ENDMDL
MODEL 8
REMARK VINA RESULT:      -7.9      4.203      6.714
REMARK  Name = 
REMARK  3 active torsions:
REMARK  status: ('A' for Active; 'I' for Inactive)
REMARK    1  A    between atoms: C_5  and  C_6
REMARK    2  A    between atoms: C_6  and  N_7
REMARK    3  A    between atoms: N_7  and  C_8
REMARK                            x       y       z     vdW  Elec       q    Type
REMARK                         _______ _______ _______ _____ _____    ______ ____
ROOT
ATOM      1  C   UNL     1       2.427   5.694  19.279  0.00  0.00    +0.000 A 
ATOM      2  N   UNL     1       1.430   4.777  19.337  0.00  0.00    +0.000 NA
ATOM      3  C   UNL     1       1.466   3.679  18.552  0.00  0.00    +0.000 A 
ATOM      4  C   UNL     1       2.463   3.396  17.636  0.00  0.00    +0.000 A 
ATOM      5  C   UNL     1       3.496   4.336  17.533  0.00  0.00    +0.000 A 
ATOM      6  C   UNL     1       3.458   5.458  18.360  0.00  0.00    +0.000 A 
ATOM      7  N   UNL     1       4.566   6.215  18.050  0.00  0.00    +0.000 N 
ATOM      8  C   UNL     1       5.318   5.617  17.064  0.00  0.00    +0.000 A 
ATOM      9  C   UNL     1       6.506   6.034  16.452  0.00  0.00    +0.000 A 
ATOM     10  C   UNL     1       7.050   5.210  15.459  0.00  0.00    +0.000 A 
ATOM     11  C   UNL     1       6.425   4.020  15.094  0.00  0.00    +0.000 A 
ATOM     12  C   UNL     1       5.237   3.620  15.713  0.00  0.00    +0.000 A 
ATOM     13  C   UNL     1       4.669   4.433  16.719  0.00  0.00    +0.000 A 
ATOM     14  H   UNL     1       4.779   7.103  18.479  0.00  0.00    +0.000 HD
ENDROOT
BRANCH   1  15
ATOM     15  N   UNL     1       2.418   6.820  20.110  0.00  0.00    +0.000 N 
ATOM     16  H   UNL     1       1.895   6.622  20.954  0.00  0.00    +0.000 HD
BRANCH  15  17
ATOM     17  C   UNL     1       1.952   8.029  19.438  0.00  0.00    +0.000 C 
BRANCH  17  22
ATOM     18 CL   UNL     1      -1.460  11.284  23.209  0.00  0.00    +0.000 Cl
ATOM     19  C   UNL     1      -0.471  10.371  22.139  0.00  0.00    +0.000 A 
ATOM     20  C   UNL     1      -0.452  10.678  20.780  0.00  0.00    +0.000 A 
ATOM     21  C   UNL     1       0.345   9.930  19.910  0.00  0.00    +0.000 A 
ATOM     22  C   UNL     1       1.131   8.872  20.392  0.00  0.00    +0.000 A 
ATOM     23  C   UNL     1       1.102   8.577  21.764  0.00  0.00    +0.000 A 
ATOM     24  C   UNL     1       0.303   9.324  22.634  0.00  0.00    +0.000 A 
ENDBRANCH  17  22
ENDBRANCH  15  17
ENDBRANCH   1  15
TORSDOF 3
ENDMDL
MODEL 9
REMARK VINA RESULT:      -7.9      4.589      7.093
REMARK  Name = 
REMARK  3 active torsions:
REMARK  status: ('A' for Active; 'I' for Inactive)
REMARK    1  A    between atoms: C_5  and  C_6
REMARK    2  A    between atoms: C_6  and  N_7
REMARK    3  A    between atoms: N_7  and  C_8
REMARK                            x       y       z     vdW  Elec       q    Type
REMARK                         _______ _______ _______ _____ _____    ______ ____
ROOT
ATOM      1  C   UNL     1       2.065   6.244  20.233  0.00  0.00    +0.000 A 
ATOM      2  N   UNL     1       1.305   5.229  20.715  0.00  0.00    +0.000 NA
ATOM      3  C   UNL     1       1.369   4.002  20.155  0.00  0.00    +0.000 A 
ATOM      4  C   UNL     1       2.163   3.670  19.073  0.00  0.00    +0.000 A 
ATOM      5  C   UNL     1       2.942   4.701  18.534  0.00  0.00    +0.000 A 
ATOM      6  C   UNL     1       2.881   5.961  19.130  0.00  0.00    +0.000 A 
ATOM      7  N   UNL     1       3.719   6.781  18.408  0.00  0.00    +0.000 N 
ATOM      8  C   UNL     1       4.324   6.093  17.379  0.00  0.00    +0.000 A 
ATOM      9  C   UNL     1       5.234   6.531  16.410  0.00  0.00    +0.000 A 
ATOM     10  C   UNL     1       5.682   5.595  15.469  0.00  0.00    +0.000 A 
ATOM     11  C   UNL     1       5.232   4.277  15.500  0.00  0.00    +0.000 A 
ATOM     12  C   UNL     1       4.319   3.858  16.473  0.00  0.00    +0.000 A 
ATOM     13  C   UNL     1       3.854   4.783  17.434  0.00  0.00    +0.000 A 
ATOM     14  H   UNL     1       3.850   7.762  18.600  0.00  0.00    +0.000 HD
ENDROOT
BRANCH   1  15
ATOM     15  N   UNL     1       2.031   7.512  20.824  0.00  0.00    +0.000 N 
ATOM     16  H   UNL     1       1.625   7.450  21.750  0.00  0.00    +0.000 HD
BRANCH  15  17
ATOM     17  C   UNL     1       1.373   8.517  19.995  0.00  0.00    +0.000 C 
BRANCH  17  22
ATOM     18 CL   UNL     1      -2.116  12.091  23.389  0.00  0.00    +0.000 Cl
ATOM     19  C   UNL     1      -1.104  11.086  22.427  0.00  0.00    +0.000 A 
ATOM     20  C   UNL     1      -0.914  11.380  21.079  0.00  0.00    +0.000 A 
ATOM     21  C   UNL     1      -0.099  10.557  20.297  0.00  0.00    +0.000 A 
ATOM     22  C   UNL     1       0.534   9.437  20.857  0.00  0.00    +0.000 A 
ATOM     23  C   UNL     1       0.333   9.155  22.218  0.00  0.00    +0.000 A 
ATOM     24  C   UNL     1      -0.483   9.977  23.000  0.00  0.00    +0.000 A 
ENDBRANCH  17  22
ENDBRANCH  15  17
ENDBRANCH   1  15
TORSDOF 3
ENDMDL
