MODEL 1
REMARK VINA RESULT:      -9.1      0.000      0.000
REMARK  Name = 
REMARK  8 active torsions:
REMARK  status: ('A' for Active; 'I' for Inactive)
REMARK    1  A    between atoms: C_2  and  C_13
REMARK    2  A    between atoms: N_3  and  C_4
REMARK    3  A    between atoms: C_4  and  C_5
REMARK    4  A    between atoms: C_5  and  C_6
REMARK    5  A    between atoms: C_10  and  O_11
REMARK    6  A    between atoms: C_17  and  N_18
REMARK    7  A    between atoms: N_18  and  S_19
REMARK    8  A    between atoms: S_19  and  C_22
REMARK                            x       y       z     vdW  Elec       q    Type
REMARK                         _______ _______ _______ _____ _____    ______ ____
ROOT
ATOM      1  C   UNL     1       6.730   5.892  17.544  0.00  0.00    +0.000 A 
ATOM      2  C   UNL     1       6.486   6.144  16.188  0.00  0.00    +0.000 A 
ATOM      3  C   UNL     1       5.602   5.338  15.476  0.00  0.00    +0.000 A 
ATOM      4  C   UNL     1       4.961   4.277  16.113  0.00  0.00    +0.000 A 
ATOM      5  C   UNL     1       5.202   4.023  17.463  0.00  0.00    +0.000 A 
ATOM      6  C   UNL     1       6.065   4.841  18.190  0.00  0.00    +0.000 A 
ENDROOT
BRANCH   1   8
ATOM      7  O   UNL     1       8.337   6.367  19.194  0.00  0.00    +0.000 OA
ATOM      8  C   UNL     1       7.665   6.797  18.265  0.00  0.00    +0.000 C 
ATOM      9  N   UNL     1       7.699   8.112  17.845  0.00  0.00    +0.000 N 
ATOM     10  H   UNL     1       6.945   8.458  17.266  0.00  0.00    +0.000 HD
BRANCH   9  11
ATOM     11  C   UNL     1       8.523   9.095  18.528  0.00  0.00    +0.000 C 
BRANCH  11  12
ATOM     12  C   UNL     1       8.650  10.407  17.747  0.00  0.00    +0.000 C 
BRANCH  12  13
ATOM     13  C   UNL     1       9.555  11.401  18.431  0.00  0.00    +0.000 A 
ATOM     14  C   UNL     1      10.194  11.065  19.633  0.00  0.00    +0.000 A 
ATOM     15  C   UNL     1      11.059  11.972  20.252  0.00  0.00    +0.000 A 
ATOM     16  C   UNL     1      11.284  13.225  19.682  0.00  0.00    +0.000 A 
ATOM     17  C   UNL     1      10.635  13.562  18.499  0.00  0.00    +0.000 A 
ATOM     18  C   UNL     1       9.774  12.666  17.873  0.00  0.00    +0.000 A 
BRANCH  17  19
ATOM     19  O   UNL     1      10.824  14.777  17.907  0.00  0.00    +0.000 OA
ATOM     20  H   UNL     1      10.661  15.468  18.569  0.00  0.00    +0.000 HD
ENDBRANCH  17  19
ENDBRANCH  12  13
ENDBRANCH  11  12
ENDBRANCH   9  11
ENDBRANCH   1   8
BRANCH   5  21
ATOM     21  N   UNL     1       4.514   2.961  18.097  0.00  0.00    +0.000 N 
ATOM     22  H   UNL     1       5.017   2.168  18.487  0.00  0.00    +0.000 HD
BRANCH  21  23
ATOM     23  S   UNL     1       2.840   2.925  18.116  0.00  0.00    +0.000 S 
ATOM     24  O   UNL     1       2.400   3.020  16.724  0.00  0.00    +0.000 OA
ATOM     25  O   UNL     1       2.397   1.853  18.972  0.00  0.00    +0.000 OA
BRANCH  23  26
ATOM     26  C   UNL     1       2.417   4.466  18.887  0.00  0.00    +0.000 A 
ATOM     27  C   UNL     1       2.293   4.592  20.261  0.00  0.00    +0.000 A 
ATOM     28  C   UNL     1       1.993   5.855  20.800  0.00  0.00    +0.000 A 
ATOM     29  C   UNL     1       1.842   7.008  20.003  0.00  0.00    +0.000 A 
ATOM     30  C   UNL     1       1.978   6.852  18.635  0.00  0.00    +0.000 A 
ATOM     31  C   UNL     1       2.238   5.582  18.081  0.00  0.00    +0.000 A 
ATOM     32  O   UNL     1       1.960   7.772  17.654  0.00  0.00    +0.000 OA
ATOM     33  C   UNL     1       1.806   9.174  17.905  0.00  0.00    +0.000 C 
ATOM     34  C   UNL     1       1.357  10.028  19.093  0.00  0.00    +0.000 C 
ATOM     35  C   UNL     1       1.251   9.416  20.460  0.00  0.00    +0.000 C 
ATOM     36  O   UNL     1       1.657   8.102  20.768  0.00  0.00    +0.000 OA
ENDBRANCH  23  26
ENDBRANCH  21  23
ENDBRANCH   5  21
TORSDOF 8
ENDMDL
MODEL 2
REMARK VINA RESULT:      -9.1      1.317      1.490
REMARK  Name = 
REMARK  8 active torsions:
REMARK  status: ('A' for Active; 'I' for Inactive)
REMARK    1  A    between atoms: C_2  and  C_13
REMARK    2  A    between atoms: N_3  and  C_4
REMARK    3  A    between atoms: C_4  and  C_5
REMARK    4  A    between atoms: C_5  and  C_6
REMARK    5  A    between atoms: C_10  and  O_11
REMARK    6  A    between atoms: C_17  and  N_18
REMARK    7  A    between atoms: N_18  and  S_19
REMARK    8  A    between atoms: S_19  and  C_22
REMARK                            x       y       z     vdW  Elec       q    Type
REMARK                         _______ _______ _______ _____ _____    ______ ____
ROOT
ATOM      1  C   UNL     1       6.634   5.591  17.587  0.00  0.00    +0.000 A 
ATOM      2  C   UNL     1       7.135   4.827  16.525  0.00  0.00    +0.000 A 
ATOM      3  C   UNL     1       6.279   4.021  15.779  0.00  0.00    +0.000 A 
ATOM      4  C   UNL     1       4.922   3.972  16.091  0.00  0.00    +0.000 A 
ATOM      5  C   UNL     1       4.419   4.731  17.149  0.00  0.00    +0.000 A 
ATOM      6  C   UNL     1       5.264   5.561  17.883  0.00  0.00    +0.000 A 
ENDROOT
BRANCH   1   8
ATOM      7  O   UNL     1       8.177   6.007  19.312  0.00  0.00    +0.000 OA
ATOM      8  C   UNL     1       7.585   6.454  18.337  0.00  0.00    +0.000 C 
ATOM      9  N   UNL     1       7.728   7.752  17.888  0.00  0.00    +0.000 N 
ATOM     10  H   UNL     1       7.030   8.130  17.260  0.00  0.00    +0.000 HD
BRANCH   9  11
ATOM     11  C   UNL     1       8.576   8.698  18.593  0.00  0.00    +0.000 C 
BRANCH  11  12
ATOM     12  C   UNL     1       8.622  10.072  17.915  0.00  0.00    +0.000 C 
BRANCH  12  13
ATOM     13  C   UNL     1       9.673  10.975  18.511  0.00  0.00    +0.000 A 
ATOM     14  C   UNL     1       9.807  11.083  19.902  0.00  0.00    +0.000 A 
ATOM     15  C   UNL     1      10.801  11.893  20.456  0.00  0.00    +0.000 A 
ATOM     16  C   UNL     1      11.663  12.611  19.626  0.00  0.00    +0.000 A 
ATOM     17  C   UNL     1      11.516  12.517  18.246  0.00  0.00    +0.000 A 
ATOM     18  C   UNL     1      10.531  11.711  17.684  0.00  0.00    +0.000 A 
BRANCH  17  19
ATOM     19  O   UNL     1      12.333  13.202  17.396  0.00  0.00    +0.000 OA
ATOM     20  H   UNL     1      11.971  14.095  17.278  0.00  0.00    +0.000 HD
ENDBRANCH  17  19
ENDBRANCH  12  13
ENDBRANCH  11  12
ENDBRANCH   9  11
ENDBRANCH   1   8
BRANCH   5  21
ATOM     21  N   UNL     1       3.032   4.690  17.425  0.00  0.00    +0.000 N 
ATOM     22  H   UNL     1       2.347   4.883  16.699  0.00  0.00    +0.000 HD
BRANCH  21  23
ATOM     23  S   UNL     1       2.484   4.440  18.988  0.00  0.00    +0.000 S 
ATOM     24  O   UNL     1       1.256   3.652  18.883  0.00  0.00    +0.000 OA
ATOM     25  O   UNL     1       3.584   4.010  19.814  0.00  0.00    +0.000 OA
BRANCH  23  26
ATOM     26  C   UNL     1       2.000   6.067  19.504  0.00  0.00    +0.000 A 
ATOM     27  C   UNL     1       1.536   6.325  20.784  0.00  0.00    +0.000 A 
ATOM     28  C   UNL     1       1.207   7.646  21.131  0.00  0.00    +0.000 A 
ATOM     29  C   UNL     1       1.358   8.729  20.239  0.00  0.00    +0.000 A 
ATOM     30  C   UNL     1       1.830   8.441  18.971  0.00  0.00    +0.000 A 
ATOM     31  C   UNL     1       2.122   7.112  18.600  0.00  0.00    +0.000 A 
ATOM     32  O   UNL     1       2.138   9.266  17.955  0.00  0.00    +0.000 OA
ATOM     33  C   UNL     1       2.035  10.692  18.053  0.00  0.00    +0.000 C 
ATOM     34  C   UNL     1       1.364  11.675  19.015  0.00  0.00    +0.000 C 
ATOM     35  C   UNL     1       0.860  11.198  20.346  0.00  0.00    +0.000 C 
ATOM     36  O   UNL     1       1.069   9.897  20.846  0.00  0.00    +0.000 OA
ENDBRANCH  23  26
ENDBRANCH  21  23
ENDBRANCH   5  21
TORSDOF 8
ENDMDL
MODEL 3
REMARK VINA RESULT:      -8.9      5.245      9.205
REMARK  Name = 
REMARK  8 active torsions:
REMARK  status: ('A' for Active; 'I' for Inactive)
REMARK    1  A    between atoms: C_2  and  C_13
REMARK    2  A    between atoms: N_3  and  C_4
REMARK    3  A    between atoms: C_4  and  C_5
REMARK    4  A    between atoms: C_5  and  C_6
REMARK    5  A    between atoms: C_10  and  O_11
REMARK    6  A    between atoms: C_17  and  N_18
REMARK    7  A    between atoms: N_18  and  S_19
REMARK    8  A    between atoms: S_19  and  C_22
REMARK                            x       y       z     vdW  Elec       q    Type
REMARK                         _______ _______ _______ _____ _____    ______ ____
ROOT
ATOM      1  C   UNL     1       2.565   7.489  18.825  0.00  0.00    +0.000 A 
ATOM      2  C   UNL     1       2.562   8.398  17.759  0.00  0.00    +0.000 A 
ATOM      3  C   UNL     1       1.740   9.521  17.801  0.00  0.00    +0.000 A 
ATOM      4  C   UNL     1       0.916   9.739  18.904  0.00  0.00    +0.000 A 
ATOM      5  C   UNL     1       0.915   8.835  19.966  0.00  0.00    +0.000 A 
ATOM      6  C   UNL     1       1.755   7.723  19.944  0.00  0.00    +0.000 A 
ENDROOT
BRANCH   1   8
ATOM      7  O   UNL     1       4.108   5.963  19.731  0.00  0.00    +0.000 OA
ATOM      8  C   UNL     1       3.479   6.318  18.742  0.00  0.00    +0.000 C 
ATOM      9  N   UNL     1       3.584   5.702  17.511  0.00  0.00    +0.000 N 
ATOM     10  H   UNL     1       3.254   6.194  16.690  0.00  0.00    +0.000 HD
BRANCH   9  11
ATOM     11  C   UNL     1       4.503   4.596  17.303  0.00  0.00    +0.000 C 
BRANCH  11  12
ATOM     12  C   UNL     1       3.799   3.236  17.282  0.00  0.00    +0.000 C 
BRANCH  12  13
ATOM     13  C   UNL     1       2.850   3.059  18.440  0.00  0.00    +0.000 A 
ATOM     14  C   UNL     1       1.464   3.128  18.236  0.00  0.00    +0.000 A 
ATOM     15  C   UNL     1       0.582   2.933  19.301  0.00  0.00    +0.000 A 
ATOM     16  C   UNL     1       1.074   2.677  20.581  0.00  0.00    +0.000 A 
ATOM     17  C   UNL     1       2.450   2.627  20.785  0.00  0.00    +0.000 A 
ATOM     18  C   UNL     1       3.337   2.818  19.730  0.00  0.00    +0.000 A 
BRANCH  17  19
ATOM     19  O   UNL     1       2.977   2.382  22.019  0.00  0.00    +0.000 OA
ATOM     20  H   UNL     1       3.721   2.990  22.159  0.00  0.00    +0.000 HD
ENDBRANCH  17  19
ENDBRANCH  12  13
ENDBRANCH  11  12
ENDBRANCH   9  11
ENDBRANCH   1   8
BRANCH   5  21
ATOM     21  N   UNL     1       0.095   9.095  21.089  0.00  0.00    +0.000 N 
ATOM     22  H   UNL     1      -0.744   8.549  21.265  0.00  0.00    +0.000 HD
BRANCH  21  23
ATOM     23  S   UNL     1       0.422  10.391  22.098  0.00  0.00    +0.000 S 
ATOM     24  O   UNL     1       0.452   9.867  23.464  0.00  0.00    +0.000 OA
ATOM     25  O   UNL     1       1.526  11.146  21.560  0.00  0.00    +0.000 OA
BRANCH  23  26
ATOM     26  C   UNL     1      -1.046  11.378  21.967  0.00  0.00    +0.000 A 
ATOM     27  C   UNL     1      -1.407  12.007  20.786  0.00  0.00    +0.000 A 
ATOM     28  C   UNL     1      -2.604  12.742  20.750  0.00  0.00    +0.000 A 
ATOM     29  C   UNL     1      -3.472  12.841  21.857  0.00  0.00    +0.000 A 
ATOM     30  C   UNL     1      -3.088  12.197  23.020  0.00  0.00    +0.000 A 
ATOM     31  C   UNL     1      -1.868  11.493  23.079  0.00  0.00    +0.000 A 
ATOM     32  O   UNL     1      -3.740  12.061  24.188  0.00  0.00    +0.000 OA
ATOM     33  C   UNL     1      -5.052  12.590  24.413  0.00  0.00    +0.000 C 
ATOM     34  C   UNL     1      -5.957  13.603  23.708  0.00  0.00    +0.000 C 
ATOM     35  C   UNL     1      -5.633  14.055  22.314  0.00  0.00    +0.000 C 
ATOM     36  O   UNL     1      -4.593  13.515  21.532  0.00  0.00    +0.000 OA
ENDBRANCH  23  26
ENDBRANCH  21  23
ENDBRANCH   5  21
TORSDOF 8
ENDMDL
MODEL 4
REMARK VINA RESULT:      -8.9      1.190      1.439
REMARK  Name = 
REMARK  8 active torsions:
REMARK  status: ('A' for Active; 'I' for Inactive)
REMARK    1  A    between atoms: C_2  and  C_13
REMARK    2  A    between atoms: N_3  and  C_4
REMARK    3  A    between atoms: C_4  and  C_5
REMARK    4  A    between atoms: C_5  and  C_6
REMARK    5  A    between atoms: C_10  and  O_11
REMARK    6  A    between atoms: C_17  and  N_18
REMARK    7  A    between atoms: N_18  and  S_19
REMARK    8  A    between atoms: S_19  and  C_22
REMARK                            x       y       z     vdW  Elec       q    Type
REMARK                         _______ _______ _______ _____ _____    ______ ____
ROOT
ATOM      1  C   UNL     1       6.861   5.629  17.082  0.00  0.00    +0.000 A 
ATOM      2  C   UNL     1       7.343   5.442  15.780  0.00  0.00    +0.000 A 
ATOM      3  C   UNL     1       6.666   4.602  14.899  0.00  0.00    +0.000 A 
ATOM      4  C   UNL     1       5.510   3.944  15.315  0.00  0.00    +0.000 A 
ATOM      5  C   UNL     1       5.028   4.128  16.611  0.00  0.00    +0.000 A 
ATOM      6  C   UNL     1       5.684   4.988  17.490  0.00  0.00    +0.000 A 
ENDROOT
BRANCH   1   8
ATOM      7  O   UNL     1       8.092   6.138  19.020  0.00  0.00    +0.000 OA
ATOM      8  C   UNL     1       7.607   6.556  17.975  0.00  0.00    +0.000 C 
ATOM      9  N   UNL     1       7.687   7.873  17.572  0.00  0.00    +0.000 N 
ATOM     10  H   UNL     1       7.054   8.202  16.854  0.00  0.00    +0.000 HD
BRANCH   9  11
ATOM     11  C   UNL     1       8.329   8.874  18.406  0.00  0.00    +0.000 C 
BRANCH  11  12
ATOM     12  C   UNL     1       8.851  10.070  17.603  0.00  0.00    +0.000 C 
BRANCH  12  13
ATOM     13  C   UNL     1       9.683  11.009  18.439  0.00  0.00    +0.000 A 
ATOM     14  C   UNL     1      10.644  11.832  17.835  0.00  0.00    +0.000 A 
ATOM     15  C   UNL     1      11.394  12.726  18.604  0.00  0.00    +0.000 A 
ATOM     16  C   UNL     1      11.198  12.799  19.983  0.00  0.00    +0.000 A 
ATOM     17  C   UNL     1      10.256  11.969  20.582  0.00  0.00    +0.000 A 
ATOM     18  C   UNL     1       9.503  11.077  19.826  0.00  0.00    +0.000 A 
BRANCH  17  19
ATOM     19  O   UNL     1      10.032  12.005  21.928  0.00  0.00    +0.000 OA
ATOM     20  H   UNL     1      10.523  11.274  22.338  0.00  0.00    +0.000 HD
ENDBRANCH  17  19
ENDBRANCH  12  13
ENDBRANCH  11  12
ENDBRANCH   9  11
ENDBRANCH   1   8
BRANCH   5  21
ATOM     21  N   UNL     1       3.834   3.476  16.999  0.00  0.00    +0.000 N 
ATOM     22  H   UNL     1       3.110   3.258  16.319  0.00  0.00    +0.000 HD
BRANCH  21  23
ATOM     23  S   UNL     1       3.528   3.152  18.614  0.00  0.00    +0.000 S 
ATOM     24  O   UNL     1       2.470   2.144  18.649  0.00  0.00    +0.000 OA
ATOM     25  O   UNL     1       4.779   2.952  19.303  0.00  0.00    +0.000 OA
BRANCH  23  26
ATOM     26  C   UNL     1       2.807   4.665  19.193  0.00  0.00    +0.000 A 
ATOM     27  C   UNL     1       2.366   4.818  20.498  0.00  0.00    +0.000 A 
ATOM     28  C   UNL     1       1.839   6.060  20.893  0.00  0.00    +0.000 A 
ATOM     29  C   UNL     1       1.768   7.169  20.025  0.00  0.00    +0.000 A 
ATOM     30  C   UNL     1       2.222   6.988  18.731  0.00  0.00    +0.000 A 
ATOM     31  C   UNL     1       2.712   5.734  18.313  0.00  0.00    +0.000 A 
ATOM     32  O   UNL     1       2.342   7.872  17.725  0.00  0.00    +0.000 OA
ATOM     33  C   UNL     1       2.009   9.259  17.865  0.00  0.00    +0.000 C 
ATOM     34  C   UNL     1       1.230  10.098  18.880  0.00  0.00    +0.000 C 
ATOM     35  C   UNL     1       0.875   9.518  20.218  0.00  0.00    +0.000 C 
ATOM     36  O   UNL     1       1.318   8.261  20.674  0.00  0.00    +0.000 OA
ENDBRANCH  23  26
ENDBRANCH  21  23
ENDBRANCH   5  21
TORSDOF 8
ENDMDL
MODEL 5
REMARK VINA RESULT:      -8.8      1.583      2.368
REMARK  Name = 
REMARK  8 active torsions:
REMARK  status: ('A' for Active; 'I' for Inactive)
REMARK    1  A    between atoms: C_2  and  C_13
REMARK    2  A    between atoms: N_3  and  C_4
REMARK    3  A    between atoms: C_4  and  C_5
REMARK    4  A    between atoms: C_5  and  C_6
REMARK    5  A    between atoms: C_10  and  O_11
REMARK    6  A    between atoms: C_17  and  N_18
REMARK    7  A    between atoms: N_18  and  S_19
REMARK    8  A    between atoms: S_19  and  C_22
REMARK                            x       y       z     vdW  Elec       q    Type
REMARK                         _______ _______ _______ _____ _____    ______ ____
ROOT
ATOM      1  C   UNL     1       6.646   5.907  17.441  0.00  0.00    +0.000 A 
ATOM      2  C   UNL     1       7.089   5.020  16.451  0.00  0.00    +0.000 A 
ATOM      3  C   UNL     1       6.192   4.141  15.849  0.00  0.00    +0.000 A 
ATOM      4  C   UNL     1       4.853   4.142  16.234  0.00  0.00    +0.000 A 
ATOM      5  C   UNL     1       4.409   5.023  17.220  0.00  0.00    +0.000 A 
ATOM      6  C   UNL     1       5.294   5.925  17.808  0.00  0.00    +0.000 A 
ENDROOT
BRANCH   1   8
ATOM      7  O   UNL     1       8.283   6.503  19.020  0.00  0.00    +0.000 OA
ATOM      8  C   UNL     1       7.639   6.842  18.035  0.00  0.00    +0.000 C 
ATOM      9  N   UNL     1       7.758   8.080  17.436  0.00  0.00    +0.000 N 
ATOM     10  H   UNL     1       7.027   8.390  16.808  0.00  0.00    +0.000 HD
BRANCH   9  11
ATOM     11  C   UNL     1       8.645   9.094  17.981  0.00  0.00    +0.000 C 
BRANCH  11  12
ATOM     12  C   UNL     1       8.053  10.505  17.901  0.00  0.00    +0.000 C 
BRANCH  12  13
ATOM     13  C   UNL     1       9.085  11.578  18.143  0.00  0.00    +0.000 A 
ATOM     14  C   UNL     1      10.267  11.280  18.834  0.00  0.00    +0.000 A 
ATOM     15  C   UNL     1      11.239  12.264  19.031  0.00  0.00    +0.000 A 
ATOM     16  C   UNL     1      11.034  13.557  18.549  0.00  0.00    +0.000 A 
ATOM     17  C   UNL     1       9.852  13.855  17.878  0.00  0.00    +0.000 A 
ATOM     18  C   UNL     1       8.879  12.882  17.675  0.00  0.00    +0.000 A 
BRANCH  17  19
ATOM     19  O   UNL     1       9.607  15.105  17.391  0.00  0.00    +0.000 OA
ATOM     20  H   UNL     1      10.240  15.720  17.797  0.00  0.00    +0.000 HD
ENDBRANCH  17  19
ENDBRANCH  12  13
ENDBRANCH  11  12
ENDBRANCH   9  11
ENDBRANCH   1   8
BRANCH   5  21
ATOM     21  N   UNL     1       3.038   5.029  17.570  0.00  0.00    +0.000 N 
ATOM     22  H   UNL     1       2.314   5.004  16.856  0.00  0.00    +0.000 HD
BRANCH  21  23
ATOM     23  S   UNL     1       2.570   5.198  19.169  0.00  0.00    +0.000 S 
ATOM     24  O   UNL     1       1.347   4.412  19.336  0.00  0.00    +0.000 OA
ATOM     25  O   UNL     1       3.714   4.998  20.023  0.00  0.00    +0.000 OA
BRANCH  23  26
ATOM     26  C   UNL     1       2.092   6.904  19.265  0.00  0.00    +0.000 A 
ATOM     27  C   UNL     1       2.167   7.753  18.172  0.00  0.00    +0.000 A 
ATOM     28  C   UNL     1       1.735   9.082  18.317  0.00  0.00    +0.000 A 
ATOM     29  C   UNL     1       1.200   9.583  19.521  0.00  0.00    +0.000 A 
ATOM     30  C   UNL     1       1.132   8.710  20.593  0.00  0.00    +0.000 A 
ATOM     31  C   UNL     1       1.601   7.387  20.470  0.00  0.00    +0.000 A 
ATOM     32  O   UNL     1       0.609   8.887  21.819  0.00  0.00    +0.000 OA
ATOM     33  C   UNL     1      -0.030  10.103  22.225  0.00  0.00    +0.000 C 
ATOM     34  C   UNL     1      -0.093  11.535  21.689  0.00  0.00    +0.000 C 
ATOM     35  C   UNL     1       0.375  11.836  20.294  0.00  0.00    +0.000 C 
ATOM     36  O   UNL     1       0.772  10.851  19.368  0.00  0.00    +0.000 OA
ENDBRANCH  23  26
ENDBRANCH  21  23
ENDBRANCH   5  21
TORSDOF 8
ENDMDL
MODEL 6
REMARK VINA RESULT:      -8.7      1.656      2.372
REMARK  Name = 
REMARK  8 active torsions:
REMARK  status: ('A' for Active; 'I' for Inactive)
REMARK    1  A    between atoms: C_2  and  C_13
REMARK    2  A    between atoms: N_3  and  C_4
REMARK    3  A    between atoms: C_4  and  C_5
REMARK    4  A    between atoms: C_5  and  C_6
REMARK    5  A    between atoms: C_10  and  O_11
REMARK    6  A    between atoms: C_17  and  N_18
REMARK    7  A    between atoms: N_18  and  S_19
REMARK    8  A    between atoms: S_19  and  C_22
REMARK                            x       y       z     vdW  Elec       q    Type
REMARK                         _______ _______ _______ _____ _____    ______ ____
ROOT
ATOM      1  C   UNL     1       6.211   5.363  17.429  0.00  0.00    +0.000 A 
ATOM      2  C   UNL     1       5.839   4.711  16.246  0.00  0.00    +0.000 A 
ATOM      3  C   UNL     1       4.835   3.747  16.267  0.00  0.00    +0.000 A 
ATOM      4  C   UNL     1       4.200   3.429  17.466  0.00  0.00    +0.000 A 
ATOM      5  C   UNL     1       4.568   4.076  18.645  0.00  0.00    +0.000 A 
ATOM      6  C   UNL     1       5.554   5.061  18.629  0.00  0.00    +0.000 A 
ENDROOT
BRANCH   1   8
ATOM      7  O   UNL     1       7.805   6.650  16.273  0.00  0.00    +0.000 OA
ATOM      8  C   UNL     1       7.273   6.402  17.349  0.00  0.00    +0.000 C 
ATOM      9  N   UNL     1       7.620   7.023  18.531  0.00  0.00    +0.000 N 
ATOM     10  H   UNL     1       7.342   6.597  19.406  0.00  0.00    +0.000 HD
BRANCH   9  11
ATOM     11  C   UNL     1       8.696   7.999  18.576  0.00  0.00    +0.000 C 
BRANCH  11  12
ATOM     12  C   UNL     1       8.274   9.371  18.040  0.00  0.00    +0.000 C 
BRANCH  12  13
ATOM     13  C   UNL     1       9.084  10.497  18.632  0.00  0.00    +0.000 A 
ATOM     14  C   UNL     1       9.740  11.412  17.797  0.00  0.00    +0.000 A 
ATOM     15  C   UNL     1      10.464  12.475  18.343  0.00  0.00    +0.000 A 
ATOM     16  C   UNL     1      10.550  12.627  19.727  0.00  0.00    +0.000 A 
ATOM     17  C   UNL     1       9.913  11.707  20.554  0.00  0.00    +0.000 A 
ATOM     18  C   UNL     1       9.187  10.646  20.021  0.00  0.00    +0.000 A 
BRANCH  17  19
ATOM     19  O   UNL     1       9.971  11.814  21.913  0.00  0.00    +0.000 OA
ATOM     20  H   UNL     1       9.424  12.569  22.183  0.00  0.00    +0.000 HD
ENDBRANCH  17  19
ENDBRANCH  12  13
ENDBRANCH  11  12
ENDBRANCH   9  11
ENDBRANCH   1   8
BRANCH   5  21
ATOM     21  N   UNL     1       3.886   3.761  19.844  0.00  0.00    +0.000 N 
ATOM     22  H   UNL     1       4.359   3.282  20.607  0.00  0.00    +0.000 HD
BRANCH  21  23
ATOM     23  S   UNL     1       2.245   4.063  19.993  0.00  0.00    +0.000 S 
ATOM     24  O   UNL     1       1.582   3.336  18.912  0.00  0.00    +0.000 OA
ATOM     25  O   UNL     1       1.852   3.886  21.369  0.00  0.00    +0.000 OA
BRANCH  23  26
ATOM     26  C   UNL     1       2.121   5.787  19.595  0.00  0.00    +0.000 A 
ATOM     27  C   UNL     1       2.339   6.265  18.313  0.00  0.00    +0.000 A 
ATOM     28  C   UNL     1       2.185   7.640  18.068  0.00  0.00    +0.000 A 
ATOM     29  C   UNL     1       1.787   8.553  19.066  0.00  0.00    +0.000 A 
ATOM     30  C   UNL     1       1.570   8.046  20.335  0.00  0.00    +0.000 A 
ATOM     31  C   UNL     1       1.763   6.675  20.601  0.00  0.00    +0.000 A 
ATOM     32  O   UNL     1       1.120   8.657  21.445  0.00  0.00    +0.000 OA
ATOM     33  C   UNL     1       0.746  10.040  21.474  0.00  0.00    +0.000 C 
ATOM     34  C   UNL     1       0.958  11.248  20.559  0.00  0.00    +0.000 C 
ATOM     35  C   UNL     1       1.446  11.049  19.154  0.00  0.00    +0.000 C 
ATOM     36  O   UNL     1       1.617   9.787  18.552  0.00  0.00    +0.000 OA
ENDBRANCH  23  26
ENDBRANCH  21  23
ENDBRANCH   5  21
TORSDOF 8
ENDMDL
MODEL 7
REMARK VINA RESULT:      -8.6      3.554      6.338
REMARK  Name = 
REMARK  8 active torsions:
REMARK  status: ('A' for Active; 'I' for Inactive)
REMARK    1  A    between atoms: C_2  and  C_13
REMARK    2  A    between atoms: N_3  and  C_4
REMARK    3  A    between atoms: C_4  and  C_5
REMARK    4  A    between atoms: C_5  and  C_6
REMARK    5  A    between atoms: C_10  and  O_11
REMARK    6  A    between atoms: C_17  and  N_18
REMARK    7  A    between atoms: N_18  and  S_19
REMARK    8  A    between atoms: S_19  and  C_22
REMARK                            x       y       z     vdW  Elec       q    Type
REMARK                         _______ _______ _______ _____ _____    ______ ____
ROOT
ATOM      1  C   UNL     1       3.161   4.886  18.597  0.00  0.00    +0.000 A 
ATOM      2  C   UNL     1       2.565   4.127  19.613  0.00  0.00    +0.000 A 
ATOM      3  C   UNL     1       1.840   4.758  20.621  0.00  0.00    +0.000 A 
ATOM      4  C   UNL     1       1.710   6.145  20.621  0.00  0.00    +0.000 A 
ATOM      5  C   UNL     1       2.303   6.903  19.611  0.00  0.00    +0.000 A 
ATOM      6  C   UNL     1       3.007   6.279  18.583  0.00  0.00    +0.000 A 
ENDROOT
BRANCH   1   8
ATOM      7  O   UNL     1       3.960   2.939  17.548  0.00  0.00    +0.000 OA
ATOM      8  C   UNL     1       3.904   4.163  17.530  0.00  0.00    +0.000 C 
ATOM      9  N   UNL     1       4.523   4.940  16.572  0.00  0.00    +0.000 N 
ATOM     10  H   UNL     1       4.662   5.925  16.759  0.00  0.00    +0.000 HD
BRANCH   9  11
ATOM     11  C   UNL     1       5.335   4.337  15.529  0.00  0.00    +0.000 C 
BRANCH  11  12
ATOM     12  C   UNL     1       6.805   4.184  15.935  0.00  0.00    +0.000 C 
BRANCH  12  13
ATOM     13  C   UNL     1       7.236   5.218  16.945  0.00  0.00    +0.000 A 
ATOM     14  C   UNL     1       7.285   6.574  16.592  0.00  0.00    +0.000 A 
ATOM     15  C   UNL     1       7.653   7.537  17.535  0.00  0.00    +0.000 A 
ATOM     16  C   UNL     1       7.984   7.154  18.835  0.00  0.00    +0.000 A 
ATOM     17  C   UNL     1       7.951   5.806  19.177  0.00  0.00    +0.000 A 
ATOM     18  C   UNL     1       7.585   4.839  18.247  0.00  0.00    +0.000 A 
BRANCH  17  19
ATOM     19  O   UNL     1       8.270   5.385  20.435  0.00  0.00    +0.000 OA
ATOM     20  H   UNL     1       8.919   4.667  20.362  0.00  0.00    +0.000 HD
ENDBRANCH  17  19
ENDBRANCH  12  13
ENDBRANCH  11  12
ENDBRANCH   9  11
ENDBRANCH   1   8
BRANCH   5  21
ATOM     21  N   UNL     1       2.128   8.307  19.613  0.00  0.00    +0.000 N 
ATOM     22  H   UNL     1       2.293   8.855  20.453  0.00  0.00    +0.000 HD
BRANCH  21  23
ATOM     23  S   UNL     1       1.527   9.091  18.260  0.00  0.00    +0.000 S 
ATOM     24  O   UNL     1       2.585   9.983  17.785  0.00  0.00    +0.000 OA
ATOM     25  O   UNL     1       0.911   8.125  17.385  0.00  0.00    +0.000 OA
BRANCH  23  26
ATOM     26  C   UNL     1       0.254  10.127  18.933  0.00  0.00    +0.000 A 
ATOM     27  C   UNL     1      -0.761  10.650  18.148  0.00  0.00    +0.000 A 
ATOM     28  C   UNL     1      -1.755  11.432  18.760  0.00  0.00    +0.000 A 
ATOM     29  C   UNL     1      -1.782  11.682  20.148  0.00  0.00    +0.000 A 
ATOM     30  C   UNL     1      -0.759  11.142  20.906  0.00  0.00    +0.000 A 
ATOM     31  C   UNL     1       0.267  10.391  20.295  0.00  0.00    +0.000 A 
ATOM     32  O   UNL     1      -0.571  11.154  22.237  0.00  0.00    +0.000 OA
ATOM     33  C   UNL     1      -1.494  11.763  23.148  0.00  0.00    +0.000 C 
ATOM     34  C   UNL     1      -2.665  12.741  23.025  0.00  0.00    +0.000 C 
ATOM     35  C   UNL     1      -3.258  13.035  21.678  0.00  0.00    +0.000 C 
ATOM     36  O   UNL     1      -2.887  12.371  20.492  0.00  0.00    +0.000 OA
ENDBRANCH  23  26
ENDBRANCH  21  23
ENDBRANCH   5  21
TORSDOF 8
ENDMDL
MODEL 8
REMARK VINA RESULT:      -8.6      0.930      1.621
REMARK  Name = 
REMARK  8 active torsions:
REMARK  status: ('A' for Active; 'I' for Inactive)
REMARK    1  A    between atoms: C_2  and  C_13
REMARK    2  A    between atoms: N_3  and  C_4
REMARK    3  A    between atoms: C_4  and  C_5
REMARK    4  A    between atoms: C_5  and  C_6
REMARK    5  A    between atoms: C_10  and  O_11
REMARK    6  A    between atoms: C_17  and  N_18
REMARK    7  A    between atoms: N_18  and  S_19
REMARK    8  A    between atoms: S_19  and  C_22
REMARK                            x       y       z     vdW  Elec       q    Type
REMARK                         _______ _______ _______ _____ _____    ______ ____
ROOT
ATOM      1  C   UNL     1       6.645   5.720  17.790  0.00  0.00    +0.000 A 
ATOM      2  C   UNL     1       6.504   5.608  16.400  0.00  0.00    +0.000 A 
ATOM      3  C   UNL     1       5.545   4.753  15.862  0.00  0.00    +0.000 A 
ATOM      4  C   UNL     1       4.727   4.006  16.708  0.00  0.00    +0.000 A 
ATOM      5  C   UNL     1       4.866   4.114  18.091  0.00  0.00    +0.000 A 
ATOM      6  C   UNL     1       5.804   4.988  18.638  0.00  0.00    +0.000 A 
ENDROOT
BRANCH   1   8
ATOM      7  O   UNL     1       8.382   6.333  19.252  0.00  0.00    +0.000 OA
ATOM      8  C   UNL     1       7.668   6.665  18.313  0.00  0.00    +0.000 C 
ATOM      9  N   UNL     1       7.733   7.903  17.707  0.00  0.00    +0.000 N 
ATOM     10  H   UNL     1       6.957   8.206  17.132  0.00  0.00    +0.000 HD
BRANCH   9  11
ATOM     11  C   UNL     1       8.646   8.926  18.189  0.00  0.00    +0.000 C 
BRANCH  11  12
ATOM     12  C   UNL     1       8.150  10.347  17.903  0.00  0.00    +0.000 C 
BRANCH  12  13
ATOM     13  C   UNL     1       9.169  11.398  18.261  0.00  0.00    +0.000 A 
ATOM     14  C   UNL     1      10.146  11.135  19.233  0.00  0.00    +0.000 A 
ATOM     15  C   UNL     1      11.111  12.095  19.544  0.00  0.00    +0.000 A 
ATOM     16  C   UNL     1      11.105  13.330  18.896  0.00  0.00    +0.000 A 
ATOM     17  C   UNL     1      10.124  13.596  17.945  0.00  0.00    +0.000 A 
ATOM     18  C   UNL     1       9.159  12.646  17.627  0.00  0.00    +0.000 A 
BRANCH  17  19
ATOM     19  O   UNL     1      10.077  14.791  17.288  0.00  0.00    +0.000 OA
ATOM     20  H   UNL     1      10.901  15.272  17.470  0.00  0.00    +0.000 HD
ENDBRANCH  17  19
ENDBRANCH  12  13
ENDBRANCH  11  12
ENDBRANCH   9  11
ENDBRANCH   1   8
BRANCH   5  21
ATOM     21  N   UNL     1       4.001   3.371  18.929  0.00  0.00    +0.000 N 
ATOM     22  H   UNL     1       4.358   2.633  19.530  0.00  0.00    +0.000 HD
BRANCH  21  23
ATOM     23  S   UNL     1       2.344   3.609  18.864  0.00  0.00    +0.000 S 
ATOM     24  O   UNL     1       1.912   3.204  17.527  0.00  0.00    +0.000 OA
ATOM     25  O   UNL     1       1.738   3.054  20.049  0.00  0.00    +0.000 OA
BRANCH  23  26
ATOM     26  C   UNL     1       2.192   5.375  18.933  0.00  0.00    +0.000 A 
ATOM     27  C   UNL     1       2.392   6.175  17.820  0.00  0.00    +0.000 A 
ATOM     28  C   UNL     1       2.217   7.564  17.945  0.00  0.00    +0.000 A 
ATOM     29  C   UNL     1       1.815   8.177  19.150  0.00  0.00    +0.000 A 
ATOM     30  C   UNL     1       1.616   7.351  20.242  0.00  0.00    +0.000 A 
ATOM     31  C   UNL     1       1.831   5.961  20.138  0.00  0.00    +0.000 A 
ATOM     32  O   UNL     1       1.168   7.642  21.476  0.00  0.00    +0.000 OA
ATOM     33  C   UNL     1       0.775   8.963  21.869  0.00  0.00    +0.000 C 
ATOM     34  C   UNL     1       0.963  10.372  21.302  0.00  0.00    +0.000 C 
ATOM     35  C   UNL     1       1.440  10.556  19.892  0.00  0.00    +0.000 C 
ATOM     36  O   UNL     1       1.624   9.499  18.978  0.00  0.00    +0.000 OA
ENDBRANCH  23  26
ENDBRANCH  21  23
ENDBRANCH   5  21
TORSDOF 8
ENDMDL
MODEL 9
REMARK VINA RESULT:      -8.5      4.399      8.093
REMARK  Name = 
REMARK  8 active torsions:
REMARK  status: ('A' for Active; 'I' for Inactive)
REMARK    1  A    between atoms: C_2  and  C_13
REMARK    2  A    between atoms: N_3  and  C_4
REMARK    3  A    between atoms: C_4  and  C_5
REMARK    4  A    between atoms: C_5  and  C_6
REMARK    5  A    between atoms: C_10  and  O_11
REMARK    6  A    between atoms: C_17  and  N_18
REMARK    7  A    between atoms: N_18  and  S_19
REMARK    8  A    between atoms: S_19  and  C_22
REMARK                            x       y       z     vdW  Elec       q    Type
REMARK                         _______ _______ _______ _____ _____    ______ ____
ROOT
ATOM      1  C   UNL     1       1.066   8.517  20.308  0.00  0.00    +0.000 A 
ATOM      2  C   UNL     1       1.083   9.263  19.122  0.00  0.00    +0.000 A 
ATOM      3  C   UNL     1       1.943   8.907  18.085  0.00  0.00    +0.000 A 
ATOM      4  C   UNL     1       2.789   7.809  18.229  0.00  0.00    +0.000 A 
ATOM      5  C   UNL     1       2.776   7.065  19.409  0.00  0.00    +0.000 A 
ATOM      6  C   UNL     1       1.899   7.398  20.441  0.00  0.00    +0.000 A 
ENDROOT
BRANCH   1   8
ATOM      7  O   UNL     1      -0.733   8.132  21.772  0.00  0.00    +0.000 OA
ATOM      8  C   UNL     1       0.113   8.924  21.374  0.00  0.00    +0.000 C 
ATOM      9  N   UNL     1       0.229  10.216  21.846  0.00  0.00    +0.000 N 
ATOM     10  H   UNL     1       0.757  10.888  21.304  0.00  0.00    +0.000 HD
BRANCH   9  11
ATOM     11  C   UNL     1      -0.699  10.738  22.835  0.00  0.00    +0.000 C 
BRANCH  11  12
ATOM     12  C   UNL     1      -1.384  12.031  22.382  0.00  0.00    +0.000 C 
BRANCH  12  13
ATOM     13  C   UNL     1      -1.045  12.396  20.959  0.00  0.00    +0.000 A 
ATOM     14  C   UNL     1      -1.747  11.816  19.893  0.00  0.00    +0.000 A 
ATOM     15  C   UNL     1      -1.457  12.176  18.575  0.00  0.00    +0.000 A 
ATOM     16  C   UNL     1      -0.456  13.111  18.309  0.00  0.00    +0.000 A 
ATOM     17  C   UNL     1       0.251  13.672  19.367  0.00  0.00    +0.000 A 
ATOM     18  C   UNL     1      -0.031  13.322  20.683  0.00  0.00    +0.000 A 
BRANCH  17  19
ATOM     19  O   UNL     1       1.239  14.588  19.154  0.00  0.00    +0.000 OA
ATOM     20  H   UNL     1       1.886  14.513  19.874  0.00  0.00    +0.000 HD
ENDBRANCH  17  19
ENDBRANCH  12  13
ENDBRANCH  11  12
ENDBRANCH   9  11
ENDBRANCH   1   8
BRANCH   5  21
ATOM     21  N   UNL     1       3.619   5.935  19.519  0.00  0.00    +0.000 N 
ATOM     22  H   UNL     1       4.392   5.919  20.180  0.00  0.00    +0.000 HD
BRANCH  21  23
ATOM     23  S   UNL     1       3.441   4.637  18.476  0.00  0.00    +0.000 S 
ATOM     24  O   UNL     1       3.859   3.444  19.211  0.00  0.00    +0.000 OA
ATOM     25  O   UNL     1       2.149   4.712  17.840  0.00  0.00    +0.000 OA
BRANCH  23  26
ATOM     26  C   UNL     1       4.686   4.938  17.248  0.00  0.00    +0.000 A 
ATOM     27  C   UNL     1       5.809   5.705  17.512  0.00  0.00    +0.000 A 
ATOM     28  C   UNL     1       6.769   5.868  16.500  0.00  0.00    +0.000 A 
ATOM     29  C   UNL     1       6.655   5.257  15.234  0.00  0.00    +0.000 A 
ATOM     30  C   UNL     1       5.526   4.491  15.003  0.00  0.00    +0.000 A 
ATOM     31  C   UNL     1       4.536   4.357  15.997  0.00  0.00    +0.000 A 
ATOM     32  O   UNL     1       5.192   3.745  13.935  0.00  0.00    +0.000 OA
ATOM     33  C   UNL     1       6.039   3.602  12.789  0.00  0.00    +0.000 C 
ATOM     34  C   UNL     1       7.268   4.332  12.242  0.00  0.00    +0.000 C 
ATOM     35  C   UNL     1       8.023   5.290  13.117  0.00  0.00    +0.000 C 
ATOM     36  O   UNL     1       7.751   5.489  14.485  0.00  0.00    +0.000 OA
ENDBRANCH  23  26
ENDBRANCH  21  23
ENDBRANCH   5  21
TORSDOF 8
ENDMDL
