MODEL 1
REMARK VINA RESULT:      -8.0      0.000      0.000
REMARK  Name = 
REMARK  7 active torsions:
REMARK  status: ('A' for Active; 'I' for Inactive)
REMARK    1  A    between atoms: C_1  and  O_2
REMARK    2  A    between atoms: O_2  and  C_3
REMARK    3  A    between atoms: C_3  and  C_5
REMARK    4  A    between atoms: C_5  and  C_17
REMARK    5  A    between atoms: C_6  and  C_7
REMARK    6  A    between atoms: C_17  and  S_18
REMARK    7  A    between atoms: S_18  and  C_19
REMARK                            x       y       z     vdW  Elec       q    Type
REMARK                         _______ _______ _______ _____ _____    ______ ____
ROOT
ATOM      1  C   UNL     1       6.183   4.655  15.594  0.00  0.00    +0.000 C 
ATOM      2  C   UNL     1       4.833   4.791  15.595  0.00  0.00    +0.000 C 
ENDROOT
BRANCH   2   3
ATOM      3  C   UNL     1       4.026   4.789  16.828  0.00  0.00    +0.000 A 
ATOM      4  C   UNL     1       3.746   6.011  17.445  0.00  0.00    +0.000 A 
ATOM      5  C   UNL     1       3.031   6.053  18.641  0.00  0.00    +0.000 A 
ATOM      6  C   UNL     1       2.573   4.867  19.229  0.00  0.00    +0.000 A 
ATOM      7  C   UNL     1       1.871   4.901  20.441  0.00  0.00    +0.000 A 
ATOM      8  C   UNL     1       1.416   3.715  21.022  0.00  0.00    +0.000 A 
ATOM      9  C   UNL     1       1.651   2.490  20.394  0.00  0.00    +0.000 A 
ATOM     10  C   UNL     1       2.354   2.438  19.185  0.00  0.00    +0.000 A 
ATOM     11  C   UNL     1       2.830   3.621  18.595  0.00  0.00    +0.000 A 
ATOM     12  C   UNL     1       3.560   3.590  17.396  0.00  0.00    +0.000 A 
ENDBRANCH   2   3
BRANCH   1  13
ATOM     13  C   UNL     1       6.894   4.743  14.278  0.00  0.00    +0.000 C 
ATOM     14  O   UNL     1       7.851   5.495  14.137  0.00  0.00    +0.000 OA
BRANCH  13  16
ATOM     15  C   UNL     1       7.118   3.955  12.012  0.00  0.00    +0.000 C 
ATOM     16  O   UNL     1       6.465   4.003  13.225  0.00  0.00    +0.000 OA
ENDBRANCH  13  16
ENDBRANCH   1  13
BRANCH   1  17
ATOM     17  C   UNL     1       6.940   4.461  16.915  0.00  0.00    +0.000 C 
BRANCH  17  18
ATOM     18  S   UNL     1       7.421   6.039  17.722  0.00  0.00    +0.000 S 
BRANCH  18  19
ATOM     19  C   UNL     1       7.275   5.442  19.411  0.00  0.00    +0.000 C 
ATOM     20  N   UNL     1       6.148   5.005  19.843  0.00  0.00    +0.000 NA
ATOM     21  N   UNL     1       8.414   5.406  20.252  0.00  0.00    +0.000 N 
ATOM     22  H   UNL     1       5.313   5.001  19.239  0.00  0.00    +0.000 HD
ATOM     23  H   UNL     1       9.326   5.735  19.903  0.00  0.00    +0.000 HD
ATOM     24  H   UNL     1       8.347   5.033  21.209  0.00  0.00    +0.000 HD
ENDBRANCH  18  19
ENDBRANCH  17  18
ENDBRANCH   1  17
TORSDOF 6
ENDMDL
MODEL 2
REMARK VINA RESULT:      -7.9      1.241      1.530
REMARK  Name = 
REMARK  7 active torsions:
REMARK  status: ('A' for Active; 'I' for Inactive)
REMARK    1  A    between atoms: C_1  and  O_2
REMARK    2  A    between atoms: O_2  and  C_3
REMARK    3  A    between atoms: C_3  and  C_5
REMARK    4  A    between atoms: C_5  and  C_17
REMARK    5  A    between atoms: C_6  and  C_7
REMARK    6  A    between atoms: C_17  and  S_18
REMARK    7  A    between atoms: S_18  and  C_19
REMARK                            x       y       z     vdW  Elec       q    Type
REMARK                         _______ _______ _______ _____ _____    ______ ____
ROOT
ATOM      1  C   UNL     1       5.524   4.754  15.751  0.00  0.00    +0.000 C 
ATOM      2  C   UNL     1       4.777   3.654  16.027  0.00  0.00    +0.000 C 
ENDROOT
BRANCH   2   3
ATOM      3  C   UNL     1       3.798   3.603  17.127  0.00  0.00    +0.000 A 
ATOM      4  C   UNL     1       2.520   4.125  16.908  0.00  0.00    +0.000 A 
ATOM      5  C   UNL     1       1.579   4.146  17.936  0.00  0.00    +0.000 A 
ATOM      6  C   UNL     1       1.902   3.627  19.196  0.00  0.00    +0.000 A 
ATOM      7  C   UNL     1       0.966   3.663  20.239  0.00  0.00    +0.000 A 
ATOM      8  C   UNL     1       1.293   3.144  21.493  0.00  0.00    +0.000 A 
ATOM      9  C   UNL     1       2.552   2.578  21.714  0.00  0.00    +0.000 A 
ATOM     10  C   UNL     1       3.498   2.539  20.684  0.00  0.00    +0.000 A 
ATOM     11  C   UNL     1       3.190   3.070  19.421  0.00  0.00    +0.000 A 
ATOM     12  C   UNL     1       4.133   3.064  18.382  0.00  0.00    +0.000 A 
ENDBRANCH   2   3
BRANCH   1  13
ATOM     13  C   UNL     1       6.435   4.701  14.563  0.00  0.00    +0.000 C 
ATOM     14  O   UNL     1       7.542   5.222  14.606  0.00  0.00    +0.000 OA
BRANCH  13  16
ATOM     15  C   UNL     1       6.861   3.830  12.357  0.00  0.00    +0.000 C 
ATOM     16  O   UNL     1       6.025   4.093  13.421  0.00  0.00    +0.000 OA
ENDBRANCH  13  16
ENDBRANCH   1  13
BRANCH   1  17
ATOM     17  C   UNL     1       5.391   6.013  16.617  0.00  0.00    +0.000 C 
BRANCH  17  18
ATOM     18  S   UNL     1       6.990   6.610  17.294  0.00  0.00    +0.000 S 
BRANCH  18  19
ATOM     19  C   UNL     1       7.378   5.116  18.217  0.00  0.00    +0.000 C 
ATOM     20  N   UNL     1       8.110   4.205  17.687  0.00  0.00    +0.000 NA
ATOM     21  N   UNL     1       6.917   4.967  19.548  0.00  0.00    +0.000 N 
ATOM     22  H   UNL     1       8.474   4.308  16.728  0.00  0.00    +0.000 HD
ATOM     23  H   UNL     1       6.347   5.705  19.986  0.00  0.00    +0.000 HD
ATOM     24  H   UNL     1       7.164   4.130  20.095  0.00  0.00    +0.000 HD
ENDBRANCH  18  19
ENDBRANCH  17  18
ENDBRANCH   1  17
TORSDOF 6
ENDMDL
MODEL 3
REMARK VINA RESULT:      -7.8      0.624      1.631
REMARK  Name = 
REMARK  7 active torsions:
REMARK  status: ('A' for Active; 'I' for Inactive)
REMARK    1  A    between atoms: C_1  and  O_2
REMARK    2  A    between atoms: O_2  and  C_3
REMARK    3  A    between atoms: C_3  and  C_5
REMARK    4  A    between atoms: C_5  and  C_17
REMARK    5  A    between atoms: C_6  and  C_7
REMARK    6  A    between atoms: C_17  and  S_18
REMARK    7  A    between atoms: S_18  and  C_19
REMARK                            x       y       z     vdW  Elec       q    Type
REMARK                         _______ _______ _______ _____ _____    ______ ____
ROOT
ATOM      1  C   UNL     1       6.276   4.454  15.533  0.00  0.00    +0.000 C 
ATOM      2  C   UNL     1       4.949   4.173  15.580  0.00  0.00    +0.000 C 
ENDROOT
BRANCH   2   3
ATOM      3  C   UNL     1       4.231   3.885  16.835  0.00  0.00    +0.000 A 
ATOM      4  C   UNL     1       4.183   2.564  17.289  0.00  0.00    +0.000 A 
ATOM      5  C   UNL     1       3.471   2.238  18.442  0.00  0.00    +0.000 A 
ATOM      6  C   UNL     1       2.808   3.237  19.165  0.00  0.00    +0.000 A 
ATOM      7  C   UNL     1       2.075   2.912  20.314  0.00  0.00    +0.000 A 
ATOM      8  C   UNL     1       1.416   3.913  21.033  0.00  0.00    +0.000 A 
ATOM      9  C   UNL     1       1.492   5.244  20.615  0.00  0.00    +0.000 A 
ATOM     10  C   UNL     1       2.217   5.584  19.468  0.00  0.00    +0.000 A 
ATOM     11  C   UNL     1       2.873   4.587  18.726  0.00  0.00    +0.000 A 
ATOM     12  C   UNL     1       3.585   4.902  17.558  0.00  0.00    +0.000 A 
ENDBRANCH   2   3
BRANCH   1  13
ATOM     13  C   UNL     1       6.872   4.797  14.202  0.00  0.00    +0.000 C 
ATOM     14  O   UNL     1       7.879   5.491  14.133  0.00  0.00    +0.000 OA
BRANCH  13  16
ATOM     15  C   UNL     1       6.929   3.583  12.121  0.00  0.00    +0.000 C 
ATOM     16  O   UNL     1       6.283   4.356  13.062  0.00  0.00    +0.000 OA
ENDBRANCH  13  16
ENDBRANCH   1  13
BRANCH   1  17
ATOM     17  C   UNL     1       7.109   4.457  16.822  0.00  0.00    +0.000 C 
BRANCH  17  18
ATOM     18  S   UNL     1       7.244   6.113  17.604  0.00  0.00    +0.000 S 
BRANCH  18  19
ATOM     19  C   UNL     1       7.222   5.526  19.302  0.00  0.00    +0.000 C 
ATOM     20  N   UNL     1       6.138   5.059  19.807  0.00  0.00    +0.000 NA
ATOM     21  N   UNL     1       8.413   5.530  20.069  0.00  0.00    +0.000 N 
ATOM     22  H   UNL     1       5.268   5.025  19.256  0.00  0.00    +0.000 HD
ATOM     23  H   UNL     1       9.291   5.884  19.662  0.00  0.00    +0.000 HD
ATOM     24  H   UNL     1       8.417   5.163  21.031  0.00  0.00    +0.000 HD
ENDBRANCH  18  19
ENDBRANCH  17  18
ENDBRANCH   1  17
TORSDOF 6
ENDMDL
MODEL 4
REMARK VINA RESULT:      -7.7      0.547      1.125
REMARK  Name = 
REMARK  7 active torsions:
REMARK  status: ('A' for Active; 'I' for Inactive)
REMARK    1  A    between atoms: C_1  and  O_2
REMARK    2  A    between atoms: O_2  and  C_3
REMARK    3  A    between atoms: C_3  and  C_5
REMARK    4  A    between atoms: C_5  and  C_17
REMARK    5  A    between atoms: C_6  and  C_7
REMARK    6  A    between atoms: C_17  and  S_18
REMARK    7  A    between atoms: S_18  and  C_19
REMARK                            x       y       z     vdW  Elec       q    Type
REMARK                         _______ _______ _______ _____ _____    ______ ____
ROOT
ATOM      1  C   UNL     1       6.147   4.580  15.529  0.00  0.00    +0.000 C 
ATOM      2  C   UNL     1       4.799   4.729  15.541  0.00  0.00    +0.000 C 
ENDROOT
BRANCH   2   3
ATOM      3  C   UNL     1       4.001   4.744  16.780  0.00  0.00    +0.000 A 
ATOM      4  C   UNL     1       3.782   5.967  17.419  0.00  0.00    +0.000 A 
ATOM      5  C   UNL     1       3.079   6.022  18.621  0.00  0.00    +0.000 A 
ATOM      6  C   UNL     1       2.572   4.848  19.194  0.00  0.00    +0.000 A 
ATOM      7  C   UNL     1       1.882   4.894  20.412  0.00  0.00    +0.000 A 
ATOM      8  C   UNL     1       1.378   3.720  20.978  0.00  0.00    +0.000 A 
ATOM      9  C   UNL     1       1.552   2.496  20.328  0.00  0.00    +0.000 A 
ATOM     10  C   UNL     1       2.242   2.433  19.113  0.00  0.00    +0.000 A 
ATOM     11  C   UNL     1       2.768   3.602  18.538  0.00  0.00    +0.000 A 
ATOM     12  C   UNL     1       3.486   3.558  17.333  0.00  0.00    +0.000 A 
ENDBRANCH   2   3
BRANCH   1  13
ATOM     13  C   UNL     1       6.848   4.651  14.207  0.00  0.00    +0.000 C 
ATOM     14  O   UNL     1       6.511   3.919  13.285  0.00  0.00    +0.000 OA
BRANCH  13  16
ATOM     15  C   UNL     1       8.421   5.816  12.801  0.00  0.00    +0.000 C 
ATOM     16  O   UNL     1       7.880   5.515  14.033  0.00  0.00    +0.000 OA
ENDBRANCH  13  16
ENDBRANCH   1  13
BRANCH   1  17
ATOM     17  C   UNL     1       6.912   4.386  16.845  0.00  0.00    +0.000 C 
BRANCH  17  18
ATOM     18  S   UNL     1       7.363   5.964  17.670  0.00  0.00    +0.000 S 
BRANCH  18  19
ATOM     19  C   UNL     1       7.201   5.355  19.353  0.00  0.00    +0.000 C 
ATOM     20  N   UNL     1       8.054   5.700  20.247  0.00  0.00    +0.000 NA
ATOM     21  N   UNL     1       6.102   4.534  19.706  0.00  0.00    +0.000 N 
ATOM     22  H   UNL     1       8.847   6.316  20.014  0.00  0.00    +0.000 HD
ATOM     23  H   UNL     1       5.402   4.271  18.997  0.00  0.00    +0.000 HD
ATOM     24  H   UNL     1       5.982   4.209  20.676  0.00  0.00    +0.000 HD
ENDBRANCH  18  19
ENDBRANCH  17  18
ENDBRANCH   1  17
TORSDOF 6
ENDMDL
MODEL 5
REMARK VINA RESULT:      -7.6      1.592      1.884
REMARK  Name = 
REMARK  7 active torsions:
REMARK  status: ('A' for Active; 'I' for Inactive)
REMARK    1  A    between atoms: C_1  and  O_2
REMARK    2  A    between atoms: O_2  and  C_3
REMARK    3  A    between atoms: C_3  and  C_5
REMARK    4  A    between atoms: C_5  and  C_17
REMARK    5  A    between atoms: C_6  and  C_7
REMARK    6  A    between atoms: C_17  and  S_18
REMARK    7  A    between atoms: S_18  and  C_19
REMARK                            x       y       z     vdW  Elec       q    Type
REMARK                         _______ _______ _______ _____ _____    ______ ____
ROOT
ATOM      1  C   UNL     1       5.517   4.752  16.056  0.00  0.00    +0.000 C 
ATOM      2  C   UNL     1       4.603   3.751  16.125  0.00  0.00    +0.000 C 
ENDROOT
BRANCH   2   3
ATOM      3  C   UNL     1       3.642   3.614  17.234  0.00  0.00    +0.000 A 
ATOM      4  C   UNL     1       2.331   4.055  17.039  0.00  0.00    +0.000 A 
ATOM      5  C   UNL     1       1.402   3.993  18.077  0.00  0.00    +0.000 A 
ATOM      6  C   UNL     1       1.774   3.473  19.324  0.00  0.00    +0.000 A 
ATOM      7  C   UNL     1       0.851   3.426  20.376  0.00  0.00    +0.000 A 
ATOM      8  C   UNL     1       1.227   2.905  21.617  0.00  0.00    +0.000 A 
ATOM      9  C   UNL     1       2.522   2.420  21.812  0.00  0.00    +0.000 A 
ATOM     10  C   UNL     1       3.457   2.463  20.772  0.00  0.00    +0.000 A 
ATOM     11  C   UNL     1       3.099   2.997  19.523  0.00  0.00    +0.000 A 
ATOM     12  C   UNL     1       4.028   3.074  18.474  0.00  0.00    +0.000 A 
ENDBRANCH   2   3
BRANCH   1  13
ATOM     13  C   UNL     1       6.392   4.820  14.842  0.00  0.00    +0.000 C 
ATOM     14  O   UNL     1       7.481   5.378  14.891  0.00  0.00    +0.000 OA
BRANCH  13  16
ATOM     15  C   UNL     1       6.823   3.842  12.682  0.00  0.00    +0.000 C 
ATOM     16  O   UNL     1       5.969   4.281  13.671  0.00  0.00    +0.000 OA
ENDBRANCH  13  16
ENDBRANCH   1  13
BRANCH   1  17
ATOM     17  C   UNL     1       5.605   5.793  17.180  0.00  0.00    +0.000 C 
BRANCH  17  18
ATOM     18  S   UNL     1       6.959   5.467  18.378  0.00  0.00    +0.000 S 
BRANCH  18  19
ATOM     19  C   UNL     1       7.803   7.037  18.146  0.00  0.00    +0.000 C 
ATOM     20  N   UNL     1       8.581   7.490  19.061  0.00  0.00    +0.000 NA
ATOM     21  N   UNL     1       7.649   7.752  16.933  0.00  0.00    +0.000 N 
ATOM     22  H   UNL     1       8.724   6.971  19.940  0.00  0.00    +0.000 HD
ATOM     23  H   UNL     1       7.043   7.383  16.187  0.00  0.00    +0.000 HD
ATOM     24  H   UNL     1       8.156   8.635  16.779  0.00  0.00    +0.000 HD
ENDBRANCH  18  19
ENDBRANCH  17  18
ENDBRANCH   1  17
TORSDOF 6
ENDMDL
MODEL 6
REMARK VINA RESULT:      -7.6      1.095      2.201
REMARK  Name = 
REMARK  7 active torsions:
REMARK  status: ('A' for Active; 'I' for Inactive)
REMARK    1  A    between atoms: C_1  and  O_2
REMARK    2  A    between atoms: O_2  and  C_3
REMARK    3  A    between atoms: C_3  and  C_5
REMARK    4  A    between atoms: C_5  and  C_17
REMARK    5  A    between atoms: C_6  and  C_7
REMARK    6  A    between atoms: C_17  and  S_18
REMARK    7  A    between atoms: S_18  and  C_19
REMARK                            x       y       z     vdW  Elec       q    Type
REMARK                         _______ _______ _______ _____ _____    ______ ____
ROOT
ATOM      1  C   UNL     1       6.138   4.993  15.601  0.00  0.00    +0.000 C 
ATOM      2  C   UNL     1       4.861   4.581  15.803  0.00  0.00    +0.000 C 
ENDROOT
BRANCH   2   3
ATOM      3  C   UNL     1       4.123   4.830  17.054  0.00  0.00    +0.000 A 
ATOM      4  C   UNL     1       3.841   3.745  17.889  0.00  0.00    +0.000 A 
ATOM      5  C   UNL     1       3.100   3.925  19.056  0.00  0.00    +0.000 A 
ATOM      6  C   UNL     1       2.644   5.202  19.410  0.00  0.00    +0.000 A 
ATOM      7  C   UNL     1       1.883   5.386  20.572  0.00  0.00    +0.000 A 
ATOM      8  C   UNL     1       1.431   6.661  20.921  0.00  0.00    +0.000 A 
ATOM      9  C   UNL     1       1.744   7.761  20.118  0.00  0.00    +0.000 A 
ATOM     10  C   UNL     1       2.500   7.593  18.953  0.00  0.00    +0.000 A 
ATOM     11  C   UNL     1       2.949   6.315  18.581  0.00  0.00    +0.000 A 
ATOM     12  C   UNL     1       3.687   6.120  17.403  0.00  0.00    +0.000 A 
ENDBRANCH   2   3
BRANCH   1  13
ATOM     13  C   UNL     1       6.752   4.737  14.258  0.00  0.00    +0.000 C 
ATOM     14  O   UNL     1       7.738   5.368  13.896  0.00  0.00    +0.000 OA
BRANCH  13  16
ATOM     15  C   UNL     1       6.689   3.547  12.164  0.00  0.00    +0.000 C 
ATOM     16  O   UNL     1       6.202   3.819  13.425  0.00  0.00    +0.000 OA
ENDBRANCH  13  16
ENDBRANCH   1  13
BRANCH   1  17
ATOM     17  C   UNL     1       6.895   5.730  16.713  0.00  0.00    +0.000 C 
BRANCH  17  18
ATOM     18  S   UNL     1       7.725   4.606  17.905  0.00  0.00    +0.000 S 
BRANCH  18  19
ATOM     19  C   UNL     1       7.996   5.845  19.179  0.00  0.00    +0.000 C 
ATOM     20  N   UNL     1       7.935   5.516  20.419  0.00  0.00    +0.000 NA
ATOM     21  N   UNL     1       8.327   7.173  18.818  0.00  0.00    +0.000 N 
ATOM     22  H   UNL     1       7.719   4.549  20.701  0.00  0.00    +0.000 HD
ATOM     23  H   UNL     1       8.399   7.438  17.824  0.00  0.00    +0.000 HD
ATOM     24  H   UNL     1       8.519   7.880  19.541  0.00  0.00    +0.000 HD
ENDBRANCH  18  19
ENDBRANCH  17  18
ENDBRANCH   1  17
TORSDOF 6
ENDMDL
MODEL 7
REMARK VINA RESULT:      -7.5      1.314      1.686
REMARK  Name = 
REMARK  7 active torsions:
REMARK  status: ('A' for Active; 'I' for Inactive)
REMARK    1  A    between atoms: C_1  and  O_2
REMARK    2  A    between atoms: O_2  and  C_3
REMARK    3  A    between atoms: C_3  and  C_5
REMARK    4  A    between atoms: C_5  and  C_17
REMARK    5  A    between atoms: C_6  and  C_7
REMARK    6  A    between atoms: C_17  and  S_18
REMARK    7  A    between atoms: S_18  and  C_19
REMARK                            x       y       z     vdW  Elec       q    Type
REMARK                         _______ _______ _______ _____ _____    ______ ____
ROOT
ATOM      1  C   UNL     1       5.568   4.690  15.680  0.00  0.00    +0.000 C 
ATOM      2  C   UNL     1       4.854   3.585  16.014  0.00  0.00    +0.000 C 
ENDROOT
BRANCH   2   3
ATOM      3  C   UNL     1       3.862   3.566  17.103  0.00  0.00    +0.000 A 
ATOM      4  C   UNL     1       2.599   4.115  16.865  0.00  0.00    +0.000 A 
ATOM      5  C   UNL     1       1.647   4.167  17.882  0.00  0.00    +0.000 A 
ATOM      6  C   UNL     1       1.945   3.655  19.151  0.00  0.00    +0.000 A 
ATOM      7  C   UNL     1       0.999   3.722  20.183  0.00  0.00    +0.000 A 
ATOM      8  C   UNL     1       1.301   3.209  21.446  0.00  0.00    +0.000 A 
ATOM      9  C   UNL     1       2.544   2.619  21.686  0.00  0.00    +0.000 A 
ATOM     10  C   UNL     1       3.501   2.547  20.668  0.00  0.00    +0.000 A 
ATOM     11  C   UNL     1       3.218   3.072  19.396  0.00  0.00    +0.000 A 
ATOM     12  C   UNL     1       4.172   3.034  18.367  0.00  0.00    +0.000 A 
ENDBRANCH   2   3
BRANCH   1  13
ATOM     13  C   UNL     1       6.496   4.597  14.508  0.00  0.00    +0.000 C 
ATOM     14  O   UNL     1       6.368   3.699  13.684  0.00  0.00    +0.000 OA
BRANCH  13  16
ATOM     15  C   UNL     1       8.226   5.652  13.204  0.00  0.00    +0.000 C 
ATOM     16  O   UNL     1       7.503   5.496  14.367  0.00  0.00    +0.000 OA
ENDBRANCH  13  16
ENDBRANCH   1  13
BRANCH   1  17
ATOM     17  C   UNL     1       5.382   5.994  16.468  0.00  0.00    +0.000 C 
BRANCH  17  18
ATOM     18  S   UNL     1       6.944   6.654  17.172  0.00  0.00    +0.000 S 
BRANCH  18  19
ATOM     19  C   UNL     1       7.286   5.247  18.236  0.00  0.00    +0.000 C 
ATOM     20  N   UNL     1       6.733   5.165  19.391  0.00  0.00    +0.000 NA
ATOM     21  N   UNL     1       8.125   4.201  17.780  0.00  0.00    +0.000 N 
ATOM     22  H   UNL     1       6.100   5.905  19.730  0.00  0.00    +0.000 HD
ATOM     23  H   UNL     1       8.554   4.250  16.844  0.00  0.00    +0.000 HD
ATOM     24  H   UNL     1       8.298   3.374  18.369  0.00  0.00    +0.000 HD
ENDBRANCH  18  19
ENDBRANCH  17  18
ENDBRANCH   1  17
TORSDOF 6
ENDMDL
MODEL 8
REMARK VINA RESULT:      -7.4      0.941      1.054
REMARK  Name = 
REMARK  7 active torsions:
REMARK  status: ('A' for Active; 'I' for Inactive)
REMARK    1  A    between atoms: C_1  and  O_2
REMARK    2  A    between atoms: O_2  and  C_3
REMARK    3  A    between atoms: C_3  and  C_5
REMARK    4  A    between atoms: C_5  and  C_17
REMARK    5  A    between atoms: C_6  and  C_7
REMARK    6  A    between atoms: C_17  and  S_18
REMARK    7  A    between atoms: S_18  and  C_19
REMARK                            x       y       z     vdW  Elec       q    Type
REMARK                         _______ _______ _______ _____ _____    ______ ____
ROOT
ATOM      1  C   UNL     1       6.047   5.028  15.644  0.00  0.00    +0.000 C 
ATOM      2  C   UNL     1       4.824   4.468  15.821  0.00  0.00    +0.000 C 
ENDROOT
BRANCH   2   3
ATOM      3  C   UNL     1       4.093   4.517  17.100  0.00  0.00    +0.000 A 
ATOM      4  C   UNL     1       3.453   5.707  17.457  0.00  0.00    +0.000 A 
ATOM      5  C   UNL     1       2.795   5.817  18.681  0.00  0.00    +0.000 A 
ATOM      6  C   UNL     1       2.758   4.726  19.559  0.00  0.00    +0.000 A 
ATOM      7  C   UNL     1       2.115   4.837  20.799  0.00  0.00    +0.000 A 
ATOM      8  C   UNL     1       2.079   3.746  21.671  0.00  0.00    +0.000 A 
ATOM      9  C   UNL     1       2.677   2.537  21.308  0.00  0.00    +0.000 A 
ATOM     10  C   UNL     1       3.326   2.412  20.075  0.00  0.00    +0.000 A 
ATOM     11  C   UNL     1       3.383   3.504  19.194  0.00  0.00    +0.000 A 
ATOM     12  C   UNL     1       4.051   3.408  17.963  0.00  0.00    +0.000 A 
ENDBRANCH   2   3
BRANCH   1  13
ATOM     13  C   UNL     1       6.654   4.967  14.275  0.00  0.00    +0.000 C 
ATOM     14  O   UNL     1       7.782   5.399  14.077  0.00  0.00    +0.000 OA
BRANCH  13  16
ATOM     15  C   UNL     1       6.289   3.293  12.581  0.00  0.00    +0.000 C 
ATOM     16  O   UNL     1       5.942   4.453  13.240  0.00  0.00    +0.000 OA
ENDBRANCH  13  16
ENDBRANCH   1  13
BRANCH   1  17
ATOM     17  C   UNL     1       6.748   5.732  16.813  0.00  0.00    +0.000 C 
BRANCH  17  18
ATOM     18  S   UNL     1       7.683   4.587  17.903  0.00  0.00    +0.000 S 
BRANCH  18  19
ATOM     19  C   UNL     1       8.092   5.807  19.158  0.00  0.00    +0.000 C 
ATOM     20  N   UNL     1       8.245   7.039  18.831  0.00  0.00    +0.000 NA
ATOM     21  N   UNL     1       8.195   5.420  20.516  0.00  0.00    +0.000 N 
ATOM     22  H   UNL     1       8.150   7.343  17.850  0.00  0.00    +0.000 HD
ATOM     23  H   UNL     1       8.052   4.437  20.788  0.00  0.00    +0.000 HD
ATOM     24  H   UNL     1       8.394   6.119  21.246  0.00  0.00    +0.000 HD
ENDBRANCH  18  19
ENDBRANCH  17  18
ENDBRANCH   1  17
TORSDOF 6
ENDMDL
MODEL 9
REMARK VINA RESULT:      -7.2      4.016      5.530
REMARK  Name = 
REMARK  7 active torsions:
REMARK  status: ('A' for Active; 'I' for Inactive)
REMARK    1  A    between atoms: C_1  and  O_2
REMARK    2  A    between atoms: O_2  and  C_3
REMARK    3  A    between atoms: C_3  and  C_5
REMARK    4  A    between atoms: C_5  and  C_17
REMARK    5  A    between atoms: C_6  and  C_7
REMARK    6  A    between atoms: C_17  and  S_18
REMARK    7  A    between atoms: S_18  and  C_19
REMARK                            x       y       z     vdW  Elec       q    Type
REMARK                         _______ _______ _______ _____ _____    ______ ____
ROOT
ATOM      1  C   UNL     1       3.215   5.441  17.858  0.00  0.00    +0.000 C 
ATOM      2  C   UNL     1       3.481   6.759  18.038  0.00  0.00    +0.000 C 
ENDROOT
BRANCH   2   3
ATOM      3  C   UNL     1       2.493   7.716  18.568  0.00  0.00    +0.000 A 
ATOM      4  C   UNL     1       1.923   8.641  17.689  0.00  0.00    +0.000 A 
ATOM      5  C   UNL     1       1.024   9.599  18.156  0.00  0.00    +0.000 A 
ATOM      6  C   UNL     1       0.672   9.631  19.512  0.00  0.00    +0.000 A 
ATOM      7  C   UNL     1      -0.216  10.603  19.991  0.00  0.00    +0.000 A 
ATOM      8  C   UNL     1      -0.564  10.631  21.343  0.00  0.00    +0.000 A 
ATOM      9  C   UNL     1      -0.036   9.684  22.224  0.00  0.00    +0.000 A 
ATOM     10  C   UNL     1       0.855   8.709  21.762  0.00  0.00    +0.000 A 
ATOM     11  C   UNL     1       1.227   8.677  20.408  0.00  0.00    +0.000 A 
ATOM     12  C   UNL     1       2.138   7.724  19.928  0.00  0.00    +0.000 A 
ENDBRANCH   2   3
BRANCH   1  13
ATOM     13  C   UNL     1       4.327   4.560  17.377  0.00  0.00    +0.000 C 
ATOM     14  O   UNL     1       4.116   3.698  16.533  0.00  0.00    +0.000 OA
BRANCH  13  16
ATOM     15  C   UNL     1       6.721   4.679  17.130  0.00  0.00    +0.000 C 
ATOM     16  O   UNL     1       5.574   4.700  17.894  0.00  0.00    +0.000 OA
ENDBRANCH  13  16
ENDBRANCH   1  13
BRANCH   1  17
ATOM     17  C   UNL     1       1.822   4.886  18.183  0.00  0.00    +0.000 C 
BRANCH  17  18
ATOM     18  S   UNL     1       1.792   3.800  19.664  0.00  0.00    +0.000 S 
BRANCH  18  19
ATOM     19  C   UNL     1       1.585   2.257  18.767  0.00  0.00    +0.000 C 
ATOM     20  N   UNL     1       0.413   1.873  18.410  0.00  0.00    +0.000 NA
ATOM     21  N   UNL     1       2.718   1.488  18.408  0.00  0.00    +0.000 N 
ATOM     22  H   UNL     1      -0.422   2.432  18.642  0.00  0.00    +0.000 HD
ATOM     23  H   UNL     1       3.663   1.802  18.672  0.00  0.00    +0.000 HD
ATOM     24  H   UNL     1       2.611   0.620  17.863  0.00  0.00    +0.000 HD
ENDBRANCH  18  19
ENDBRANCH  17  18
ENDBRANCH   1  17
TORSDOF 6
ENDMDL
