MODEL 1
REMARK VINA RESULT:      -7.5      0.000      0.000
REMARK  Name = 
REMARK  3 active torsions:
REMARK  status: ('A' for Active; 'I' for Inactive)
REMARK    1  A    between atoms: C_1  and  C_2
REMARK    2  A    between atoms: C_7  and  N_8
REMARK    3  A    between atoms: C_12  and  C_13
REMARK                            x       y       z     vdW  Elec       q    Type
REMARK                         _______ _______ _______ _____ _____    ______ ____
ROOT
ATOM      1  N   UNL     1       5.870   4.465  18.245  0.00  0.00    +0.000 N 
ATOM      2  N   UNL     1       6.129   4.820  19.521  0.00  0.00    +0.000 NA
ATOM      3  C   UNL     1       7.198   5.603  19.446  0.00  0.00    +0.000 A 
ATOM      4  C   UNL     1       7.671   5.710  18.133  0.00  0.00    +0.000 A 
ATOM      5  C   UNL     1       6.812   4.955  17.346  0.00  0.00    +0.000 A 
ENDROOT
BRANCH   1  12
ATOM      6  C   UNL     1       1.286   2.631  21.728  0.00  0.00    +0.000 C 
ATOM      7  C   UNL     1       1.382   3.744  20.715  0.00  0.00    +0.000 C 
ATOM      8  O   UNL     1       0.415   4.477  20.515  0.00  0.00    +0.000 OA
ATOM      9  N   UNL     1       2.582   3.878  20.032  0.00  0.00    +0.000 N 
ATOM     10  C   UNL     1       2.774   5.020  19.142  0.00  0.00    +0.000 C 
ATOM     11  C   UNL     1       3.382   4.579  17.811  0.00  0.00    +0.000 C 
ATOM     12  C   UNL     1       4.644   3.707  17.977  0.00  0.00    +0.000 C 
ATOM     13  C   UNL     1       4.403   2.603  19.020  0.00  0.00    +0.000 C 
ATOM     14  C   UNL     1       3.782   3.107  20.310  0.00  0.00    +0.000 C 
ENDBRANCH   1  12
BRANCH   5  15
ATOM     15  C   UNL     1       6.860   4.757  15.889  0.00  0.00    +0.000 A 
ATOM     16  C   UNL     1       6.148   3.810  15.183  0.00  0.00    +0.000 A 
ATOM     17  N   UNL     1       6.191   3.622  13.850  0.00  0.00    +0.000 NA
ATOM     18  C   UNL     1       7.001   4.427  13.170  0.00  0.00    +0.000 A 
ATOM     19  N   UNL     1       7.058   4.238  11.808  0.00  0.00    +0.000 N 
ATOM     20  N   UNL     1       7.784   5.353  13.726  0.00  0.00    +0.000 NA
ATOM     21  C   UNL     1       7.689   5.499  15.071  0.00  0.00    +0.000 A 
ATOM     22  H   UNL     1       6.762   3.296  11.591  0.00  0.00    +0.000 HD
ATOM     23  H   UNL     1       7.956   4.534  11.459  0.00  0.00    +0.000 HD
ENDBRANCH   5  15
TORSDOF 2
ENDMDL
MODEL 2
REMARK VINA RESULT:      -7.5      2.927      7.097
REMARK  Name = 
REMARK  3 active torsions:
REMARK  status: ('A' for Active; 'I' for Inactive)
REMARK    1  A    between atoms: C_1  and  C_2
REMARK    2  A    between atoms: C_7  and  N_8
REMARK    3  A    between atoms: C_12  and  C_13
REMARK                            x       y       z     vdW  Elec       q    Type
REMARK                         _______ _______ _______ _____ _____    ______ ____
ROOT
ATOM      1  N   UNL     1       3.754   6.217  18.169  0.00  0.00    +0.000 N 
ATOM      2  N   UNL     1       3.817   7.374  17.477  0.00  0.00    +0.000 NA
ATOM      3  C   UNL     1       2.793   8.093  17.920  0.00  0.00    +0.000 A 
ATOM      4  C   UNL     1       2.028   7.383  18.853  0.00  0.00    +0.000 A 
ATOM      5  C   UNL     1       2.645   6.150  19.009  0.00  0.00    +0.000 A 
ENDROOT
BRANCH   1  12
ATOM      6  C   UNL     1       6.447   3.771  13.346  0.00  0.00    +0.000 C 
ATOM      7  C   UNL     1       6.901   4.848  14.298  0.00  0.00    +0.000 C 
ATOM      8  O   UNL     1       7.984   5.404  14.127  0.00  0.00    +0.000 OA
ATOM      9  N   UNL     1       6.057   5.155  15.356  0.00  0.00    +0.000 N 
ATOM     10  C   UNL     1       6.383   6.283  16.226  0.00  0.00    +0.000 C 
ATOM     11  C   UNL     1       6.217   5.902  17.698  0.00  0.00    +0.000 C 
ATOM     12  C   UNL     1       4.850   5.257  18.009  0.00  0.00    +0.000 C 
ATOM     13  C   UNL     1       4.522   4.166  16.977  0.00  0.00    +0.000 C 
ATOM     14  C   UNL     1       4.726   4.604  15.539  0.00  0.00    +0.000 C 
ENDBRANCH   1  12
BRANCH   5  15
ATOM     15  C   UNL     1       2.247   5.045  19.893  0.00  0.00    +0.000 A 
ATOM     16  C   UNL     1       2.682   4.856  21.189  0.00  0.00    +0.000 A 
ATOM     17  N   UNL     1       2.324   3.843  22.001  0.00  0.00    +0.000 NA
ATOM     18  C   UNL     1       1.478   2.954  21.493  0.00  0.00    +0.000 A 
ATOM     19  N   UNL     1       1.112   1.912  22.314  0.00  0.00    +0.000 N 
ATOM     20  N   UNL     1       1.014   2.984  20.243  0.00  0.00    +0.000 NA
ATOM     21  C   UNL     1       1.405   4.032  19.476  0.00  0.00    +0.000 A 
ATOM     22  H   UNL     1       1.815   1.789  23.029  0.00  0.00    +0.000 HD
ATOM     23  H   UNL     1       0.871   1.106  21.756  0.00  0.00    +0.000 HD
ENDBRANCH   5  15
TORSDOF 2
ENDMDL
MODEL 3
REMARK VINA RESULT:      -7.4      0.985      1.253
REMARK  Name = 
REMARK  3 active torsions:
REMARK  status: ('A' for Active; 'I' for Inactive)
REMARK    1  A    between atoms: C_1  and  C_2
REMARK    2  A    between atoms: C_7  and  N_8
REMARK    3  A    between atoms: C_12  and  C_13
REMARK                            x       y       z     vdW  Elec       q    Type
REMARK                         _______ _______ _______ _____ _____    ______ ____
ROOT
ATOM      1  N   UNL     1       5.718   5.391  18.194  0.00  0.00    +0.000 N 
ATOM      2  N   UNL     1       6.036   5.565  19.494  0.00  0.00    +0.000 NA
ATOM      3  C   UNL     1       7.357   5.445  19.540  0.00  0.00    +0.000 A 
ATOM      4  C   UNL     1       7.893   5.133  18.286  0.00  0.00    +0.000 A 
ATOM      5  C   UNL     1       6.822   5.083  17.405  0.00  0.00    +0.000 A 
ENDROOT
BRANCH   1  12
ATOM      6  C   UNL     1       0.637   2.204  18.923  0.00  0.00    +0.000 C 
ATOM      7  C   UNL     1       1.132   3.455  19.604  0.00  0.00    +0.000 C 
ATOM      8  O   UNL     1       0.465   3.974  20.497  0.00  0.00    +0.000 OA
ATOM      9  N   UNL     1       2.341   3.978  19.167  0.00  0.00    +0.000 N 
ATOM     10  C   UNL     1       2.932   5.106  19.883  0.00  0.00    +0.000 C 
ATOM     11  C   UNL     1       3.423   6.175  18.907  0.00  0.00    +0.000 C 
ATOM     12  C   UNL     1       4.326   5.611  17.790  0.00  0.00    +0.000 C 
ATOM     13  C   UNL     1       3.695   4.355  17.170  0.00  0.00    +0.000 C 
ATOM     14  C   UNL     1       3.213   3.344  18.194  0.00  0.00    +0.000 C 
ENDBRANCH   1  12
BRANCH   5  15
ATOM     15  C   UNL     1       6.853   4.814  15.959  0.00  0.00    +0.000 A 
ATOM     16  C   UNL     1       6.217   3.768  15.323  0.00  0.00    +0.000 A 
ATOM     17  N   UNL     1       6.246   3.515  14.000  0.00  0.00    +0.000 NA
ATOM     18  C   UNL     1       6.957   4.355  13.257  0.00  0.00    +0.000 A 
ATOM     19  N   UNL     1       6.999   4.100  11.905  0.00  0.00    +0.000 N 
ATOM     20  N   UNL     1       7.661   5.379  13.742  0.00  0.00    +0.000 NA
ATOM     21  C   UNL     1       7.586   5.587  15.080  0.00  0.00    +0.000 A 
ATOM     22  H   UNL     1       6.789   3.125  11.745  0.00  0.00    +0.000 HD
ATOM     23  H   UNL     1       7.856   4.461  11.516  0.00  0.00    +0.000 HD
ENDBRANCH   5  15
TORSDOF 2
ENDMDL
MODEL 4
REMARK VINA RESULT:      -7.4      0.066      1.015
REMARK  Name = 
REMARK  3 active torsions:
REMARK  status: ('A' for Active; 'I' for Inactive)
REMARK    1  A    between atoms: C_1  and  C_2
REMARK    2  A    between atoms: C_7  and  N_8
REMARK    3  A    between atoms: C_12  and  C_13
REMARK                            x       y       z     vdW  Elec       q    Type
REMARK                         _______ _______ _______ _____ _____    ______ ____
ROOT
ATOM      1  N   UNL     1       5.867   4.512  18.218  0.00  0.00    +0.000 N 
ATOM      2  N   UNL     1       6.116   4.864  19.497  0.00  0.00    +0.000 NA
ATOM      3  C   UNL     1       7.207   5.618  19.436  0.00  0.00    +0.000 A 
ATOM      4  C   UNL     1       7.703   5.708  18.131  0.00  0.00    +0.000 A 
ATOM      5  C   UNL     1       6.837   4.973  17.332  0.00  0.00    +0.000 A 
ENDROOT
BRANCH   1  12
ATOM      6  C   UNL     1       1.296   2.603  21.676  0.00  0.00    +0.000 C 
ATOM      7  C   UNL     1       1.398   3.757  20.710  0.00  0.00    +0.000 C 
ATOM      8  O   UNL     1       0.441   4.514  20.554  0.00  0.00    +0.000 OA
ATOM      9  N   UNL     1       2.592   3.901  20.019  0.00  0.00    +0.000 N 
ATOM     10  C   UNL     1       2.793   5.078  19.177  0.00  0.00    +0.000 C 
ATOM     11  C   UNL     1       3.377   4.685  17.820  0.00  0.00    +0.000 C 
ATOM     12  C   UNL     1       4.626   3.786  17.933  0.00  0.00    +0.000 C 
ATOM     13  C   UNL     1       4.379   2.642  18.930  0.00  0.00    +0.000 C 
ATOM     14  C   UNL     1       3.782   3.100  20.248  0.00  0.00    +0.000 C 
ENDBRANCH   1  12
BRANCH   5  15
ATOM     15  C   UNL     1       6.903   4.770  15.877  0.00  0.00    +0.000 A 
ATOM     16  C   UNL     1       7.669   5.505  14.997  0.00  0.00    +0.000 A 
ATOM     17  N   UNL     1       7.729   5.326  13.663  0.00  0.00    +0.000 NA
ATOM     18  C   UNL     1       6.974   4.351  13.168  0.00  0.00    +0.000 A 
ATOM     19  N   UNL     1       7.023   4.166  11.805  0.00  0.00    +0.000 N 
ATOM     20  N   UNL     1       6.149   3.594  13.892  0.00  0.00    +0.000 NA
ATOM     21  C   UNL     1       6.139   3.818  15.230  0.00  0.00    +0.000 A 
ATOM     22  H   UNL     1       7.336   5.020  11.364  0.00  0.00    +0.000 HD
ATOM     23  H   UNL     1       6.154   3.768  11.483  0.00  0.00    +0.000 HD
ENDBRANCH   5  15
TORSDOF 2
ENDMDL
MODEL 5
REMARK VINA RESULT:      -7.4      2.931      7.067
REMARK  Name = 
REMARK  3 active torsions:
REMARK  status: ('A' for Active; 'I' for Inactive)
REMARK    1  A    between atoms: C_1  and  C_2
REMARK    2  A    between atoms: C_7  and  N_8
REMARK    3  A    between atoms: C_12  and  C_13
REMARK                            x       y       z     vdW  Elec       q    Type
REMARK                         _______ _______ _______ _____ _____    ______ ____
ROOT
ATOM      1  N   UNL     1       3.757   6.214  18.155  0.00  0.00    +0.000 N 
ATOM      2  N   UNL     1       3.830   7.381  17.481  0.00  0.00    +0.000 NA
ATOM      3  C   UNL     1       2.804   8.096  17.926  0.00  0.00    +0.000 A 
ATOM      4  C   UNL     1       2.029   7.375  18.842  0.00  0.00    +0.000 A 
ATOM      5  C   UNL     1       2.642   6.138  18.985  0.00  0.00    +0.000 A 
ENDROOT
BRANCH   1  12
ATOM      6  C   UNL     1       6.480   3.828  13.319  0.00  0.00    +0.000 C 
ATOM      7  C   UNL     1       6.930   4.890  14.290  0.00  0.00    +0.000 C 
ATOM      8  O   UNL     1       8.016   5.445  14.134  0.00  0.00    +0.000 OA
ATOM      9  N   UNL     1       6.079   5.185  15.345  0.00  0.00    +0.000 N 
ATOM     10  C   UNL     1       6.402   6.299  16.234  0.00  0.00    +0.000 C 
ATOM     11  C   UNL     1       6.223   5.899  17.698  0.00  0.00    +0.000 C 
ATOM     12  C   UNL     1       4.852   5.254  17.990  0.00  0.00    +0.000 C 
ATOM     13  C   UNL     1       4.528   4.178  16.940  0.00  0.00    +0.000 C 
ATOM     14  C   UNL     1       4.745   4.635  15.510  0.00  0.00    +0.000 C 
ENDBRANCH   1  12
BRANCH   5  15
ATOM     15  C   UNL     1       2.233   5.021  19.850  0.00  0.00    +0.000 A 
ATOM     16  C   UNL     1       1.359   4.013  19.501  0.00  0.00    +0.000 A 
ATOM     17  N   UNL     1       0.978   2.991  20.291  0.00  0.00    +0.000 NA
ATOM     18  C   UNL     1       1.497   2.969  21.514  0.00  0.00    +0.000 A 
ATOM     19  N   UNL     1       1.108   1.932  22.331  0.00  0.00    +0.000 N 
ATOM     20  N   UNL     1       2.315   3.902  22.002  0.00  0.00    +0.000 NA
ATOM     21  C   UNL     1       2.668   4.902  21.156  0.00  0.00    +0.000 A 
ATOM     22  H   UNL     1       0.224   1.566  22.004  0.00  0.00    +0.000 HD
ATOM     23  H   UNL     1       1.164   2.219  23.296  0.00  0.00    +0.000 HD
ENDBRANCH   5  15
TORSDOF 2
ENDMDL
MODEL 6
REMARK VINA RESULT:      -7.4      0.998      1.613
REMARK  Name = 
REMARK  3 active torsions:
REMARK  status: ('A' for Active; 'I' for Inactive)
REMARK    1  A    between atoms: C_1  and  C_2
REMARK    2  A    between atoms: C_7  and  N_8
REMARK    3  A    between atoms: C_12  and  C_13
REMARK                            x       y       z     vdW  Elec       q    Type
REMARK                         _______ _______ _______ _____ _____    ______ ____
ROOT
ATOM      1  N   UNL     1       5.722   5.393  18.181  0.00  0.00    +0.000 N 
ATOM      2  N   UNL     1       6.049   5.577  19.477  0.00  0.00    +0.000 NA
ATOM      3  C   UNL     1       7.370   5.446  19.517  0.00  0.00    +0.000 A 
ATOM      4  C   UNL     1       7.895   5.116  18.262  0.00  0.00    +0.000 A 
ATOM      5  C   UNL     1       6.819   5.067  17.388  0.00  0.00    +0.000 A 
ENDROOT
BRANCH   1  12
ATOM      6  C   UNL     1       0.623   2.241  18.934  0.00  0.00    +0.000 C 
ATOM      7  C   UNL     1       1.130   3.489  19.612  0.00  0.00    +0.000 C 
ATOM      8  O   UNL     1       0.470   4.013  20.507  0.00  0.00    +0.000 OA
ATOM      9  N   UNL     1       2.340   4.004  19.169  0.00  0.00    +0.000 N 
ATOM     10  C   UNL     1       2.941   5.128  19.882  0.00  0.00    +0.000 C 
ATOM     11  C   UNL     1       3.435   6.193  18.903  0.00  0.00    +0.000 C 
ATOM     12  C   UNL     1       4.330   5.623  17.783  0.00  0.00    +0.000 C 
ATOM     13  C   UNL     1       3.688   4.369  17.166  0.00  0.00    +0.000 C 
ATOM     14  C   UNL     1       3.203   3.363  18.193  0.00  0.00    +0.000 C 
ENDBRANCH   1  12
BRANCH   5  15
ATOM     15  C   UNL     1       6.838   4.783  15.945  0.00  0.00    +0.000 A 
ATOM     16  C   UNL     1       7.448   5.560  14.982  0.00  0.00    +0.000 A 
ATOM     17  N   UNL     1       7.465   5.307  13.659  0.00  0.00    +0.000 NA
ATOM     18  C   UNL     1       6.831   4.208  13.264  0.00  0.00    +0.000 A 
ATOM     19  N   UNL     1       6.837   3.945  11.913  0.00  0.00    +0.000 N 
ATOM     20  N   UNL     1       6.159   3.391  14.077  0.00  0.00    +0.000 NA
ATOM     21  C   UNL     1       6.185   3.695  15.398  0.00  0.00    +0.000 A 
ATOM     22  H   UNL     1       7.003   4.804  11.407  0.00  0.00    +0.000 HD
ATOM     23  H   UNL     1       6.017   3.412  11.665  0.00  0.00    +0.000 HD
ENDBRANCH   5  15
TORSDOF 2
ENDMDL
MODEL 7
REMARK VINA RESULT:      -7.2      2.403      3.879
REMARK  Name = 
REMARK  3 active torsions:
REMARK  status: ('A' for Active; 'I' for Inactive)
REMARK    1  A    between atoms: C_1  and  C_2
REMARK    2  A    between atoms: C_7  and  N_8
REMARK    3  A    between atoms: C_12  and  C_13
REMARK                            x       y       z     vdW  Elec       q    Type
REMARK                         _______ _______ _______ _____ _____    ______ ____
ROOT
ATOM      1  N   UNL     1       3.679   4.072  18.658  0.00  0.00    +0.000 N 
ATOM      2  N   UNL     1       2.734   3.323  19.263  0.00  0.00    +0.000 NA
ATOM      3  C   UNL     1       2.688   2.199  18.560  0.00  0.00    +0.000 A 
ATOM      4  C   UNL     1       3.557   2.238  17.463  0.00  0.00    +0.000 A 
ATOM      5  C   UNL     1       4.197   3.468  17.516  0.00  0.00    +0.000 A 
ENDROOT
BRANCH   1  12
ATOM      6  C   UNL     1       1.922   9.806  17.929  0.00  0.00    +0.000 C 
ATOM      7  C   UNL     1       1.621   8.805  19.015  0.00  0.00    +0.000 C 
ATOM      8  O   UNL     1       0.874   9.110  19.942  0.00  0.00    +0.000 OA
ATOM      9  N   UNL     1       2.230   7.562  18.917  0.00  0.00    +0.000 N 
ATOM     10  C   UNL     1       1.866   6.512  19.865  0.00  0.00    +0.000 C 
ATOM     11  C   UNL     1       3.112   5.809  20.405  0.00  0.00    +0.000 C 
ATOM     12  C   UNL     1       4.072   5.333  19.295  0.00  0.00    +0.000 C 
ATOM     13  C   UNL     1       4.308   6.454  18.269  0.00  0.00    +0.000 C 
ATOM     14  C   UNL     1       3.032   7.121  17.789  0.00  0.00    +0.000 C 
ENDBRANCH   1  12
BRANCH   5  15
ATOM     15  C   UNL     1       5.223   3.993  16.602  0.00  0.00    +0.000 A 
ATOM     16  C   UNL     1       6.548   4.211  16.921  0.00  0.00    +0.000 A 
ATOM     17  N   UNL     1       7.489   4.696  16.088  0.00  0.00    +0.000 NA
ATOM     18  C   UNL     1       7.089   4.988  14.855  0.00  0.00    +0.000 A 
ATOM     19  N   UNL     1       8.044   5.490  14.000  0.00  0.00    +0.000 N 
ATOM     20  N   UNL     1       5.833   4.874  14.424  0.00  0.00    +0.000 NA
ATOM     21  C   UNL     1       4.932   4.373  15.306  0.00  0.00    +0.000 A 
ATOM     22  H   UNL     1       8.795   5.895  14.542  0.00  0.00    +0.000 HD
ATOM     23  H   UNL     1       7.605   6.075  13.305  0.00  0.00    +0.000 HD
ENDBRANCH   5  15
TORSDOF 2
ENDMDL
MODEL 8
REMARK VINA RESULT:      -7.1      2.404      3.829
REMARK  Name = 
REMARK  3 active torsions:
REMARK  status: ('A' for Active; 'I' for Inactive)
REMARK    1  A    between atoms: C_1  and  C_2
REMARK    2  A    between atoms: C_7  and  N_8
REMARK    3  A    between atoms: C_12  and  C_13
REMARK                            x       y       z     vdW  Elec       q    Type
REMARK                         _______ _______ _______ _____ _____    ______ ____
ROOT
ATOM      1  N   UNL     1       3.679   4.072  18.658  0.00  0.00    +0.000 N 
ATOM      2  N   UNL     1       2.753   3.312  19.277  0.00  0.00    +0.000 NA
ATOM      3  C   UNL     1       2.704   2.190  18.570  0.00  0.00    +0.000 A 
ATOM      4  C   UNL     1       3.552   2.242  17.457  0.00  0.00    +0.000 A 
ATOM      5  C   UNL     1       4.182   3.478  17.504  0.00  0.00    +0.000 A 
ENDROOT
BRANCH   1  12
ATOM      6  C   UNL     1       1.917   9.804  17.925  0.00  0.00    +0.000 C 
ATOM      7  C   UNL     1       1.618   8.804  19.013  0.00  0.00    +0.000 C 
ATOM      8  O   UNL     1       0.872   9.109  19.941  0.00  0.00    +0.000 OA
ATOM      9  N   UNL     1       2.228   7.561  18.916  0.00  0.00    +0.000 N 
ATOM     10  C   UNL     1       1.866   6.511  19.865  0.00  0.00    +0.000 C 
ATOM     11  C   UNL     1       3.112   5.810  20.405  0.00  0.00    +0.000 C 
ATOM     12  C   UNL     1       4.072   5.334  19.294  0.00  0.00    +0.000 C 
ATOM     13  C   UNL     1       4.305   6.454  18.267  0.00  0.00    +0.000 C 
ATOM     14  C   UNL     1       3.029   7.119  17.787  0.00  0.00    +0.000 C 
ENDBRANCH   1  12
BRANCH   5  15
ATOM     15  C   UNL     1       5.185   4.017  16.573  0.00  0.00    +0.000 A 
ATOM     16  C   UNL     1       4.955   4.368  15.258  0.00  0.00    +0.000 A 
ATOM     17  N   UNL     1       5.871   4.857  14.401  0.00  0.00    +0.000 NA
ATOM     18  C   UNL     1       7.102   5.005  14.879  0.00  0.00    +0.000 A 
ATOM     19  N   UNL     1       8.047   5.498  14.008  0.00  0.00    +0.000 N 
ATOM     20  N   UNL     1       7.478   4.663  16.112  0.00  0.00    +0.000 NA
ATOM     21  C   UNL     1       6.509   4.183  16.930  0.00  0.00    +0.000 A 
ATOM     22  H   UNL     1       7.746   5.325  13.059  0.00  0.00    +0.000 HD
ATOM     23  H   UNL     1       8.961   5.166  14.273  0.00  0.00    +0.000 HD
ENDBRANCH   5  15
TORSDOF 2
ENDMDL
MODEL 9
REMARK VINA RESULT:      -7.1      2.344      3.989
REMARK  Name = 
REMARK  3 active torsions:
REMARK  status: ('A' for Active; 'I' for Inactive)
REMARK    1  A    between atoms: C_1  and  C_2
REMARK    2  A    between atoms: C_7  and  N_8
REMARK    3  A    between atoms: C_12  and  C_13
REMARK                            x       y       z     vdW  Elec       q    Type
REMARK                         _______ _______ _______ _____ _____    ______ ____
ROOT
ATOM      1  N   UNL     1       5.060   5.075  16.963  0.00  0.00    +0.000 N 
ATOM      2  N   UNL     1       4.675   4.039  16.189  0.00  0.00    +0.000 NA
ATOM      3  C   UNL     1       5.773   3.674  15.538  0.00  0.00    +0.000 A 
ATOM      4  C   UNL     1       6.856   4.507  15.841  0.00  0.00    +0.000 A 
ATOM      5  C   UNL     1       6.390   5.434  16.763  0.00  0.00    +0.000 A 
ENDROOT
BRANCH   1  12
ATOM      6  C   UNL     1       0.720   2.556  20.327  0.00  0.00    +0.000 C 
ATOM      7  C   UNL     1       2.086   3.077  20.694  0.00  0.00    +0.000 C 
ATOM      8  O   UNL     1       2.485   2.992  21.854  0.00  0.00    +0.000 OA
ATOM      9  N   UNL     1       2.838   3.654  19.681  0.00  0.00    +0.000 N 
ATOM     10  C   UNL     1       4.218   4.049  19.952  0.00  0.00    +0.000 C 
ATOM     11  C   UNL     1       4.504   5.446  19.401  0.00  0.00    +0.000 C 
ATOM     12  C   UNL     1       4.092   5.614  17.924  0.00  0.00    +0.000 C 
ATOM     13  C   UNL     1       2.676   5.063  17.693  0.00  0.00    +0.000 C 
ATOM     14  C   UNL     1       2.455   3.681  18.280  0.00  0.00    +0.000 C 
ENDBRANCH   1  12
BRANCH   5  15
ATOM     15  C   UNL     1       7.142   6.517  17.415  0.00  0.00    +0.000 A 
ATOM     16  C   UNL     1       7.898   6.392  18.563  0.00  0.00    +0.000 A 
ATOM     17  N   UNL     1       8.585   7.382  19.165  0.00  0.00    +0.000 NA
ATOM     18  C   UNL     1       8.514   8.579  18.593  0.00  0.00    +0.000 A 
ATOM     19  N   UNL     1       9.207   9.597  19.206  0.00  0.00    +0.000 N 
ATOM     20  N   UNL     1       7.785   8.855  17.511  0.00  0.00    +0.000 NA
ATOM     21  C   UNL     1       7.122   7.816  16.945  0.00  0.00    +0.000 A 
ATOM     22  H   UNL     1       9.355   9.361  20.178  0.00  0.00    +0.000 HD
ATOM     23  H   UNL     1       8.764  10.481  19.006  0.00  0.00    +0.000 HD
ENDBRANCH   5  15
TORSDOF 2
ENDMDL
