MODEL 1
REMARK VINA RESULT:      -8.1      0.000      0.000
REMARK  Name = 
REMARK  5 active torsions:
REMARK  status: ('A' for Active; 'I' for Inactive)
REMARK    1  A    between atoms: C_1  and  C_2
REMARK    2  A    between atoms: C_2  and  C_3
REMARK    3  A    between atoms: C_3  and  C_4
REMARK    4  A    between atoms: C_4  and  C_5
REMARK    5  A    between atoms: C_14  and  C_16
REMARK                            x       y       z     vdW  Elec       q    Type
REMARK                         _______ _______ _______ _____ _____    ______ ____
ROOT
ATOM      1  C   UNL     1       1.501   7.829  20.548  0.00  0.00    +0.000 A 
ATOM      2  N   UNL     1       0.572   8.490  21.222  0.00  0.00    +0.000 NA
ATOM      3  C   UNL     1       0.372   9.689  20.592  0.00  0.00    +0.000 A 
ATOM      4  C   UNL     1      -0.453  10.743  20.963  0.00  0.00    +0.000 A 
ATOM      5  C   UNL     1      -0.390  11.933  20.234  0.00  0.00    +0.000 A 
ATOM      6  C   UNL     1       0.495  12.044  19.164  0.00  0.00    +0.000 A 
ATOM      7  C   UNL     1       1.282  10.950  18.751  0.00  0.00    +0.000 A 
ATOM      8  C   UNL     1       1.177   9.738  19.461  0.00  0.00    +0.000 A 
ATOM      9  N   UNL     1       1.706   8.422  19.295  0.00  0.00    +0.000 N 
ATOM     10  C   UNL     1       2.296   7.941  18.091  0.00  0.00    +0.000 C 
ATOM     11  O   UNL     1       2.200   8.720  17.133  0.00  0.00    +0.000 OA
ENDROOT
BRANCH  10  12
ATOM     12  C   UNL     1       3.194   6.778  17.798  0.00  0.00    +0.000 A 
ATOM     13  C   UNL     1       4.401   7.277  17.277  0.00  0.00    +0.000 A 
ATOM     14  C   UNL     1       5.237   6.426  16.589  0.00  0.00    +0.000 A 
ATOM     15  C   UNL     1       5.307   5.124  17.012  0.00  0.00    +0.000 A 
ATOM     16  C   UNL     1       4.149   4.550  17.504  0.00  0.00    +0.000 A 
ATOM     17  C   UNL     1       4.175   3.155  17.570  0.00  0.00    +0.000 A 
ATOM     18  C   UNL     1       2.998   2.432  17.642  0.00  0.00    +0.000 A 
ATOM     19  C   UNL     1       1.791   3.126  17.675  0.00  0.00    +0.000 A 
ATOM     20  C   UNL     1       1.777   4.544  17.771  0.00  0.00    +0.000 A 
ATOM     21  C   UNL     1       2.975   5.335  17.734  0.00  0.00    +0.000 A 
ENDBRANCH  10  12
BRANCH   1  22
ATOM     22  C   UNL     1       2.082   6.579  21.143  0.00  0.00    +0.000 C 
BRANCH  22  23
ATOM     23  C   UNL     1       1.444   5.246  20.851  0.00  0.00    +0.000 C 
BRANCH  23  25
ATOM     24  C   UNL     1       1.322   2.796  21.390  0.00  0.00    +0.000 C 
ATOM     25  C   UNL     1       2.252   4.005  21.272  0.00  0.00    +0.000 C 
ENDBRANCH  23  25
ENDBRANCH  22  23
ENDBRANCH   1  22
TORSDOF 4
ENDMDL
MODEL 2
REMARK VINA RESULT:      -7.9      3.626      7.518
REMARK  Name = 
REMARK  5 active torsions:
REMARK  status: ('A' for Active; 'I' for Inactive)
REMARK    1  A    between atoms: C_1  and  C_2
REMARK    2  A    between atoms: C_2  and  C_3
REMARK    3  A    between atoms: C_3  and  C_4
REMARK    4  A    between atoms: C_4  and  C_5
REMARK    5  A    between atoms: C_14  and  C_16
REMARK                            x       y       z     vdW  Elec       q    Type
REMARK                         _______ _______ _______ _____ _____    ______ ____
ROOT
ATOM      1  C   UNL     1       6.831   4.717  16.422  0.00  0.00    +0.000 A 
ATOM      2  N   UNL     1       7.666   5.231  15.532  0.00  0.00    +0.000 NA
ATOM      3  C   UNL     1       7.241   4.845  14.289  0.00  0.00    +0.000 A 
ATOM      4  C   UNL     1       7.828   5.082  13.052  0.00  0.00    +0.000 A 
ATOM      5  C   UNL     1       7.284   4.468  11.922  0.00  0.00    +0.000 A 
ATOM      6  C   UNL     1       6.178   3.630  12.053  0.00  0.00    +0.000 A 
ATOM      7  C   UNL     1       5.546   3.446  13.300  0.00  0.00    +0.000 A 
ATOM      8  C   UNL     1       6.071   4.107  14.427  0.00  0.00    +0.000 A 
ATOM      9  N   UNL     1       5.670   4.254  15.788  0.00  0.00    +0.000 N 
ATOM     10  C   UNL     1       4.365   3.955  16.276  0.00  0.00    +0.000 C 
ATOM     11  O   UNL     1       3.546   3.672  15.392  0.00  0.00    +0.000 OA
ENDROOT
BRANCH  10  12
ATOM     12  C   UNL     1       3.833   3.704  17.654  0.00  0.00    +0.000 A 
ATOM     13  C   UNL     1       3.803   2.314  17.866  0.00  0.00    +0.000 A 
ATOM     14  C   UNL     1       3.024   1.807  18.883  0.00  0.00    +0.000 A 
ATOM     15  C   UNL     1       2.913   2.549  20.030  0.00  0.00    +0.000 A 
ATOM     16  C   UNL     1       2.896   3.926  19.899  0.00  0.00    +0.000 A 
ATOM     17  C   UNL     1       2.419   4.610  21.019  0.00  0.00    +0.000 A 
ATOM     18  C   UNL     1       1.963   5.911  20.907  0.00  0.00    +0.000 A 
ATOM     19  C   UNL     1       2.017   6.532  19.661  0.00  0.00    +0.000 A 
ATOM     20  C   UNL     1       2.651   5.889  18.563  0.00  0.00    +0.000 A 
ATOM     21  C   UNL     1       3.170   4.553  18.642  0.00  0.00    +0.000 A 
ENDBRANCH  10  12
BRANCH   1  22
ATOM     22  C   UNL     1       7.185   4.790  17.879  0.00  0.00    +0.000 C 
BRANCH  22  23
ATOM     23  C   UNL     1       6.963   6.071  18.639  0.00  0.00    +0.000 C 
BRANCH  23  25
ATOM     24  C   UNL     1       7.785   8.217  17.624  0.00  0.00    +0.000 C 
ATOM     25  C   UNL     1       8.119   7.087  18.600  0.00  0.00    +0.000 C 
ENDBRANCH  23  25
ENDBRANCH  22  23
ENDBRANCH   1  22
TORSDOF 4
ENDMDL
MODEL 3
REMARK VINA RESULT:      -7.6      1.820      6.095
REMARK  Name = 
REMARK  5 active torsions:
REMARK  status: ('A' for Active; 'I' for Inactive)
REMARK    1  A    between atoms: C_1  and  C_2
REMARK    2  A    between atoms: C_2  and  C_3
REMARK    3  A    between atoms: C_3  and  C_4
REMARK    4  A    between atoms: C_4  and  C_5
REMARK    5  A    between atoms: C_14  and  C_16
REMARK                            x       y       z     vdW  Elec       q    Type
REMARK                         _______ _______ _______ _____ _____    ______ ____
ROOT
ATOM      1  C   UNL     1       3.085   5.754  19.500  0.00  0.00    +0.000 A 
ATOM      2  N   UNL     1       4.095   4.898  19.472  0.00  0.00    +0.000 NA
ATOM      3  C   UNL     1       4.796   5.117  18.317  0.00  0.00    +0.000 A 
ATOM      4  C   UNL     1       5.893   4.427  17.816  0.00  0.00    +0.000 A 
ATOM      5  C   UNL     1       6.360   4.745  16.539  0.00  0.00    +0.000 A 
ATOM      6  C   UNL     1       5.722   5.734  15.793  0.00  0.00    +0.000 A 
ATOM      7  C   UNL     1       4.652   6.477  16.331  0.00  0.00    +0.000 A 
ATOM      8  C   UNL     1       4.217   6.183  17.638  0.00  0.00    +0.000 A 
ATOM      9  N   UNL     1       3.273   6.758  18.541  0.00  0.00    +0.000 N 
ATOM     10  C   UNL     1       2.709   8.059  18.390  0.00  0.00    +0.000 C 
ATOM     11  O   UNL     1       3.203   8.721  17.468  0.00  0.00    +0.000 OA
ENDROOT
BRANCH  10  12
ATOM     12  C   UNL     1       1.495   8.710  18.980  0.00  0.00    +0.000 A 
ATOM     13  C   UNL     1       0.785   9.336  17.941  0.00  0.00    +0.000 A 
ATOM     14  C   UNL     1      -0.145  10.302  18.252  0.00  0.00    +0.000 A 
ATOM     15  C   UNL     1      -0.870  10.141  19.404  0.00  0.00    +0.000 A 
ATOM     16  C   UNL     1      -0.227   9.566  20.485  0.00  0.00    +0.000 A 
ATOM     17  C   UNL     1      -0.866   9.758  21.712  0.00  0.00    +0.000 A 
ATOM     18  C   UNL     1      -0.172   9.613  22.899  0.00  0.00    +0.000 A 
ATOM     19  C   UNL     1       1.170   9.244  22.844  0.00  0.00    +0.000 A 
ATOM     20  C   UNL     1       1.771   8.892  21.605  0.00  0.00    +0.000 A 
ATOM     21  C   UNL     1       1.078   8.994  20.351  0.00  0.00    +0.000 A 
ENDBRANCH  10  12
BRANCH   1  22
ATOM     22  C   UNL     1       2.019   5.587  20.543  0.00  0.00    +0.000 C 
BRANCH  22  23
ATOM     23  C   UNL     1       0.846   4.682  20.275  0.00  0.00    +0.000 C 
BRANCH  23  25
ATOM     24  C   UNL     1       1.943   2.941  21.716  0.00  0.00    +0.000 C 
ATOM     25  C   UNL     1       1.101   3.175  20.460  0.00  0.00    +0.000 C 
ENDBRANCH  23  25
ENDBRANCH  22  23
ENDBRANCH   1  22
TORSDOF 4
ENDMDL
MODEL 4
REMARK VINA RESULT:      -7.4      3.401      7.541
REMARK  Name = 
REMARK  5 active torsions:
REMARK  status: ('A' for Active; 'I' for Inactive)
REMARK    1  A    between atoms: C_1  and  C_2
REMARK    2  A    between atoms: C_2  and  C_3
REMARK    3  A    between atoms: C_3  and  C_4
REMARK    4  A    between atoms: C_4  and  C_5
REMARK    5  A    between atoms: C_14  and  C_16
REMARK                            x       y       z     vdW  Elec       q    Type
REMARK                         _______ _______ _______ _____ _____    ______ ____
ROOT
ATOM      1  C   UNL     1       6.661   5.533  16.483  0.00  0.00    +0.000 A 
ATOM      2  N   UNL     1       7.507   5.929  15.544  0.00  0.00    +0.000 NA
ATOM      3  C   UNL     1       7.219   5.232  14.401  0.00  0.00    +0.000 A 
ATOM      4  C   UNL     1       7.872   5.255  13.176  0.00  0.00    +0.000 A 
ATOM      5  C   UNL     1       7.480   4.348  12.189  0.00  0.00    +0.000 A 
ATOM      6  C   UNL     1       6.456   3.440  12.449  0.00  0.00    +0.000 A 
ATOM      7  C   UNL     1       5.752   3.465  13.670  0.00  0.00    +0.000 A 
ATOM      8  C   UNL     1       6.121   4.414  14.642  0.00  0.00    +0.000 A 
ATOM      9  N   UNL     1       5.603   4.813  15.912  0.00  0.00    +0.000 N 
ATOM     10  C   UNL     1       4.301   4.482  16.386  0.00  0.00    +0.000 C 
ATOM     11  O   UNL     1       3.584   3.919  15.548  0.00  0.00    +0.000 OA
ENDROOT
BRANCH  10  12
ATOM     12  C   UNL     1       3.692   4.483  17.755  0.00  0.00    +0.000 A 
ATOM     13  C   UNL     1       3.534   3.148  18.165  0.00  0.00    +0.000 A 
ATOM     14  C   UNL     1       2.672   2.863  19.201  0.00  0.00    +0.000 A 
ATOM     15  C   UNL     1       2.578   3.774  20.220  0.00  0.00    +0.000 A 
ATOM     16  C   UNL     1       2.686   5.112  19.889  0.00  0.00    +0.000 A 
ATOM     17  C   UNL     1       2.224   5.993  20.870  0.00  0.00    +0.000 A 
ATOM     18  C   UNL     1       1.888   7.295  20.546  0.00  0.00    +0.000 A 
ATOM     19  C   UNL     1       2.047   7.715  19.228  0.00  0.00    +0.000 A 
ATOM     20  C   UNL     1       2.669   6.867  18.271  0.00  0.00    +0.000 A 
ATOM     21  C   UNL     1       3.065   5.520  18.571  0.00  0.00    +0.000 A 
ENDBRANCH  10  12
BRANCH   1  22
ATOM     22  C   UNL     1       6.893   5.966  17.901  0.00  0.00    +0.000 C 
BRANCH  22  23
ATOM     23  C   UNL     1       7.957   6.988  18.206  0.00  0.00    +0.000 C 
BRANCH  23  25
ATOM     24  C   UNL     1       8.584   9.412  18.410  0.00  0.00    +0.000 C 
ATOM     25  C   UNL     1       7.705   8.406  17.662  0.00  0.00    +0.000 C 
ENDBRANCH  23  25
ENDBRANCH  22  23
ENDBRANCH   1  22
TORSDOF 4
ENDMDL
MODEL 5
REMARK VINA RESULT:      -7.3      3.569      7.290
REMARK  Name = 
REMARK  5 active torsions:
REMARK  status: ('A' for Active; 'I' for Inactive)
REMARK    1  A    between atoms: C_1  and  C_2
REMARK    2  A    between atoms: C_2  and  C_3
REMARK    3  A    between atoms: C_3  and  C_4
REMARK    4  A    between atoms: C_4  and  C_5
REMARK    5  A    between atoms: C_14  and  C_16
REMARK                            x       y       z     vdW  Elec       q    Type
REMARK                         _______ _______ _______ _____ _____    ______ ____
ROOT
ATOM      1  C   UNL     1       6.542   5.602  16.665  0.00  0.00    +0.000 A 
ATOM      2  N   UNL     1       7.422   5.900  15.722  0.00  0.00    +0.000 NA
ATOM      3  C   UNL     1       7.095   5.184  14.603  0.00  0.00    +0.000 A 
ATOM      4  C   UNL     1       7.759   5.114  13.385  0.00  0.00    +0.000 A 
ATOM      5  C   UNL     1       7.311   4.201  12.427  0.00  0.00    +0.000 A 
ATOM      6  C   UNL     1       6.221   3.380  12.709  0.00  0.00    +0.000 A 
ATOM      7  C   UNL     1       5.510   3.501  13.920  0.00  0.00    +0.000 A 
ATOM      8  C   UNL     1       5.938   4.458  14.861  0.00  0.00    +0.000 A 
ATOM      9  N   UNL     1       5.440   4.940  16.108  0.00  0.00    +0.000 N 
ATOM     10  C   UNL     1       4.112   4.722  16.579  0.00  0.00    +0.000 C 
ATOM     11  O   UNL     1       3.364   4.181  15.754  0.00  0.00    +0.000 OA
ENDROOT
BRANCH  10  12
ATOM     12  C   UNL     1       3.493   4.818  17.940  0.00  0.00    +0.000 A 
ATOM     13  C   UNL     1       3.075   6.146  18.139  0.00  0.00    +0.000 A 
ATOM     14  C   UNL     1       2.821   6.584  19.419  0.00  0.00    +0.000 A 
ATOM     15  C   UNL     1       2.275   5.689  20.302  0.00  0.00    +0.000 A 
ATOM     16  C   UNL     1       2.667   4.368  20.194  0.00  0.00    +0.000 A 
ATOM     17  C   UNL     1       2.384   3.584  21.314  0.00  0.00    +0.000 A 
ATOM     18  C   UNL     1       3.054   2.393  21.529  0.00  0.00    +0.000 A 
ATOM     19  C   UNL     1       3.997   1.981  20.590  0.00  0.00    +0.000 A 
ATOM     20  C   UNL     1       4.164   2.698  19.374  0.00  0.00    +0.000 A 
ATOM     21  C   UNL     1       3.464   3.921  19.093  0.00  0.00    +0.000 A 
ENDBRANCH  10  12
BRANCH   1  22
ATOM     22  C   UNL     1       6.792   6.070  18.069  0.00  0.00    +0.000 C 
BRANCH  22  23
ATOM     23  C   UNL     1       7.891   7.064  18.341  0.00  0.00    +0.000 C 
BRANCH  23  25
ATOM     24  C   UNL     1       8.597   9.475  18.365  0.00  0.00    +0.000 C 
ATOM     25  C   UNL     1       7.761   8.424  17.631  0.00  0.00    +0.000 C 
ENDBRANCH  23  25
ENDBRANCH  22  23
ENDBRANCH   1  22
TORSDOF 4
ENDMDL
MODEL 6
REMARK VINA RESULT:      -7.3      1.028      2.326
REMARK  Name = 
REMARK  5 active torsions:
REMARK  status: ('A' for Active; 'I' for Inactive)
REMARK    1  A    between atoms: C_1  and  C_2
REMARK    2  A    between atoms: C_2  and  C_3
REMARK    3  A    between atoms: C_3  and  C_4
REMARK    4  A    between atoms: C_4  and  C_5
REMARK    5  A    between atoms: C_14  and  C_16
REMARK                            x       y       z     vdW  Elec       q    Type
REMARK                         _______ _______ _______ _____ _____    ______ ____
ROOT
ATOM      1  C   UNL     1       1.698   7.128  20.512  0.00  0.00    +0.000 A 
ATOM      2  N   UNL     1       0.851   7.776  21.297  0.00  0.00    +0.000 NA
ATOM      3  C   UNL     1       0.717   9.048  20.808  0.00  0.00    +0.000 A 
ATOM      4  C   UNL     1      -0.009  10.112  21.327  0.00  0.00    +0.000 A 
ATOM      5  C   UNL     1       0.115  11.366  20.726  0.00  0.00    +0.000 A 
ATOM      6  C   UNL     1       0.961  11.530  19.631  0.00  0.00    +0.000 A 
ATOM      7  C   UNL     1       1.645  10.434  19.068  0.00  0.00    +0.000 A 
ATOM      8  C   UNL     1       1.477   9.163  19.650  0.00  0.00    +0.000 A 
ATOM      9  N   UNL     1       1.897   7.838  19.321  0.00  0.00    +0.000 N 
ATOM     10  C   UNL     1       2.398   7.450  18.044  0.00  0.00    +0.000 C 
ATOM     11  O   UNL     1       2.324   8.334  17.181  0.00  0.00    +0.000 OA
ENDROOT
BRANCH  10  12
ATOM     12  C   UNL     1       3.193   6.265  17.587  0.00  0.00    +0.000 A 
ATOM     13  C   UNL     1       2.346   5.143  17.589  0.00  0.00    +0.000 A 
ATOM     14  C   UNL     1       2.903   3.883  17.573  0.00  0.00    +0.000 A 
ATOM     15  C   UNL     1       4.061   3.708  16.861  0.00  0.00    +0.000 A 
ATOM     16  C   UNL     1       4.963   4.756  16.843  0.00  0.00    +0.000 A 
ATOM     17  C   UNL     1       6.251   4.407  16.433  0.00  0.00    +0.000 A 
ATOM     18  C   UNL     1       7.332   5.212  16.744  0.00  0.00    +0.000 A 
ATOM     19  C   UNL     1       7.103   6.391  17.450  0.00  0.00    +0.000 A 
ATOM     20  C   UNL     1       5.776   6.821  17.724  0.00  0.00    +0.000 A 
ATOM     21  C   UNL     1       4.622   6.034  17.389  0.00  0.00    +0.000 A 
ENDBRANCH  10  12
BRANCH   1  22
ATOM     22  C   UNL     1       2.206   5.783  20.943  0.00  0.00    +0.000 C 
BRANCH  22  23
ATOM     23  C   UNL     1       1.339   4.565  20.764  0.00  0.00    +0.000 C 
BRANCH  23  25
ATOM     24  C   UNL     1       2.969   2.662  20.941  0.00  0.00    +0.000 C 
ATOM     25  C   UNL     1       1.744   3.322  21.577  0.00  0.00    +0.000 C 
ENDBRANCH  23  25
ENDBRANCH  22  23
ENDBRANCH   1  22
TORSDOF 4
ENDMDL
MODEL 7
REMARK VINA RESULT:      -7.2      1.994      6.380
REMARK  Name = 
REMARK  5 active torsions:
REMARK  status: ('A' for Active; 'I' for Inactive)
REMARK    1  A    between atoms: C_1  and  C_2
REMARK    2  A    between atoms: C_2  and  C_3
REMARK    3  A    between atoms: C_3  and  C_4
REMARK    4  A    between atoms: C_4  and  C_5
REMARK    5  A    between atoms: C_14  and  C_16
REMARK                            x       y       z     vdW  Elec       q    Type
REMARK                         _______ _______ _______ _____ _____    ______ ____
ROOT
ATOM      1  C   UNL     1       2.888   4.348  17.742  0.00  0.00    +0.000 A 
ATOM      2  N   UNL     1       3.520   3.329  17.180  0.00  0.00    +0.000 NA
ATOM      3  C   UNL     1       4.534   3.837  16.413  0.00  0.00    +0.000 A 
ATOM      4  C   UNL     1       5.425   3.165  15.585  0.00  0.00    +0.000 A 
ATOM      5  C   UNL     1       6.292   3.912  14.786  0.00  0.00    +0.000 A 
ATOM      6  C   UNL     1       6.246   5.304  14.825  0.00  0.00    +0.000 A 
ATOM      7  C   UNL     1       5.387   5.981  15.715  0.00  0.00    +0.000 A 
ATOM      8  C   UNL     1       4.549   5.220  16.553  0.00  0.00    +0.000 A 
ATOM      9  N   UNL     1       3.650   5.518  17.621  0.00  0.00    +0.000 N 
ATOM     10  C   UNL     1       3.619   6.760  18.319  0.00  0.00    +0.000 C 
ATOM     11  O   UNL     1       4.533   7.536  18.012  0.00  0.00    +0.000 OA
ENDROOT
BRANCH  10  12
ATOM     12  C   UNL     1       2.585   7.404  19.192  0.00  0.00    +0.000 A 
ATOM     13  C   UNL     1       2.407   6.596  20.329  0.00  0.00    +0.000 A 
ATOM     14  C   UNL     1       1.272   6.756  21.093  0.00  0.00    +0.000 A 
ATOM     15  C   UNL     1       0.765   8.023  21.223  0.00  0.00    +0.000 A 
ATOM     16  C   UNL     1       0.869   8.865  20.132  0.00  0.00    +0.000 A 
ATOM     17  C   UNL     1       0.033   9.983  20.178  0.00  0.00    +0.000 A 
ATOM     18  C   UNL     1      -0.279  10.678  19.024  0.00  0.00    +0.000 A 
ATOM     19  C   UNL     1       0.282  10.256  17.820  0.00  0.00    +0.000 A 
ATOM     20  C   UNL     1       1.257   9.222  17.803  0.00  0.00    +0.000 A 
ATOM     21  C   UNL     1       1.637   8.496  18.982  0.00  0.00    +0.000 A 
ENDBRANCH  10  12
BRANCH   1  22
ATOM     22  C   UNL     1       1.592   4.096  18.456  0.00  0.00    +0.000 C 
BRANCH  22  23
ATOM     23  C   UNL     1       1.407   2.825  19.242  0.00  0.00    +0.000 C 
BRANCH  23  25
ATOM     24  C   UNL     1       2.345   3.068  21.560  0.00  0.00    +0.000 C 
ATOM     25  C   UNL     1       1.060   2.998  20.732  0.00  0.00    +0.000 C 
ENDBRANCH  23  25
ENDBRANCH  22  23
ENDBRANCH   1  22
TORSDOF 4
ENDMDL
MODEL 8
REMARK VINA RESULT:      -7.1      1.768      7.118
REMARK  Name = 
REMARK  5 active torsions:
REMARK  status: ('A' for Active; 'I' for Inactive)
REMARK    1  A    between atoms: C_1  and  C_2
REMARK    2  A    between atoms: C_2  and  C_3
REMARK    3  A    between atoms: C_3  and  C_4
REMARK    4  A    between atoms: C_4  and  C_5
REMARK    5  A    between atoms: C_14  and  C_16
REMARK                            x       y       z     vdW  Elec       q    Type
REMARK                         _______ _______ _______ _____ _____    ______ ____
ROOT
ATOM      1  C   UNL     1       1.308   7.822  20.475  0.00  0.00    +0.000 A 
ATOM      2  N   UNL     1       2.016   6.791  20.910  0.00  0.00    +0.000 NA
ATOM      3  C   UNL     1       2.756   6.319  19.861  0.00  0.00    +0.000 A 
ATOM      4  C   UNL     1       3.598   5.215  19.812  0.00  0.00    +0.000 A 
ATOM      5  C   UNL     1       4.146   4.842  18.583  0.00  0.00    +0.000 A 
ATOM      6  C   UNL     1       3.837   5.571  17.436  0.00  0.00    +0.000 A 
ATOM      7  C   UNL     1       3.035   6.728  17.502  0.00  0.00    +0.000 A 
ATOM      8  C   UNL     1       2.526   7.126  18.753  0.00  0.00    +0.000 A 
ATOM      9  N   UNL     1       1.792   8.253  19.232  0.00  0.00    +0.000 N 
ATOM     10  C   UNL     1       1.644   9.476  18.517  0.00  0.00    +0.000 C 
ATOM     11  O   UNL     1       2.319   9.542  17.481  0.00  0.00    +0.000 OA
ENDROOT
BRANCH  10  12
ATOM     12  C   UNL     1       0.678  10.614  18.647  0.00  0.00    +0.000 A 
ATOM     13  C   UNL     1      -0.611  10.129  18.363  0.00  0.00    +0.000 A 
ATOM     14  C   UNL     1      -1.610  11.024  18.049  0.00  0.00    +0.000 A 
ATOM     15  C   UNL     1      -1.598  12.239  18.683  0.00  0.00    +0.000 A 
ATOM     16  C   UNL     1      -0.365  12.800  18.962  0.00  0.00    +0.000 A 
ATOM     17  C   UNL     1      -0.400  14.164  19.258  0.00  0.00    +0.000 A 
ATOM     18  C   UNL     1       0.742  14.937  19.156  0.00  0.00    +0.000 A 
ATOM     19  C   UNL     1       1.932  14.320  18.779  0.00  0.00    +0.000 A 
ATOM     20  C   UNL     1       1.998  12.907  18.636  0.00  0.00    +0.000 A 
ATOM     21  C   UNL     1       0.845  12.061  18.767  0.00  0.00    +0.000 A 
ENDBRANCH  10  12
BRANCH   1  22
ATOM     22  C   UNL     1       0.235   8.393  21.355  0.00  0.00    +0.000 C 
BRANCH  22  23
ATOM     23  C   UNL     1       0.599   9.387  22.427  0.00  0.00    +0.000 C 
BRANCH  23  25
ATOM     24  C   UNL     1      -0.880  11.417  22.350  0.00  0.00    +0.000 C 
ATOM     25  C   UNL     1      -0.579  10.116  23.099  0.00  0.00    +0.000 C 
ENDBRANCH  23  25
ENDBRANCH  22  23
ENDBRANCH   1  22
TORSDOF 4
ENDMDL
MODEL 9
REMARK VINA RESULT:      -7.0      2.061      6.719
REMARK  Name = 
REMARK  5 active torsions:
REMARK  status: ('A' for Active; 'I' for Inactive)
REMARK    1  A    between atoms: C_1  and  C_2
REMARK    2  A    between atoms: C_2  and  C_3
REMARK    3  A    between atoms: C_3  and  C_4
REMARK    4  A    between atoms: C_4  and  C_5
REMARK    5  A    between atoms: C_14  and  C_16
REMARK                            x       y       z     vdW  Elec       q    Type
REMARK                         _______ _______ _______ _____ _____    ______ ____
ROOT
ATOM      1  C   UNL     1       2.234   6.908  19.789  0.00  0.00    +0.000 A 
ATOM      2  N   UNL     1       3.212   6.044  20.013  0.00  0.00    +0.000 NA
ATOM      3  C   UNL     1       3.992   5.995  18.889  0.00  0.00    +0.000 A 
ATOM      4  C   UNL     1       5.092   5.189  18.623  0.00  0.00    +0.000 A 
ATOM      5  C   UNL     1       5.650   5.217  17.343  0.00  0.00    +0.000 A 
ATOM      6  C   UNL     1       5.097   6.037  16.362  0.00  0.00    +0.000 A 
ATOM      7  C   UNL     1       4.022   6.901  16.656  0.00  0.00    +0.000 A 
ATOM      8  C   UNL     1       3.496   6.904  17.962  0.00  0.00    +0.000 A 
ATOM      9  N   UNL     1       2.518   7.680  18.654  0.00  0.00    +0.000 N 
ATOM     10  C   UNL     1       2.013   8.930  18.193  0.00  0.00    +0.000 C 
ATOM     11  O   UNL     1       2.588   9.369  17.188  0.00  0.00    +0.000 OA
ENDROOT
BRANCH  10  12
ATOM     12  C   UNL     1       0.789   9.719  18.545  0.00  0.00    +0.000 A 
ATOM     13  C   UNL     1      -0.250   9.325  17.684  0.00  0.00    +0.000 A 
ATOM     14  C   UNL     1      -1.351  10.140  17.546  0.00  0.00    +0.000 A 
ATOM     15  C   UNL     1      -1.775  10.831  18.651  0.00  0.00    +0.000 A 
ATOM     16  C   UNL     1      -0.807  11.285  19.528  0.00  0.00    +0.000 A 
ATOM     17  C   UNL     1      -1.241  12.275  20.412  0.00  0.00    +0.000 A 
ATOM     18  C   UNL     1      -0.332  13.099  21.049  0.00  0.00    +0.000 A 
ATOM     19  C   UNL     1       1.026  12.903  20.809  0.00  0.00    +0.000 A 
ATOM     20  C   UNL     1       1.469  11.795  20.038  0.00  0.00    +0.000 A 
ATOM     21  C   UNL     1       0.562  10.892  19.386  0.00  0.00    +0.000 A 
ENDBRANCH  10  12
BRANCH   1  22
ATOM     22  C   UNL     1       1.099   6.992  20.767  0.00  0.00    +0.000 C 
BRANCH  22  23
ATOM     23  C   UNL     1       1.007   8.166  21.706  0.00  0.00    +0.000 C 
BRANCH  23  25
ATOM     24  C   UNL     1      -0.349   9.778  23.076  0.00  0.00    +0.000 C 
ATOM     25  C   UNL     1      -0.415   8.653  22.040  0.00  0.00    +0.000 C 
ENDBRANCH  23  25
ENDBRANCH  22  23
ENDBRANCH   1  22
TORSDOF 4
ENDMDL
