MODEL 1
REMARK VINA RESULT:      -7.7      0.000      0.000
REMARK  Name = 
REMARK  6 active torsions:
REMARK  status: ('A' for Active; 'I' for Inactive)
REMARK    1  A    between atoms: C_1  and  C_2
REMARK    2  A    between atoms: C_2  and  O_3
REMARK    3  A    between atoms: O_3  and  C_4
REMARK    4  A    between atoms: C_4  and  C_6
REMARK    5  A    between atoms: C_7  and  N_8
REMARK    6  A    between atoms: C_12  and  C_13
REMARK                            x       y       z     vdW  Elec       q    Type
REMARK                         _______ _______ _______ _____ _____    ______ ____
ROOT
ATOM      1  N   UNL     1       6.780   4.766  16.557  0.00  0.00    +0.000 N 
ATOM      2  N   UNL     1       7.525   4.741  15.419  0.00  0.00    +0.000 NA
ATOM      3  N   UNL     1       6.702   4.441  14.430  0.00  0.00    +0.000 NA
ATOM      4  N   UNL     1       5.417   4.348  14.871  0.00  0.00    +0.000 NA
ATOM      5  C   UNL     1       5.439   4.618  16.165  0.00  0.00    +0.000 A 
ENDROOT
BRANCH   5   6
ATOM      6  C   UNL     1       4.257   4.803  17.016  0.00  0.00    +0.000 A 
ATOM      7  C   UNL     1       3.813   6.078  17.410  0.00  0.00    +0.000 A 
ATOM      8  C   UNL     1       2.705   6.233  18.243  0.00  0.00    +0.000 A 
ATOM      9  C   UNL     1       1.987   5.115  18.657  0.00  0.00    +0.000 A 
ATOM     10  C   UNL     1       2.378   3.850  18.223  0.00  0.00    +0.000 A 
ATOM     11 BR   UNL     1       1.362   2.339  18.733  0.00  0.00    +0.000 Br
ATOM     12  C   UNL     1       3.504   3.688  17.411  0.00  0.00    +0.000 A 
ENDBRANCH   5   6
BRANCH   1  14
ATOM     13  C   UNL     1       7.794   5.890  18.494  0.00  0.00    +0.000 C 
ATOM     14  C   UNL     1       7.273   4.821  17.869  0.00  0.00    +0.000 C 
BRANCH  13  15
ATOM     15  C   UNL     1       7.668   7.250  17.938  0.00  0.00    +0.000 C 
ATOM     16  O   UNL     1       6.905   7.557  17.042  0.00  0.00    +0.000 OA
BRANCH  15  17
ATOM     17  O   UNL     1       8.533   8.060  18.597  0.00  0.00    +0.000 OA
BRANCH  17  19
ATOM     18  C   UNL     1       9.260  10.329  19.154  0.00  0.00    +0.000 C 
ATOM     19  C   UNL     1       8.467   9.439  18.216  0.00  0.00    +0.000 C 
ENDBRANCH  17  19
ENDBRANCH  15  17
ENDBRANCH  13  15
ENDBRANCH   1  14
TORSDOF 5
ENDMDL
MODEL 2
REMARK VINA RESULT:      -7.6      1.255      1.669
REMARK  Name = 
REMARK  6 active torsions:
REMARK  status: ('A' for Active; 'I' for Inactive)
REMARK    1  A    between atoms: C_1  and  C_2
REMARK    2  A    between atoms: C_2  and  O_3
REMARK    3  A    between atoms: O_3  and  C_4
REMARK    4  A    between atoms: C_4  and  C_6
REMARK    5  A    between atoms: C_7  and  N_8
REMARK    6  A    between atoms: C_12  and  C_13
REMARK                            x       y       z     vdW  Elec       q    Type
REMARK                         _______ _______ _______ _____ _____    ______ ____
ROOT
ATOM      1  N   UNL     1       6.808   4.766  16.499  0.00  0.00    +0.000 N 
ATOM      2  N   UNL     1       7.607   4.802  15.398  0.00  0.00    +0.000 NA
ATOM      3  N   UNL     1       6.852   4.469  14.367  0.00  0.00    +0.000 NA
ATOM      4  N   UNL     1       5.555   4.296  14.744  0.00  0.00    +0.000 NA
ATOM      5  C   UNL     1       5.499   4.546  16.040  0.00  0.00    +0.000 A 
ENDROOT
BRANCH   5   6
ATOM      6  C   UNL     1       4.268   4.650  16.834  0.00  0.00    +0.000 A 
ATOM      7  C   UNL     1       3.461   3.531  17.109  0.00  0.00    +0.000 A 
ATOM      8  C   UNL     1       2.279   3.653  17.840  0.00  0.00    +0.000 A 
ATOM      9  C   UNL     1       1.908   4.892  18.356  0.00  0.00    +0.000 A 
ATOM     10  C   UNL     1       2.731   5.996  18.145  0.00  0.00    +0.000 A 
ATOM     11 BR   UNL     1       2.258   7.663  18.902  0.00  0.00    +0.000 Br
ATOM     12  C   UNL     1       3.901   5.884  17.390  0.00  0.00    +0.000 A 
ENDBRANCH   5   6
BRANCH   1  14
ATOM     13  C   UNL     1       7.722   5.903  18.479  0.00  0.00    +0.000 C 
ATOM     14  C   UNL     1       7.233   4.830  17.834  0.00  0.00    +0.000 C 
BRANCH  13  15
ATOM     15  C   UNL     1       7.625   7.259  17.908  0.00  0.00    +0.000 C 
ATOM     16  O   UNL     1       6.872   7.571  17.006  0.00  0.00    +0.000 OA
BRANCH  15  17
ATOM     17  O   UNL     1       8.502   8.060  18.563  0.00  0.00    +0.000 OA
BRANCH  17  19
ATOM     18  C   UNL     1       9.227  10.326  19.132  0.00  0.00    +0.000 C 
ATOM     19  C   UNL     1       8.459   9.437  18.173  0.00  0.00    +0.000 C 
ENDBRANCH  17  19
ENDBRANCH  15  17
ENDBRANCH  13  15
ENDBRANCH   1  14
TORSDOF 5
ENDMDL
MODEL 3
REMARK VINA RESULT:      -7.6      3.082      4.596
REMARK  Name = 
REMARK  6 active torsions:
REMARK  status: ('A' for Active; 'I' for Inactive)
REMARK    1  A    between atoms: C_1  and  C_2
REMARK    2  A    between atoms: C_2  and  O_3
REMARK    3  A    between atoms: O_3  and  C_4
REMARK    4  A    between atoms: C_4  and  C_6
REMARK    5  A    between atoms: C_7  and  N_8
REMARK    6  A    between atoms: C_12  and  C_13
REMARK                            x       y       z     vdW  Elec       q    Type
REMARK                         _______ _______ _______ _____ _____    ______ ____
ROOT
ATOM      1  N   UNL     1       6.048   5.778  17.809  0.00  0.00    +0.000 N 
ATOM      2  N   UNL     1       7.298   6.184  18.159  0.00  0.00    +0.000 NA
ATOM      3  N   UNL     1       7.553   5.658  19.343  0.00  0.00    +0.000 NA
ATOM      4  N   UNL     1       6.537   4.846  19.748  0.00  0.00    +0.000 NA
ATOM      5  C   UNL     1       5.637   4.853  18.781  0.00  0.00    +0.000 A 
ENDROOT
BRANCH   5   6
ATOM      6  C   UNL     1       4.455   3.983  18.713  0.00  0.00    +0.000 A 
ATOM      7  C   UNL     1       4.160   3.214  17.573  0.00  0.00    +0.000 A 
ATOM      8  C   UNL     1       3.016   2.416  17.514  0.00  0.00    +0.000 A 
ATOM      9  C   UNL     1       2.173   2.332  18.617  0.00  0.00    +0.000 A 
ATOM     10  C   UNL     1       2.488   3.039  19.776  0.00  0.00    +0.000 A 
ATOM     11 BR   UNL     1       1.375   2.871  21.296  0.00  0.00    +0.000 Br
ATOM     12  C   UNL     1       3.616   3.861  19.830  0.00  0.00    +0.000 A 
ENDBRANCH   5   6
BRANCH   1  14
ATOM     13  C   UNL     1       5.442   5.998  15.436  0.00  0.00    +0.000 C 
ATOM     14  C   UNL     1       5.285   6.273  16.741  0.00  0.00    +0.000 C 
BRANCH  13  15
ATOM     15  C   UNL     1       6.309   4.896  14.976  0.00  0.00    +0.000 C 
ATOM     16  O   UNL     1       7.481   4.776  15.273  0.00  0.00    +0.000 OA
BRANCH  15  17
ATOM     17  O   UNL     1       5.569   4.073  14.191  0.00  0.00    +0.000 OA
BRANCH  17  19
ATOM     18  C   UNL     1       5.199   3.147  11.957  0.00  0.00    +0.000 C 
ATOM     19  C   UNL     1       6.194   3.707  12.956  0.00  0.00    +0.000 C 
ENDBRANCH  17  19
ENDBRANCH  15  17
ENDBRANCH  13  15
ENDBRANCH   1  14
TORSDOF 5
ENDMDL
MODEL 4
REMARK VINA RESULT:      -7.1      3.051      4.152
REMARK  Name = 
REMARK  6 active torsions:
REMARK  status: ('A' for Active; 'I' for Inactive)
REMARK    1  A    between atoms: C_1  and  C_2
REMARK    2  A    between atoms: C_2  and  O_3
REMARK    3  A    between atoms: O_3  and  C_4
REMARK    4  A    between atoms: C_4  and  C_6
REMARK    5  A    between atoms: C_7  and  N_8
REMARK    6  A    between atoms: C_12  and  C_13
REMARK                            x       y       z     vdW  Elec       q    Type
REMARK                         _______ _______ _______ _____ _____    ______ ____
ROOT
ATOM      1  N   UNL     1       6.000   4.290  17.881  0.00  0.00    +0.000 N 
ATOM      2  N   UNL     1       7.360   4.259  17.913  0.00  0.00    +0.000 NA
ATOM      3  N   UNL     1       7.738   5.060  18.893  0.00  0.00    +0.000 NA
ATOM      4  N   UNL     1       6.662   5.554  19.565  0.00  0.00    +0.000 NA
ATOM      5  C   UNL     1       5.587   5.032  18.999  0.00  0.00    +0.000 A 
ENDROOT
BRANCH   5   6
ATOM      6  C   UNL     1       4.215   5.152  19.508  0.00  0.00    +0.000 A 
ATOM      7  C   UNL     1       3.447   6.315  19.318  0.00  0.00    +0.000 A 
ATOM      8  C   UNL     1       2.155   6.423  19.834  0.00  0.00    +0.000 A 
ATOM      9  C   UNL     1       1.587   5.346  20.507  0.00  0.00    +0.000 A 
ATOM     10  C   UNL     1       2.312   4.165  20.648  0.00  0.00    +0.000 A 
ATOM     11 BR   UNL     1       1.512   2.682  21.505  0.00  0.00    +0.000 Br
ATOM     12  C   UNL     1       3.616   4.062  20.157  0.00  0.00    +0.000 A 
ENDBRANCH   5   6
BRANCH   1  14
ATOM     13  C   UNL     1       5.021   4.259  15.625  0.00  0.00    +0.000 C 
ATOM     14  C   UNL     1       5.183   3.771  16.866  0.00  0.00    +0.000 C 
BRANCH  13  15
ATOM     15  C   UNL     1       5.918   5.295  15.079  0.00  0.00    +0.000 C 
ATOM     16  O   UNL     1       5.714   6.491  15.160  0.00  0.00    +0.000 OA
BRANCH  15  17
ATOM     17  O   UNL     1       6.974   4.677  14.495  0.00  0.00    +0.000 OA
BRANCH  17  19
ATOM     18  C   UNL     1       6.532   3.614  12.336  0.00  0.00    +0.000 C 
ATOM     19  C   UNL     1       7.047   4.835  13.073  0.00  0.00    +0.000 C 
ENDBRANCH  17  19
ENDBRANCH  15  17
ENDBRANCH  13  15
ENDBRANCH   1  14
TORSDOF 5
ENDMDL
MODEL 5
REMARK VINA RESULT:      -7.1      3.264      4.392
REMARK  Name = 
REMARK  6 active torsions:
REMARK  status: ('A' for Active; 'I' for Inactive)
REMARK    1  A    between atoms: C_1  and  C_2
REMARK    2  A    between atoms: C_2  and  O_3
REMARK    3  A    between atoms: O_3  and  C_4
REMARK    4  A    between atoms: C_4  and  C_6
REMARK    5  A    between atoms: C_7  and  N_8
REMARK    6  A    between atoms: C_12  and  C_13
REMARK                            x       y       z     vdW  Elec       q    Type
REMARK                         _______ _______ _______ _____ _____    ______ ____
ROOT
ATOM      1  N   UNL     1       6.092   4.236  17.824  0.00  0.00    +0.000 N 
ATOM      2  N   UNL     1       7.449   4.316  17.880  0.00  0.00    +0.000 NA
ATOM      3  N   UNL     1       7.745   5.055  18.934  0.00  0.00    +0.000 NA
ATOM      4  N   UNL     1       6.622   5.396  19.625  0.00  0.00    +0.000 NA
ATOM      5  C   UNL     1       5.603   4.838  18.994  0.00  0.00    +0.000 A 
ENDROOT
BRANCH   5   6
ATOM      6  C   UNL     1       4.219   4.798  19.483  0.00  0.00    +0.000 A 
ATOM      7  C   UNL     1       3.558   3.586  19.753  0.00  0.00    +0.000 A 
ATOM      8  C   UNL     1       2.232   3.566  20.187  0.00  0.00    +0.000 A 
ATOM      9  C   UNL     1       1.558   4.763  20.411  0.00  0.00    +0.000 A 
ATOM     10  C   UNL     1       2.221   5.971  20.209  0.00  0.00    +0.000 A 
ATOM     11 BR   UNL     1       1.324   7.594  20.577  0.00  0.00    +0.000 Br
ATOM     12  C   UNL     1       3.540   5.996  19.746  0.00  0.00    +0.000 A 
ENDBRANCH   5   6
BRANCH   1  14
ATOM     13  C   UNL     1       5.083   4.358  15.585  0.00  0.00    +0.000 C 
ATOM     14  C   UNL     1       5.335   3.742  16.751  0.00  0.00    +0.000 C 
BRANCH  13  15
ATOM     15  C   UNL     1       5.817   5.571  15.176  0.00  0.00    +0.000 C 
ATOM     16  O   UNL     1       5.567   6.691  15.578  0.00  0.00    +0.000 OA
BRANCH  15  17
ATOM     17  O   UNL     1       6.788   5.207  14.303  0.00  0.00    +0.000 OA
BRANCH  17  19
ATOM     18  C   UNL     1       7.069   4.110  12.134  0.00  0.00    +0.000 C 
ATOM     19  C   UNL     1       6.490   4.036  13.533  0.00  0.00    +0.000 C 
ENDBRANCH  17  19
ENDBRANCH  15  17
ENDBRANCH  13  15
ENDBRANCH   1  14
TORSDOF 5
ENDMDL
MODEL 6
REMARK VINA RESULT:      -7.0      2.942      4.390
REMARK  Name = 
REMARK  6 active torsions:
REMARK  status: ('A' for Active; 'I' for Inactive)
REMARK    1  A    between atoms: C_1  and  C_2
REMARK    2  A    between atoms: C_2  and  O_3
REMARK    3  A    between atoms: O_3  and  C_4
REMARK    4  A    between atoms: C_4  and  C_6
REMARK    5  A    between atoms: C_7  and  N_8
REMARK    6  A    between atoms: C_12  and  C_13
REMARK                            x       y       z     vdW  Elec       q    Type
REMARK                         _______ _______ _______ _____ _____    ______ ____
ROOT
ATOM      1  N   UNL     1       6.021   5.285  17.275  0.00  0.00    +0.000 N 
ATOM      2  N   UNL     1       7.358   5.036  17.242  0.00  0.00    +0.000 NA
ATOM      3  N   UNL     1       7.726   4.761  18.480  0.00  0.00    +0.000 NA
ATOM      4  N   UNL     1       6.653   4.739  19.318  0.00  0.00    +0.000 NA
ATOM      5  C   UNL     1       5.587   4.988  18.577  0.00  0.00    +0.000 A 
ENDROOT
BRANCH   5   6
ATOM      6  C   UNL     1       4.194   4.892  19.031  0.00  0.00    +0.000 A 
ATOM      7  C   UNL     1       3.535   5.968  19.653  0.00  0.00    +0.000 A 
ATOM      8  C   UNL     1       2.221   5.848  20.105  0.00  0.00    +0.000 A 
ATOM      9  C   UNL     1       1.521   4.664  19.897  0.00  0.00    +0.000 A 
ATOM     10  C   UNL     1       2.140   3.611  19.226  0.00  0.00    +0.000 A 
ATOM     11 BR   UNL     1       1.166   2.027  18.886  0.00  0.00    +0.000 Br
ATOM     12  C   UNL     1       3.466   3.716  18.796  0.00  0.00    +0.000 A 
ENDBRANCH   5   6
BRANCH   1  14
ATOM     13  C   UNL     1       5.537   5.816  14.923  0.00  0.00    +0.000 C 
ATOM     14  C   UNL     1       5.254   5.834  16.237  0.00  0.00    +0.000 C 
BRANCH  13  15
ATOM     15  C   UNL     1       6.603   4.958  14.373  0.00  0.00    +0.000 C 
ATOM     16  O   UNL     1       7.771   5.285  14.289  0.00  0.00    +0.000 OA
BRANCH  15  17
ATOM     17  O   UNL     1       6.048   3.779  13.997  0.00  0.00    +0.000 OA
BRANCH  17  19
ATOM     18  C   UNL     1       4.930   3.219  11.895  0.00  0.00    +0.000 C 
ATOM     19  C   UNL     1       6.243   3.440  12.620  0.00  0.00    +0.000 C 
ENDBRANCH  17  19
ENDBRANCH  15  17
ENDBRANCH  13  15
ENDBRANCH   1  14
TORSDOF 5
ENDMDL
MODEL 7
REMARK VINA RESULT:      -7.0      2.995      4.296
REMARK  Name = 
REMARK  6 active torsions:
REMARK  status: ('A' for Active; 'I' for Inactive)
REMARK    1  A    between atoms: C_1  and  C_2
REMARK    2  A    between atoms: C_2  and  O_3
REMARK    3  A    between atoms: O_3  and  C_4
REMARK    4  A    between atoms: C_4  and  C_6
REMARK    5  A    between atoms: C_7  and  N_8
REMARK    6  A    between atoms: C_12  and  C_13
REMARK                            x       y       z     vdW  Elec       q    Type
REMARK                         _______ _______ _______ _____ _____    ______ ____
ROOT
ATOM      1  N   UNL     1       6.241   6.033  17.938  0.00  0.00    +0.000 N 
ATOM      2  N   UNL     1       7.591   5.882  18.000  0.00  0.00    +0.000 NA
ATOM      3  N   UNL     1       7.862   5.346  19.176  0.00  0.00    +0.000 NA
ATOM      4  N   UNL     1       6.720   5.059  19.860  0.00  0.00    +0.000 NA
ATOM      5  C   UNL     1       5.712   5.410  19.080  0.00  0.00    +0.000 A 
ENDROOT
BRANCH   5   6
ATOM      6  C   UNL     1       4.296   5.122  19.339  0.00  0.00    +0.000 A 
ATOM      7  C   UNL     1       3.402   6.113  19.785  0.00  0.00    +0.000 A 
ATOM      8  C   UNL     1       2.066   5.815  20.055  0.00  0.00    +0.000 A 
ATOM      9  C   UNL     1       1.585   4.528  19.834  0.00  0.00    +0.000 A 
ATOM     10  C   UNL     1       2.444   3.552  19.333  0.00  0.00    +0.000 A 
ATOM     11 BR   UNL     1       1.772   1.822  18.972  0.00  0.00    +0.000 Br
ATOM     12  C   UNL     1       3.789   3.839  19.087  0.00  0.00    +0.000 A 
ENDBRANCH   5   6
BRANCH   1  14
ATOM     13  C   UNL     1       5.221   6.369  15.725  0.00  0.00    +0.000 C 
ATOM     14  C   UNL     1       5.532   6.762  16.972  0.00  0.00    +0.000 C 
BRANCH  13  15
ATOM     15  C   UNL     1       5.373   4.966  15.296  0.00  0.00    +0.000 C 
ATOM     16  O   UNL     1       4.791   4.027  15.803  0.00  0.00    +0.000 OA
BRANCH  15  17
ATOM     17  O   UNL     1       6.252   4.931  14.264  0.00  0.00    +0.000 OA
BRANCH  17  19
ATOM     18  C   UNL     1       5.625   3.514  12.370  0.00  0.00    +0.000 C 
ATOM     19  C   UNL     1       6.412   3.642  13.660  0.00  0.00    +0.000 C 
ENDBRANCH  17  19
ENDBRANCH  15  17
ENDBRANCH  13  15
ENDBRANCH   1  14
TORSDOF 5
ENDMDL
MODEL 8
REMARK VINA RESULT:      -7.0      2.511      3.441
REMARK  Name = 
REMARK  6 active torsions:
REMARK  status: ('A' for Active; 'I' for Inactive)
REMARK    1  A    between atoms: C_1  and  C_2
REMARK    2  A    between atoms: C_2  and  O_3
REMARK    3  A    between atoms: O_3  and  C_4
REMARK    4  A    between atoms: C_4  and  C_6
REMARK    5  A    between atoms: C_7  and  N_8
REMARK    6  A    between atoms: C_12  and  C_13
REMARK                            x       y       z     vdW  Elec       q    Type
REMARK                         _______ _______ _______ _____ _____    ______ ____
ROOT
ATOM      1  N   UNL     1       4.224   6.074  17.007  0.00  0.00    +0.000 N 
ATOM      2  N   UNL     1       4.379   7.425  17.049  0.00  0.00    +0.000 NA
ATOM      3  N   UNL     1       3.340   7.909  17.704  0.00  0.00    +0.000 NA
ATOM      4  N   UNL     1       2.543   6.907  18.170  0.00  0.00    +0.000 NA
ATOM      5  C   UNL     1       3.113   5.770  17.811  0.00  0.00    +0.000 A 
ENDROOT
BRANCH   5   6
ATOM      6  C   UNL     1       2.693   4.433  18.248  0.00  0.00    +0.000 A 
ATOM      7  C   UNL     1       2.621   3.345  17.359  0.00  0.00    +0.000 A 
ATOM      8  C   UNL     1       2.191   2.088  17.785  0.00  0.00    +0.000 A 
ATOM      9  C   UNL     1       1.873   1.883  19.124  0.00  0.00    +0.000 A 
ATOM     10  C   UNL     1       2.000   2.935  20.028  0.00  0.00    +0.000 A 
ATOM     11 BR   UNL     1       1.631   2.635  21.859  0.00  0.00    +0.000 Br
ATOM     12  C   UNL     1       2.404   4.202  19.601  0.00  0.00    +0.000 A 
ENDBRANCH   5   6
BRANCH   1  14
ATOM     13  C   UNL     1       6.153   4.625  16.532  0.00  0.00    +0.000 C 
ATOM     14  C   UNL     1       4.968   5.178  16.225  0.00  0.00    +0.000 C 
BRANCH  13  15
ATOM     15  C   UNL     1       6.712   4.699  17.895  0.00  0.00    +0.000 C 
ATOM     16  O   UNL     1       6.199   4.193  18.875  0.00  0.00    +0.000 OA
BRANCH  15  17
ATOM     17  O   UNL     1       7.866   5.409  17.843  0.00  0.00    +0.000 OA
BRANCH  17  19
ATOM     18  C   UNL     1       7.802   7.845  17.629  0.00  0.00    +0.000 C 
ATOM     19  C   UNL     1       7.836   6.649  18.560  0.00  0.00    +0.000 C 
ENDBRANCH  17  19
ENDBRANCH  15  17
ENDBRANCH  13  15
ENDBRANCH   1  14
TORSDOF 5
ENDMDL
MODEL 9
REMARK VINA RESULT:      -6.9      1.126      1.132
REMARK  Name = 
REMARK  6 active torsions:
REMARK  status: ('A' for Active; 'I' for Inactive)
REMARK    1  A    between atoms: C_1  and  C_2
REMARK    2  A    between atoms: C_2  and  O_3
REMARK    3  A    between atoms: O_3  and  C_4
REMARK    4  A    between atoms: C_4  and  C_6
REMARK    5  A    between atoms: C_7  and  N_8
REMARK    6  A    between atoms: C_12  and  C_13
REMARK                            x       y       z     vdW  Elec       q    Type
REMARK                         _______ _______ _______ _____ _____    ______ ____
ROOT
ATOM      1  N   UNL     1       6.795   4.879  17.191  0.00  0.00    +0.000 N 
ATOM      2  N   UNL     1       7.416   4.569  16.021  0.00  0.00    +0.000 NA
ATOM      3  N   UNL     1       6.534   3.923  15.279  0.00  0.00    +0.000 NA
ATOM      4  N   UNL     1       5.320   3.871  15.894  0.00  0.00    +0.000 NA
ATOM      5  C   UNL     1       5.446   4.519  17.040  0.00  0.00    +0.000 A 
ENDROOT
BRANCH   5   6
ATOM      6  C   UNL     1       4.345   4.861  17.949  0.00  0.00    +0.000 A 
ATOM      7  C   UNL     1       3.599   6.045  17.804  0.00  0.00    +0.000 A 
ATOM      8  C   UNL     1       2.576   6.369  18.696  0.00  0.00    +0.000 A 
ATOM      9  C   UNL     1       2.245   5.487  19.721  0.00  0.00    +0.000 A 
ATOM     10  C   UNL     1       2.934   4.282  19.837  0.00  0.00    +0.000 A 
ATOM     11 BR   UNL     1       2.438   3.058  21.190  0.00  0.00    +0.000 Br
ATOM     12  C   UNL     1       3.978   3.966  18.964  0.00  0.00    +0.000 A 
ENDBRANCH   5   6
BRANCH   1  14
ATOM     13  C   UNL     1       7.866   6.610  18.570  0.00  0.00    +0.000 C 
ATOM     14  C   UNL     1       7.412   5.364  18.353  0.00  0.00    +0.000 C 
BRANCH  13  15
ATOM     15  C   UNL     1       7.523   7.727  17.669  0.00  0.00    +0.000 C 
ATOM     16  O   UNL     1       6.458   7.843  17.096  0.00  0.00    +0.000 OA
BRANCH  15  17
ATOM     17  O   UNL     1       8.586   8.567  17.612  0.00  0.00    +0.000 OA
BRANCH  17  19
ATOM     18  C   UNL     1       9.113  10.853  18.309  0.00  0.00    +0.000 C 
ATOM     19  C   UNL     1       8.707   9.453  18.730  0.00  0.00    +0.000 C 
ENDBRANCH  17  19
ENDBRANCH  15  17
ENDBRANCH  13  15
ENDBRANCH   1  14
TORSDOF 5
ENDMDL
