MODEL 1
REMARK VINA RESULT:      -8.5      0.000      0.000
REMARK  Name = 
REMARK  11 active torsions:
REMARK  status: ('A' for Active; 'I' for Inactive)
REMARK    1  A    between atoms: C_1  and  O_2
REMARK    2  A    between atoms: O_2  and  C_3
REMARK    3  A    between atoms: C_5  and  C_6
REMARK    4  A    between atoms: C_10  and  C_11
REMARK    5  A    between atoms: C_12  and  C_13
REMARK    6  A    between atoms: C_13  and  C_15
REMARK    7  A    between atoms: C_18  and  O_19
REMARK    8  A    between atoms: C_21  and  O_22
REMARK    9  A    between atoms: C_27  and  C_28
REMARK   10  A    between atoms: C_28  and  O_29
REMARK   11  A    between atoms: C_32  and  O_33
REMARK                            x       y       z     vdW  Elec       q    Type
REMARK                         _______ _______ _______ _____ _____    ______ ____
ROOT
ATOM      1  C   UNL     1      -0.415  12.301  19.167  0.00  0.00    +0.000 C 
ATOM      2  O   UNL     1       0.631  11.308  18.989  0.00  0.00    +0.000 OA
ATOM      3  C   UNL     1       0.645  10.404  20.029  0.00  0.00    +0.000 A 
ATOM      4  C   UNL     1       1.348   9.221  19.807  0.00  0.00    +0.000 A 
ATOM      5  C   UNL     1       1.157   8.136  20.660  0.00  0.00    +0.000 A 
ATOM      6  C   UNL     1       0.193   8.246  21.680  0.00  0.00    +0.000 A 
ATOM      7  C   UNL     1      -0.415   9.475  21.970  0.00  0.00    +0.000 A 
ATOM      8  C   UNL     1      -0.130  10.579  21.182  0.00  0.00    +0.000 A 
ATOM      9  O   UNL     1      -0.699  11.787  21.524  0.00  0.00    +0.000 OA
ATOM     10  C   UNL     1      -0.257  12.812  20.611  0.00  0.00    +0.000 C 
ENDROOT
BRANCH   1  13
ATOM     11  C   UNL     1      -3.289  10.581  17.182  0.00  0.00    +0.000 A 
ATOM     12  C   UNL     1      -2.014  10.913  17.664  0.00  0.00    +0.000 A 
ATOM     13  C   UNL     1      -1.813  11.804  18.738  0.00  0.00    +0.000 A 
ATOM     14  C   UNL     1      -2.957  12.296  19.381  0.00  0.00    +0.000 A 
ATOM     15  C   UNL     1      -4.235  11.996  18.897  0.00  0.00    +0.000 A 
ATOM     16  C   UNL     1      -4.393  11.186  17.769  0.00  0.00    +0.000 A 
BRANCH  11  18
ATOM     17  C   UNL     1      -3.089  10.312  14.825  0.00  0.00    +0.000 C 
ATOM     18  O   UNL     1      -3.265   9.730  16.109  0.00  0.00    +0.000 OA
ENDBRANCH  11  18
BRANCH  16  19
ATOM     19  O   UNL     1      -5.643  11.071  17.229  0.00  0.00    +0.000 OA
ATOM     20  H   UNL     1      -6.279  11.321  17.922  0.00  0.00    +0.000 HD
ENDBRANCH  16  19
ENDBRANCH   1  13
BRANCH   5  21
ATOM     21  C   UNL     1       1.937   6.905  20.427  0.00  0.00    +0.000 C 
ATOM     22  C   UNL     1       2.787   6.742  19.406  0.00  0.00    +0.000 C 
BRANCH  22  23
ATOM     23  C   UNL     1       3.520   5.468  19.211  0.00  0.00    +0.000 C 
ATOM     24  O   UNL     1       3.222   4.449  19.816  0.00  0.00    +0.000 OA
BRANCH  23  25
ATOM     25  C   UNL     1       4.587   5.449  18.164  0.00  0.00    +0.000 A 
ATOM     26  C   UNL     1       4.487   6.387  17.123  0.00  0.00    +0.000 A 
ATOM     27  C   UNL     1       5.439   6.412  16.102  0.00  0.00    +0.000 A 
ATOM     28  C   UNL     1       6.482   5.492  16.117  0.00  0.00    +0.000 A 
ATOM     29  C   UNL     1       6.589   4.548  17.135  0.00  0.00    +0.000 A 
ATOM     30  C   UNL     1       5.640   4.527  18.156  0.00  0.00    +0.000 A 
BRANCH  28  31
ATOM     31  O   UNL     1       7.434   5.469  15.140  0.00  0.00    +0.000 OA
ATOM     32  H   UNL     1       8.078   4.773  15.349  0.00  0.00    +0.000 HD
ENDBRANCH  28  31
BRANCH  30  33
ATOM     33  O   UNL     1       5.750   3.574  19.133  0.00  0.00    +0.000 OA
ATOM     34  H   UNL     1       6.515   3.005  18.943  0.00  0.00    +0.000 HD
ENDBRANCH  30  33
ENDBRANCH  23  25
ENDBRANCH  22  23
ENDBRANCH   5  21
BRANCH  10  35
ATOM     35  C   UNL     1      -0.922  14.155  20.906  0.00  0.00    +0.000 C 
BRANCH  35  36
ATOM     36  O   UNL     1      -1.284  14.252  22.283  0.00  0.00    +0.000 OA
ATOM     37  H   UNL     1      -0.887  13.498  22.756  0.00  0.00    +0.000 HD
ENDBRANCH  35  36
ENDBRANCH  10  35
TORSDOF 10
ENDMDL
MODEL 2
REMARK VINA RESULT:      -8.1      1.056      1.086
REMARK  Name = 
REMARK  11 active torsions:
REMARK  status: ('A' for Active; 'I' for Inactive)
REMARK    1  A    between atoms: C_1  and  O_2
REMARK    2  A    between atoms: O_2  and  C_3
REMARK    3  A    between atoms: C_5  and  C_6
REMARK    4  A    between atoms: C_10  and  C_11
REMARK    5  A    between atoms: C_12  and  C_13
REMARK    6  A    between atoms: C_13  and  C_15
REMARK    7  A    between atoms: C_18  and  O_19
REMARK    8  A    between atoms: C_21  and  O_22
REMARK    9  A    between atoms: C_27  and  C_28
REMARK   10  A    between atoms: C_28  and  O_29
REMARK   11  A    between atoms: C_32  and  O_33
REMARK                            x       y       z     vdW  Elec       q    Type
REMARK                         _______ _______ _______ _____ _____    ______ ____
ROOT
ATOM      1  C   UNL     1       0.114  11.920  18.968  0.00  0.00    +0.000 C 
ATOM      2  O   UNL     1       1.116  10.891  18.750  0.00  0.00    +0.000 OA
ATOM      3  C   UNL     1       1.114   9.965  19.770  0.00  0.00    +0.000 A 
ATOM      4  C   UNL     1       1.766   8.760  19.509  0.00  0.00    +0.000 A 
ATOM      5  C   UNL     1       1.547   7.666  20.343  0.00  0.00    +0.000 A 
ATOM      6  C   UNL     1       0.608   7.790  21.383  0.00  0.00    +0.000 A 
ATOM      7  C   UNL     1       0.054   9.035  21.711  0.00  0.00    +0.000 A 
ATOM      8  C   UNL     1       0.368  10.144  20.941  0.00  0.00    +0.000 A 
ATOM      9  O   UNL     1      -0.148  11.367  21.319  0.00  0.00    +0.000 OA
ATOM     10  C   UNL     1       0.318  12.393  20.420  0.00  0.00    +0.000 C 
ENDROOT
BRANCH   1  13
ATOM     11  C   UNL     1      -2.862  10.358  17.002  0.00  0.00    +0.000 A 
ATOM     12  C   UNL     1      -1.566  10.630  17.467  0.00  0.00    +0.000 A 
ATOM     13  C   UNL     1      -1.310  11.488  18.556  0.00  0.00    +0.000 A 
ATOM     14  C   UNL     1      -2.422  12.008  19.232  0.00  0.00    +0.000 A 
ATOM     15  C   UNL     1      -3.720  11.769  18.766  0.00  0.00    +0.000 A 
ATOM     16  C   UNL     1      -3.930  10.992  17.624  0.00  0.00    +0.000 A 
BRANCH  11  18
ATOM     17  C   UNL     1      -3.063  10.144  14.640  0.00  0.00    +0.000 C 
ATOM     18  O   UNL     1      -2.891   9.532  15.910  0.00  0.00    +0.000 OA
ENDBRANCH  11  18
BRANCH  16  19
ATOM     19  O   UNL     1      -5.193  10.938  17.106  0.00  0.00    +0.000 OA
ATOM     20  H   UNL     1      -5.781  11.394  17.734  0.00  0.00    +0.000 HD
ENDBRANCH  16  19
ENDBRANCH   1  13
BRANCH   5  21
ATOM     21  C   UNL     1       2.274   6.410  20.069  0.00  0.00    +0.000 C 
ATOM     22  C   UNL     1       2.324   5.824  18.867  0.00  0.00    +0.000 C 
BRANCH  22  23
ATOM     23  C   UNL     1       3.049   4.547  18.663  0.00  0.00    +0.000 C 
ATOM     24  O   UNL     1       2.592   3.476  19.034  0.00  0.00    +0.000 OA
BRANCH  23  25
ATOM     25  C   UNL     1       4.328   4.603  17.892  0.00  0.00    +0.000 A 
ATOM     26  C   UNL     1       4.290   4.194  16.548  0.00  0.00    +0.000 A 
ATOM     27  C   UNL     1       5.452   4.205  15.775  0.00  0.00    +0.000 A 
ATOM     28  C   UNL     1       6.652   4.612  16.348  0.00  0.00    +0.000 A 
ATOM     29  C   UNL     1       6.709   5.009  17.682  0.00  0.00    +0.000 A 
ATOM     30  C   UNL     1       5.547   5.003  18.451  0.00  0.00    +0.000 A 
BRANCH  28  31
ATOM     31  O   UNL     1       7.817   4.634  15.639  0.00  0.00    +0.000 OA
ATOM     32  H   UNL     1       7.603   4.683  14.692  0.00  0.00    +0.000 HD
ENDBRANCH  28  31
BRANCH  30  33
ATOM     33  O   UNL     1       5.632   5.372  19.768  0.00  0.00    +0.000 OA
ATOM     34  H   UNL     1       6.500   5.777  19.934  0.00  0.00    +0.000 HD
ENDBRANCH  30  33
ENDBRANCH  23  25
ENDBRANCH  22  23
ENDBRANCH   5  21
BRANCH  10  35
ATOM     35  C   UNL     1      -0.288  13.754  20.756  0.00  0.00    +0.000 C 
BRANCH  35  36
ATOM     36  O   UNL     1      -0.061  14.687  19.700  0.00  0.00    +0.000 OA
ATOM     37  H   UNL     1      -0.888  15.179  19.547  0.00  0.00    +0.000 HD
ENDBRANCH  35  36
ENDBRANCH  10  35
TORSDOF 10
ENDMDL
MODEL 3
REMARK VINA RESULT:      -8.1      1.323      1.509
REMARK  Name = 
REMARK  11 active torsions:
REMARK  status: ('A' for Active; 'I' for Inactive)
REMARK    1  A    between atoms: C_1  and  O_2
REMARK    2  A    between atoms: O_2  and  C_3
REMARK    3  A    between atoms: C_5  and  C_6
REMARK    4  A    between atoms: C_10  and  C_11
REMARK    5  A    between atoms: C_12  and  C_13
REMARK    6  A    between atoms: C_13  and  C_15
REMARK    7  A    between atoms: C_18  and  O_19
REMARK    8  A    between atoms: C_21  and  O_22
REMARK    9  A    between atoms: C_27  and  C_28
REMARK   10  A    between atoms: C_28  and  O_29
REMARK   11  A    between atoms: C_32  and  O_33
REMARK                            x       y       z     vdW  Elec       q    Type
REMARK                         _______ _______ _______ _____ _____    ______ ____
ROOT
ATOM      1  C   UNL     1       0.391  12.087  18.985  0.00  0.00    +0.000 C 
ATOM      2  O   UNL     1       1.244  11.007  18.519  0.00  0.00    +0.000 OA
ATOM      3  C   UNL     1       1.401  10.039  19.487  0.00  0.00    +0.000 A 
ATOM      4  C   UNL     1       1.891   8.808  19.054  0.00  0.00    +0.000 A 
ATOM      5  C   UNL     1       1.786   7.695  19.885  0.00  0.00    +0.000 A 
ATOM      6  C   UNL     1       1.111   7.834  21.112  0.00  0.00    +0.000 A 
ATOM      7  C   UNL     1       0.734   9.097  21.590  0.00  0.00    +0.000 A 
ATOM      8  C   UNL     1       0.948  10.216  20.800  0.00  0.00    +0.000 A 
ATOM      9  O   UNL     1       0.619  11.451  21.319  0.00  0.00    +0.000 OA
ATOM     10  C   UNL     1       0.946  12.483  20.367  0.00  0.00    +0.000 C 
ENDROOT
BRANCH   1  13
ATOM     11  C   UNL     1      -3.023  10.651  17.787  0.00  0.00    +0.000 A 
ATOM     12  C   UNL     1      -1.645  10.833  17.974  0.00  0.00    +0.000 A 
ATOM     13  C   UNL     1      -1.116  11.765  18.891  0.00  0.00    +0.000 A 
ATOM     14  C   UNL     1      -2.032  12.461  19.692  0.00  0.00    +0.000 A 
ATOM     15  C   UNL     1      -3.410  12.311  19.500  0.00  0.00    +0.000 A 
ATOM     16  C   UNL     1      -3.898  11.450  18.513  0.00  0.00    +0.000 A 
BRANCH  11  18
ATOM     17  C   UNL     1      -2.884  10.000  15.501  0.00  0.00    +0.000 C 
ATOM     18  O   UNL     1      -3.329   9.728  16.822  0.00  0.00    +0.000 OA
ENDBRANCH  11  18
BRANCH  16  19
ATOM     19  O   UNL     1      -5.237  11.474  18.243  0.00  0.00    +0.000 OA
ATOM     20  H   UNL     1      -5.364  12.061  17.476  0.00  0.00    +0.000 HD
ENDBRANCH  16  19
ENDBRANCH   1  13
BRANCH   5  21
ATOM     21  C   UNL     1       2.342   6.409  19.420  0.00  0.00    +0.000 C 
ATOM     22  C   UNL     1       2.840   5.473  20.235  0.00  0.00    +0.000 C 
BRANCH  22  23
ATOM     23  C   UNL     1       3.411   4.212  19.702  0.00  0.00    +0.000 C 
ATOM     24  O   UNL     1       2.963   3.117  20.010  0.00  0.00    +0.000 OA
BRANCH  23  25
ATOM     25  C   UNL     1       4.501   4.332  18.688  0.00  0.00    +0.000 A 
ATOM     26  C   UNL     1       5.723   4.880  19.114  0.00  0.00    +0.000 A 
ATOM     27  C   UNL     1       6.779   5.037  18.215  0.00  0.00    +0.000 A 
ATOM     28  C   UNL     1       6.607   4.659  16.887  0.00  0.00    +0.000 A 
ATOM     29  C   UNL     1       5.399   4.126  16.444  0.00  0.00    +0.000 A 
ATOM     30  C   UNL     1       4.348   3.965  17.346  0.00  0.00    +0.000 A 
BRANCH  28  31
ATOM     31  O   UNL     1       7.604   4.799  15.966  0.00  0.00    +0.000 OA
ATOM     32  H   UNL     1       8.419   5.062  16.426  0.00  0.00    +0.000 HD
ENDBRANCH  28  31
BRANCH  30  33
ATOM     33  O   UNL     1       3.161   3.463  16.883  0.00  0.00    +0.000 OA
ATOM     34  H   UNL     1       3.103   2.518  17.102  0.00  0.00    +0.000 HD
ENDBRANCH  30  33
ENDBRANCH  23  25
ENDBRANCH  22  23
ENDBRANCH   5  21
BRANCH  10  35
ATOM     35  C   UNL     1       0.529  13.864  20.868  0.00  0.00    +0.000 C 
BRANCH  35  36
ATOM     36  O   UNL     1       0.603  14.830  19.820  0.00  0.00    +0.000 OA
ATOM     37  H   UNL     1       1.495  14.786  19.429  0.00  0.00    +0.000 HD
ENDBRANCH  35  36
ENDBRANCH  10  35
TORSDOF 10
ENDMDL
MODEL 4
REMARK VINA RESULT:      -8.0      1.096      1.273
REMARK  Name = 
REMARK  11 active torsions:
REMARK  status: ('A' for Active; 'I' for Inactive)
REMARK    1  A    between atoms: C_1  and  O_2
REMARK    2  A    between atoms: O_2  and  C_3
REMARK    3  A    between atoms: C_5  and  C_6
REMARK    4  A    between atoms: C_10  and  C_11
REMARK    5  A    between atoms: C_12  and  C_13
REMARK    6  A    between atoms: C_13  and  C_15
REMARK    7  A    between atoms: C_18  and  O_19
REMARK    8  A    between atoms: C_21  and  O_22
REMARK    9  A    between atoms: C_27  and  C_28
REMARK   10  A    between atoms: C_28  and  O_29
REMARK   11  A    between atoms: C_32  and  O_33
REMARK                            x       y       z     vdW  Elec       q    Type
REMARK                         _______ _______ _______ _____ _____    ______ ____
ROOT
ATOM      1  C   UNL     1      -0.372  12.833  20.381  0.00  0.00    +0.000 C 
ATOM      2  O   UNL     1       0.547  11.780  19.982  0.00  0.00    +0.000 OA
ATOM      3  C   UNL     1       0.568  10.757  20.905  0.00  0.00    +0.000 A 
ATOM      4  C   UNL     1       1.124   9.553  20.476  0.00  0.00    +0.000 A 
ATOM      5  C   UNL     1       0.906   8.393  21.217  0.00  0.00    +0.000 A 
ATOM      6  C   UNL     1       0.059   8.461  22.339  0.00  0.00    +0.000 A 
ATOM      7  C   UNL     1      -0.392   9.694  22.830  0.00  0.00    +0.000 A 
ATOM      8  C   UNL     1      -0.072  10.857  22.146  0.00  0.00    +0.000 A 
ATOM      9  O   UNL     1      -0.482  12.060  22.682  0.00  0.00    +0.000 OA
ATOM     10  C   UNL     1      -0.027  13.147  21.849  0.00  0.00    +0.000 C 
ENDROOT
BRANCH   1  13
ATOM     11  C   UNL     1      -3.580  11.632  18.531  0.00  0.00    +0.000 A 
ATOM     12  C   UNL     1      -2.238  11.788  18.910  0.00  0.00    +0.000 A 
ATOM     13  C   UNL     1      -1.847  12.519  20.050  0.00  0.00    +0.000 A 
ATOM     14  C   UNL     1      -2.870  13.029  20.861  0.00  0.00    +0.000 A 
ATOM     15  C   UNL     1      -4.212  12.906  20.485  0.00  0.00    +0.000 A 
ATOM     16  C   UNL     1      -4.557  12.258  19.296  0.00  0.00    +0.000 A 
BRANCH  11  18
ATOM     17  C   UNL     1      -3.051   9.685  17.267  0.00  0.00    +0.000 C 
ATOM     18  O   UNL     1      -3.744  10.920  17.373  0.00  0.00    +0.000 OA
ENDBRANCH  11  18
BRANCH  16  19
ATOM     19  O   UNL     1      -5.857  12.321  18.882  0.00  0.00    +0.000 OA
ATOM     20  H   UNL     1      -6.406  11.976  19.608  0.00  0.00    +0.000 HD
ENDBRANCH  16  19
ENDBRANCH   1  13
BRANCH   5  21
ATOM     21  C   UNL     1       1.532   7.135  20.763  0.00  0.00    +0.000 C 
ATOM     22  C   UNL     1       2.270   7.027  19.653  0.00  0.00    +0.000 C 
BRANCH  22  23
ATOM     23  C   UNL     1       2.849   5.726  19.237  0.00  0.00    +0.000 C 
ATOM     24  O   UNL     1       2.293   4.664  19.474  0.00  0.00    +0.000 OA
BRANCH  23  25
ATOM     25  C   UNL     1       4.101   5.766  18.423  0.00  0.00    +0.000 A 
ATOM     26  C   UNL     1       4.198   6.762  17.436  0.00  0.00    +0.000 A 
ATOM     27  C   UNL     1       5.333   6.845  16.627  0.00  0.00    +0.000 A 
ATOM     28  C   UNL     1       6.363   5.925  16.797  0.00  0.00    +0.000 A 
ATOM     29  C   UNL     1       6.278   4.925  17.762  0.00  0.00    +0.000 A 
ATOM     30  C   UNL     1       5.146   4.847  18.572  0.00  0.00    +0.000 A 
BRANCH  28  31
ATOM     31  O   UNL     1       7.490   5.959  16.028  0.00  0.00    +0.000 OA
ATOM     32  H   UNL     1       8.234   6.253  16.579  0.00  0.00    +0.000 HD
ENDBRANCH  28  31
BRANCH  30  33
ATOM     33  O   UNL     1       5.072   3.840  19.498  0.00  0.00    +0.000 OA
ATOM     34  H   UNL     1       4.410   3.188  19.212  0.00  0.00    +0.000 HD
ENDBRANCH  30  33
ENDBRANCH  23  25
ENDBRANCH  22  23
ENDBRANCH   5  21
BRANCH  10  35
ATOM     35  C   UNL     1      -0.521  14.496  22.364  0.00  0.00    +0.000 C 
BRANCH  35  36
ATOM     36  O   UNL     1      -0.762  14.448  23.769  0.00  0.00    +0.000 OA
ATOM     37  H   UNL     1      -1.673  14.132  23.911  0.00  0.00    +0.000 HD
ENDBRANCH  35  36
ENDBRANCH  10  35
TORSDOF 10
ENDMDL
MODEL 5
REMARK VINA RESULT:      -8.0      1.077      1.143
REMARK  Name = 
REMARK  11 active torsions:
REMARK  status: ('A' for Active; 'I' for Inactive)
REMARK    1  A    between atoms: C_1  and  O_2
REMARK    2  A    between atoms: O_2  and  C_3
REMARK    3  A    between atoms: C_5  and  C_6
REMARK    4  A    between atoms: C_10  and  C_11
REMARK    5  A    between atoms: C_12  and  C_13
REMARK    6  A    between atoms: C_13  and  C_15
REMARK    7  A    between atoms: C_18  and  O_19
REMARK    8  A    between atoms: C_21  and  O_22
REMARK    9  A    between atoms: C_27  and  C_28
REMARK   10  A    between atoms: C_28  and  O_29
REMARK   11  A    between atoms: C_32  and  O_33
REMARK                            x       y       z     vdW  Elec       q    Type
REMARK                         _______ _______ _______ _____ _____    ______ ____
ROOT
ATOM      1  C   UNL     1       0.331  12.389  19.232  0.00  0.00    +0.000 C 
ATOM      2  O   UNL     1       1.145  11.334  18.652  0.00  0.00    +0.000 OA
ATOM      3  C   UNL     1       1.338  10.302  19.545  0.00  0.00    +0.000 A 
ATOM      4  C   UNL     1       1.788   9.098  19.006  0.00  0.00    +0.000 A 
ATOM      5  C   UNL     1       1.709   7.932  19.765  0.00  0.00    +0.000 A 
ATOM      6  C   UNL     1       1.099   7.995  21.031  0.00  0.00    +0.000 A 
ATOM      7  C   UNL     1       0.763   9.227  21.611  0.00  0.00    +0.000 A 
ATOM      8  C   UNL     1       0.953  10.394  20.888  0.00  0.00    +0.000 A 
ATOM      9  O   UNL     1       0.667  11.595  21.503  0.00  0.00    +0.000 OA
ATOM     10  C   UNL     1       0.960  12.686  20.607  0.00  0.00    +0.000 C 
ENDROOT
BRANCH   1  13
ATOM     11  C   UNL     1      -3.157  11.071  18.116  0.00  0.00    +0.000 A 
ATOM     12  C   UNL     1      -1.769  11.226  18.245  0.00  0.00    +0.000 A 
ATOM     13  C   UNL     1      -1.182  12.089  19.193  0.00  0.00    +0.000 A 
ATOM     14  C   UNL     1      -2.048  12.741  20.082  0.00  0.00    +0.000 A 
ATOM     15  C   UNL     1      -3.435  12.619  19.950  0.00  0.00    +0.000 A 
ATOM     16  C   UNL     1      -3.984  11.830  18.936  0.00  0.00    +0.000 A 
BRANCH  11  18
ATOM     17  C   UNL     1      -2.603  10.043  16.041  0.00  0.00    +0.000 C 
ATOM     18  O   UNL     1      -3.523  10.217  17.110  0.00  0.00    +0.000 OA
ENDBRANCH  11  18
BRANCH  16  19
ATOM     19  O   UNL     1      -5.334  11.885  18.735  0.00  0.00    +0.000 OA
ATOM     20  H   UNL     1      -5.755  11.850  19.611  0.00  0.00    +0.000 HD
ENDBRANCH  16  19
ENDBRANCH   1  13
BRANCH   5  21
ATOM     21  C   UNL     1       2.224   6.675  19.187  0.00  0.00    +0.000 C 
ATOM     22  C   UNL     1       3.384   6.112  19.540  0.00  0.00    +0.000 C 
BRANCH  22  23
ATOM     23  C   UNL     1       3.859   4.861  18.901  0.00  0.00    +0.000 C 
ATOM     24  O   UNL     1       3.348   3.777  19.139  0.00  0.00    +0.000 OA
BRANCH  23  25
ATOM     25  C   UNL     1       4.933   4.987  17.869  0.00  0.00    +0.000 A 
ATOM     26  C   UNL     1       4.530   5.080  16.525  0.00  0.00    +0.000 A 
ATOM     27  C   UNL     1       5.481   5.182  15.509  0.00  0.00    +0.000 A 
ATOM     28  C   UNL     1       6.833   5.177  15.835  0.00  0.00    +0.000 A 
ATOM     29  C   UNL     1       7.250   5.073  17.160  0.00  0.00    +0.000 A 
ATOM     30  C   UNL     1       6.299   4.977  18.174  0.00  0.00    +0.000 A 
BRANCH  28  31
ATOM     31  O   UNL     1       7.802   5.267  14.879  0.00  0.00    +0.000 OA
ATOM     32  H   UNL     1       8.282   4.423  14.842  0.00  0.00    +0.000 HD
ENDBRANCH  28  31
BRANCH  30  33
ATOM     33  O   UNL     1       6.731   4.850  19.467  0.00  0.00    +0.000 OA
ATOM     34  H   UNL     1       6.127   4.263  19.952  0.00  0.00    +0.000 HD
ENDBRANCH  30  33
ENDBRANCH  23  25
ENDBRANCH  22  23
ENDBRANCH   5  21
BRANCH  10  35
ATOM     35  C   UNL     1       0.587  14.034  21.220  0.00  0.00    +0.000 C 
BRANCH  35  36
ATOM     36  O   UNL     1       0.236  13.888  22.595  0.00  0.00    +0.000 OA
ATOM     37  H   UNL     1       0.173  14.778  22.988  0.00  0.00    +0.000 HD
ENDBRANCH  35  36
ENDBRANCH  10  35
TORSDOF 10
ENDMDL
MODEL 6
REMARK VINA RESULT:      -7.9      1.370      1.856
REMARK  Name = 
REMARK  11 active torsions:
REMARK  status: ('A' for Active; 'I' for Inactive)
REMARK    1  A    between atoms: C_1  and  O_2
REMARK    2  A    between atoms: O_2  and  C_3
REMARK    3  A    between atoms: C_5  and  C_6
REMARK    4  A    between atoms: C_10  and  C_11
REMARK    5  A    between atoms: C_12  and  C_13
REMARK    6  A    between atoms: C_13  and  C_15
REMARK    7  A    between atoms: C_18  and  O_19
REMARK    8  A    between atoms: C_21  and  O_22
REMARK    9  A    between atoms: C_27  and  C_28
REMARK   10  A    between atoms: C_28  and  O_29
REMARK   11  A    between atoms: C_32  and  O_33
REMARK                            x       y       z     vdW  Elec       q    Type
REMARK                         _______ _______ _______ _____ _____    ______ ____
ROOT
ATOM      1  C   UNL     1      -0.026  11.961  19.071  0.00  0.00    +0.000 C 
ATOM      2  O   UNL     1       0.934  10.876  18.957  0.00  0.00    +0.000 OA
ATOM      3  C   UNL     1       0.853  10.020  20.033  0.00  0.00    +0.000 A 
ATOM      4  C   UNL     1       1.456   8.773  19.875  0.00  0.00    +0.000 A 
ATOM      5  C   UNL     1       1.158   7.747  20.769  0.00  0.00    +0.000 A 
ATOM      6  C   UNL     1       0.191   7.982  21.764  0.00  0.00    +0.000 A 
ATOM      7  C   UNL     1      -0.314   9.270  21.990  0.00  0.00    +0.000 A 
ATOM      8  C   UNL     1       0.078  10.310  21.162  0.00  0.00    +0.000 A 
ATOM      9  O   UNL     1      -0.391  11.577  21.442  0.00  0.00    +0.000 OA
ATOM     10  C   UNL     1       0.152  12.520  20.496  0.00  0.00    +0.000 C 
ENDROOT
BRANCH   1  13
ATOM     11  C   UNL     1      -3.008  10.458  17.071  0.00  0.00    +0.000 A 
ATOM     12  C   UNL     1      -1.714  10.697  17.558  0.00  0.00    +0.000 A 
ATOM     13  C   UNL     1      -1.454  11.567  18.636  0.00  0.00    +0.000 A 
ATOM     14  C   UNL     1      -2.563  12.136  19.278  0.00  0.00    +0.000 A 
ATOM     15  C   UNL     1      -3.857  11.930  18.788  0.00  0.00    +0.000 A 
ATOM     16  C   UNL     1      -4.069  11.139  17.657  0.00  0.00    +0.000 A 
BRANCH  11  18
ATOM     17  C   UNL     1      -3.045  10.206  14.703  0.00  0.00    +0.000 C 
ATOM     18  O   UNL     1      -3.041   9.612  15.994  0.00  0.00    +0.000 OA
ENDBRANCH  11  18
BRANCH  16  19
ATOM     19  O   UNL     1      -5.321  11.115  17.113  0.00  0.00    +0.000 OA
ATOM     20  H   UNL     1      -5.466  10.217  16.764  0.00  0.00    +0.000 HD
ENDBRANCH  16  19
ENDBRANCH   1  13
BRANCH   5  21
ATOM     21  C   UNL     1       1.834   6.444  20.603  0.00  0.00    +0.000 C 
ATOM     22  C   UNL     1       1.218   5.264  20.728  0.00  0.00    +0.000 C 
BRANCH  22  23
ATOM     23  C   UNL     1       1.961   3.989  20.577  0.00  0.00    +0.000 C 
ATOM     24  O   UNL     1       1.766   3.034  21.314  0.00  0.00    +0.000 OA
BRANCH  23  25
ATOM     25  C   UNL     1       2.896   3.877  19.417  0.00  0.00    +0.000 A 
ATOM     26  C   UNL     1       4.256   4.141  19.656  0.00  0.00    +0.000 A 
ATOM     27  C   UNL     1       5.182   4.073  18.614  0.00  0.00    +0.000 A 
ATOM     28  C   UNL     1       4.746   3.754  17.331  0.00  0.00    +0.000 A 
ATOM     29  C   UNL     1       3.401   3.502  17.075  0.00  0.00    +0.000 A 
ATOM     30  C   UNL     1       2.479   3.565  18.118  0.00  0.00    +0.000 A 
BRANCH  28  31
ATOM     31  O   UNL     1       5.609   3.682  16.277  0.00  0.00    +0.000 OA
ATOM     32  H   UNL     1       5.582   4.525  15.794  0.00  0.00    +0.000 HD
ENDBRANCH  28  31
BRANCH  30  33
ATOM     33  O   UNL     1       1.157   3.339  17.838  0.00  0.00    +0.000 OA
ATOM     34  H   UNL     1       1.081   2.585  17.229  0.00  0.00    +0.000 HD
ENDBRANCH  30  33
ENDBRANCH  23  25
ENDBRANCH  22  23
ENDBRANCH   5  21
BRANCH  10  35
ATOM     35  C   UNL     1      -0.399  13.925  20.721  0.00  0.00    +0.000 C 
BRANCH  35  36
ATOM     36  O   UNL     1      -0.790  14.107  22.082  0.00  0.00    +0.000 OA
ATOM     37  H   UNL     1      -1.619  14.619  22.094  0.00  0.00    +0.000 HD
ENDBRANCH  35  36
ENDBRANCH  10  35
TORSDOF 10
ENDMDL
MODEL 7
REMARK VINA RESULT:      -7.9      0.945      1.837
REMARK  Name = 
REMARK  11 active torsions:
REMARK  status: ('A' for Active; 'I' for Inactive)
REMARK    1  A    between atoms: C_1  and  O_2
REMARK    2  A    between atoms: O_2  and  C_3
REMARK    3  A    between atoms: C_5  and  C_6
REMARK    4  A    between atoms: C_10  and  C_11
REMARK    5  A    between atoms: C_12  and  C_13
REMARK    6  A    between atoms: C_13  and  C_15
REMARK    7  A    between atoms: C_18  and  O_19
REMARK    8  A    between atoms: C_21  and  O_22
REMARK    9  A    between atoms: C_27  and  C_28
REMARK   10  A    between atoms: C_28  and  O_29
REMARK   11  A    between atoms: C_32  and  O_33
REMARK                            x       y       z     vdW  Elec       q    Type
REMARK                         _______ _______ _______ _____ _____    ______ ____
ROOT
ATOM      1  C   UNL     1      -0.366  12.387  18.847  0.00  0.00    +0.000 C 
ATOM      2  O   UNL     1       0.648  11.365  18.651  0.00  0.00    +0.000 OA
ATOM      3  C   UNL     1       0.730  10.525  19.740  0.00  0.00    +0.000 A 
ATOM      4  C   UNL     1       1.396   9.317  19.538  0.00  0.00    +0.000 A 
ATOM      5  C   UNL     1       1.255   8.289  20.468  0.00  0.00    +0.000 A 
ATOM      6  C   UNL     1       0.375   8.478  21.550  0.00  0.00    +0.000 A 
ATOM      7  C   UNL     1      -0.191   9.734  21.810  0.00  0.00    +0.000 A 
ATOM      8  C   UNL     1       0.049  10.783  20.936  0.00  0.00    +0.000 A 
ATOM      9  O   UNL     1      -0.475  12.021  21.246  0.00  0.00    +0.000 OA
ATOM     10  C   UNL     1      -0.089  12.981  20.241  0.00  0.00    +0.000 C 
ENDROOT
BRANCH   1  13
ATOM     11  C   UNL     1      -4.228  11.923  19.005  0.00  0.00    +0.000 A 
ATOM     12  C   UNL     1      -2.943  12.466  19.152  0.00  0.00    +0.000 A 
ATOM     13  C   UNL     1      -1.800  11.893  18.558  0.00  0.00    +0.000 A 
ATOM     14  C   UNL     1      -2.003  10.784  17.725  0.00  0.00    +0.000 A 
ATOM     15  C   UNL     1      -3.274  10.214  17.589  0.00  0.00    +0.000 A 
ATOM     16  C   UNL     1      -4.368  10.751  18.271  0.00  0.00    +0.000 A 
BRANCH  11  18
ATOM     17  C   UNL     1      -5.060  12.671  21.107  0.00  0.00    +0.000 C 
ATOM     18  O   UNL     1      -5.195  12.606  19.694  0.00  0.00    +0.000 OA
ENDBRANCH  11  18
BRANCH  16  19
ATOM     19  O   UNL     1      -5.544  10.056  18.251  0.00  0.00    +0.000 OA
ATOM     20  H   UNL     1      -6.231  10.664  17.926  0.00  0.00    +0.000 HD
ENDBRANCH  16  19
ENDBRANCH   1  13
BRANCH   5  21
ATOM     21  C   UNL     1       1.997   7.031  20.251  0.00  0.00    +0.000 C 
ATOM     22  C   UNL     1       2.701   6.761  19.146  0.00  0.00    +0.000 C 
BRANCH  22  23
ATOM     23  C   UNL     1       3.401   5.465  18.978  0.00  0.00    +0.000 C 
ATOM     24  O   UNL     1       3.041   4.453  19.560  0.00  0.00    +0.000 OA
BRANCH  23  25
ATOM     25  C   UNL     1       4.516   5.416  17.984  0.00  0.00    +0.000 A 
ATOM     26  C   UNL     1       4.459   6.315  16.904  0.00  0.00    +0.000 A 
ATOM     27  C   UNL     1       5.458   6.311  15.930  0.00  0.00    +0.000 A 
ATOM     28  C   UNL     1       6.506   5.400  16.027  0.00  0.00    +0.000 A 
ATOM     29  C   UNL     1       6.571   4.495  17.084  0.00  0.00    +0.000 A 
ATOM     30  C   UNL     1       5.575   4.504  18.059  0.00  0.00    +0.000 A 
BRANCH  28  31
ATOM     31  O   UNL     1       7.502   5.350  15.098  0.00  0.00    +0.000 OA
ATOM     32  H   UNL     1       8.138   4.663  15.359  0.00  0.00    +0.000 HD
ENDBRANCH  28  31
BRANCH  30  33
ATOM     33  O   UNL     1       5.645   3.588  19.075  0.00  0.00    +0.000 OA
ATOM     34  H   UNL     1       6.514   3.153  19.056  0.00  0.00    +0.000 HD
ENDBRANCH  30  33
ENDBRANCH  23  25
ENDBRANCH  22  23
ENDBRANCH   5  21
BRANCH  10  35
ATOM     35  C   UNL     1      -0.709  14.351  20.504  0.00  0.00    +0.000 C 
BRANCH  35  36
ATOM     36  O   UNL     1      -0.393  15.263  19.453  0.00  0.00    +0.000 OA
ATOM     37  H   UNL     1      -1.221  15.675  19.148  0.00  0.00    +0.000 HD
ENDBRANCH  35  36
ENDBRANCH  10  35
TORSDOF 10
ENDMDL
MODEL 8
REMARK VINA RESULT:      -7.8      1.112      1.904
REMARK  Name = 
REMARK  11 active torsions:
REMARK  status: ('A' for Active; 'I' for Inactive)
REMARK    1  A    between atoms: C_1  and  O_2
REMARK    2  A    between atoms: O_2  and  C_3
REMARK    3  A    between atoms: C_5  and  C_6
REMARK    4  A    between atoms: C_10  and  C_11
REMARK    5  A    between atoms: C_12  and  C_13
REMARK    6  A    between atoms: C_13  and  C_15
REMARK    7  A    between atoms: C_18  and  O_19
REMARK    8  A    between atoms: C_21  and  O_22
REMARK    9  A    between atoms: C_27  and  C_28
REMARK   10  A    between atoms: C_28  and  O_29
REMARK   11  A    between atoms: C_32  and  O_33
REMARK                            x       y       z     vdW  Elec       q    Type
REMARK                         _______ _______ _______ _____ _____    ______ ____
ROOT
ATOM      1  C   UNL     1       0.229  12.052  19.412  0.00  0.00    +0.000 C 
ATOM      2  O   UNL     1       1.177  10.974  19.186  0.00  0.00    +0.000 OA
ATOM      3  C   UNL     1       1.073  10.003  20.157  0.00  0.00    +0.000 A 
ATOM      4  C   UNL     1       1.662   8.774  19.865  0.00  0.00    +0.000 A 
ATOM      5  C   UNL     1       1.342   7.658  20.634  0.00  0.00    +0.000 A 
ATOM      6  C   UNL     1       0.366   7.792  21.639  0.00  0.00    +0.000 A 
ATOM      7  C   UNL     1      -0.126   9.052  22.004  0.00  0.00    +0.000 A 
ATOM      8  C   UNL     1       0.288  10.174  21.304  0.00  0.00    +0.000 A 
ATOM      9  O   UNL     1      -0.169  11.407  21.721  0.00  0.00    +0.000 OA
ATOM     10  C   UNL     1       0.397  12.444  20.893  0.00  0.00    +0.000 C 
ENDROOT
BRANCH   1  13
ATOM     11  C   UNL     1      -3.649  11.988  19.077  0.00  0.00    +0.000 A 
ATOM     12  C   UNL     1      -2.346  12.384  19.414  0.00  0.00    +0.000 A 
ATOM     13  C   UNL     1      -1.198  11.729  18.921  0.00  0.00    +0.000 A 
ATOM     14  C   UNL     1      -1.402  10.699  17.993  0.00  0.00    +0.000 A 
ATOM     15  C   UNL     1      -2.694  10.274  17.667  0.00  0.00    +0.000 A 
ATOM     16  C   UNL     1      -3.809  10.882  18.251  0.00  0.00    +0.000 A 
BRANCH  11  18
ATOM     17  C   UNL     1      -4.647  12.713  21.113  0.00  0.00    +0.000 C 
ATOM     18  O   UNL     1      -4.623  12.728  19.693  0.00  0.00    +0.000 OA
ENDBRANCH  11  18
BRANCH  16  19
ATOM     19  O   UNL     1      -5.034  10.317  18.042  0.00  0.00    +0.000 OA
ATOM     20  H   UNL     1      -5.689  11.037  18.057  0.00  0.00    +0.000 HD
ENDBRANCH  16  19
ENDBRANCH   1  13
BRANCH   5  21
ATOM     21  C   UNL     1       2.003   6.374  20.329  0.00  0.00    +0.000 C 
ATOM     22  C   UNL     1       2.960   6.228  19.406  0.00  0.00    +0.000 C 
BRANCH  22  23
ATOM     23  C   UNL     1       3.566   4.904  19.126  0.00  0.00    +0.000 C 
ATOM     24  O   UNL     1       3.103   3.870  19.585  0.00  0.00    +0.000 OA
BRANCH  23  25
ATOM     25  C   UNL     1       4.717   4.867  18.173  0.00  0.00    +0.000 A 
ATOM     26  C   UNL     1       4.424   4.663  16.814  0.00  0.00    +0.000 A 
ATOM     27  C   UNL     1       5.453   4.600  15.873  0.00  0.00    +0.000 A 
ATOM     28  C   UNL     1       6.773   4.728  16.292  0.00  0.00    +0.000 A 
ATOM     29  C   UNL     1       7.081   4.919  17.637  0.00  0.00    +0.000 A 
ATOM     30  C   UNL     1       6.052   4.987  18.575  0.00  0.00    +0.000 A 
BRANCH  28  31
ATOM     31  O   UNL     1       7.815   4.666  15.414  0.00  0.00    +0.000 OA
ATOM     32  H   UNL     1       7.813   3.792  14.990  0.00  0.00    +0.000 HD
ENDBRANCH  28  31
BRANCH  30  33
ATOM     33  O   UNL     1       6.380   5.149  19.895  0.00  0.00    +0.000 OA
ATOM     34  H   UNL     1       6.012   5.989  20.217  0.00  0.00    +0.000 HD
ENDBRANCH  30  33
ENDBRANCH  23  25
ENDBRANCH  22  23
ENDBRANCH   5  21
BRANCH  10  35
ATOM     35  C   UNL     1      -0.140  13.822  21.270  0.00  0.00    +0.000 C 
BRANCH  35  36
ATOM     36  O   UNL     1      -0.065  14.030  22.680  0.00  0.00    +0.000 OA
ATOM     37  H   UNL     1      -0.973  14.066  23.031  0.00  0.00    +0.000 HD
ENDBRANCH  35  36
ENDBRANCH  10  35
TORSDOF 10
ENDMDL
MODEL 9
REMARK VINA RESULT:      -7.7      1.129      1.970
REMARK  Name = 
REMARK  11 active torsions:
REMARK  status: ('A' for Active; 'I' for Inactive)
REMARK    1  A    between atoms: C_1  and  O_2
REMARK    2  A    between atoms: O_2  and  C_3
REMARK    3  A    between atoms: C_5  and  C_6
REMARK    4  A    between atoms: C_10  and  C_11
REMARK    5  A    between atoms: C_12  and  C_13
REMARK    6  A    between atoms: C_13  and  C_15
REMARK    7  A    between atoms: C_18  and  O_19
REMARK    8  A    between atoms: C_21  and  O_22
REMARK    9  A    between atoms: C_27  and  C_28
REMARK   10  A    between atoms: C_28  and  O_29
REMARK   11  A    between atoms: C_32  and  O_33
REMARK                            x       y       z     vdW  Elec       q    Type
REMARK                         _______ _______ _______ _____ _____    ______ ____
ROOT
ATOM      1  C   UNL     1       0.059  12.424  20.058  0.00  0.00    +0.000 C 
ATOM      2  O   UNL     1       1.023  11.373  19.778  0.00  0.00    +0.000 OA
ATOM      3  C   UNL     1       0.860  10.304  20.631  0.00  0.00    +0.000 A 
ATOM      4  C   UNL     1       1.470   9.110  20.247  0.00  0.00    +0.000 A 
ATOM      5  C   UNL     1       1.104   7.919  20.869  0.00  0.00    +0.000 A 
ATOM      6  C   UNL     1       0.064   7.948  21.818  0.00  0.00    +0.000 A 
ATOM      7  C   UNL     1      -0.454   9.164  22.284  0.00  0.00    +0.000 A 
ATOM      8  C   UNL     1       0.002  10.353  21.736  0.00  0.00    +0.000 A 
ATOM      9  O   UNL     1      -0.485  11.536  22.253  0.00  0.00    +0.000 OA
ATOM     10  C   UNL     1       0.130  12.653  21.580  0.00  0.00    +0.000 C 
ENDROOT
BRANCH   1  13
ATOM     11  C   UNL     1      -3.790  12.399  19.477  0.00  0.00    +0.000 A 
ATOM     12  C   UNL     1      -2.513  12.752  19.938  0.00  0.00    +0.000 A 
ATOM     13  C   UNL     1      -1.332  12.162  19.443  0.00  0.00    +0.000 A 
ATOM     14  C   UNL     1      -1.471  11.249  18.389  0.00  0.00    +0.000 A 
ATOM     15  C   UNL     1      -2.737  10.865  17.934  0.00  0.00    +0.000 A 
ATOM     16  C   UNL     1      -3.890  11.399  18.516  0.00  0.00    +0.000 A 
BRANCH  11  18
ATOM     17  C   UNL     1      -5.226  12.545  21.370  0.00  0.00    +0.000 C 
ATOM     18  O   UNL     1      -4.806  13.060  20.114  0.00  0.00    +0.000 OA
ENDBRANCH  11  18
BRANCH  16  19
ATOM     19  O   UNL     1      -5.096  10.863  18.166  0.00  0.00    +0.000 OA
ATOM     20  H   UNL     1      -4.974  10.420  17.308  0.00  0.00    +0.000 HD
ENDBRANCH  16  19
ENDBRANCH   1  13
BRANCH   5  21
ATOM     21  C   UNL     1       1.787   6.672  20.471  0.00  0.00    +0.000 C 
ATOM     22  C   UNL     1       2.492   6.536  19.343  0.00  0.00    +0.000 C 
BRANCH  22  23
ATOM     23  C   UNL     1       3.132   5.247  18.986  0.00  0.00    +0.000 C 
ATOM     24  O   UNL     1       2.835   4.200  19.541  0.00  0.00    +0.000 OA
BRANCH  23  25
ATOM     25  C   UNL     1       4.094   5.256  17.842  0.00  0.00    +0.000 A 
ATOM     26  C   UNL     1       4.289   6.476  17.171  0.00  0.00    +0.000 A 
ATOM     27  C   UNL     1       5.160   6.551  16.083  0.00  0.00    +0.000 A 
ATOM     28  C   UNL     1       5.825   5.406  15.658  0.00  0.00    +0.000 A 
ATOM     29  C   UNL     1       5.634   4.187  16.304  0.00  0.00    +0.000 A 
ATOM     30  C   UNL     1       4.768   4.114  17.394  0.00  0.00    +0.000 A 
BRANCH  28  31
ATOM     31  O   UNL     1       6.680   5.424  14.596  0.00  0.00    +0.000 OA
ATOM     32  H   UNL     1       6.285   4.914  13.869  0.00  0.00    +0.000 HD
ENDBRANCH  28  31
BRANCH  30  33
ATOM     33  O   UNL     1       4.576   2.900  17.997  0.00  0.00    +0.000 OA
ATOM     34  H   UNL     1       4.918   2.196  17.421  0.00  0.00    +0.000 HD
ENDBRANCH  30  33
ENDBRANCH  23  25
ENDBRANCH  22  23
ENDBRANCH   5  21
BRANCH  10  35
ATOM     35  C   UNL     1      -0.434  13.985  22.067  0.00  0.00    +0.000 C 
BRANCH  35  36
ATOM     36  O   UNL     1      -1.195  13.809  23.262  0.00  0.00    +0.000 OA
ATOM     37  H   UNL     1      -1.667  12.960  23.199  0.00  0.00    +0.000 HD
ENDBRANCH  35  36
ENDBRANCH  10  35
TORSDOF 10
ENDMDL
