MODEL 1
REMARK VINA RESULT:      -9.5      0.000      0.000
REMARK  Name = 
REMARK  4 active torsions:
REMARK  status: ('A' for Active; 'I' for Inactive)
REMARK    1  A    between atoms: C_1  and  N_2
REMARK    2  A    between atoms: C_6  and  C_7
REMARK    3  A    between atoms: C_9  and  C_10
REMARK    4  A    between atoms: C_14  and  C_15
REMARK                            x       y       z     vdW  Elec       q    Type
REMARK                         _______ _______ _______ _____ _____    ______ ____
ROOT
ATOM      1  C   UNL     1       2.373   1.967  19.628  0.00  0.00    +0.000 C 
ATOM      2  N   UNL     1       2.450   3.365  19.239  0.00  0.00    +0.000 N 
ATOM      3  C   UNL     1       2.442   3.794  17.936  0.00  0.00    +0.000 C 
ATOM      4  N   UNL     1       2.638   3.018  16.928  0.00  0.00    +0.000 NA
ATOM      5  N   UNL     1       2.300   5.146  17.728  0.00  0.00    +0.000 N 
ATOM      6  C   UNL     1       3.252   5.931  18.560  0.00  0.00    +0.000 C 
ATOM      7  C   UNL     1       3.128   7.480  18.482  0.00  0.00    +0.000 C 
ATOM      8  N   UNL     1       2.095   7.847  19.424  0.00  0.00    +0.000 N 
ATOM      9  C   UNL     1       1.404   9.009  19.296  0.00  0.00    +0.000 A 
ATOM     10  N   UNL     1       1.821   9.896  18.371  0.00  0.00    +0.000 NA
ATOM     11  C   UNL     1       1.143  11.059  18.264  0.00  0.00    +0.000 A 
ATOM     12  C   UNL     1       0.067  11.381  19.048  0.00  0.00    +0.000 A 
ATOM     13 CL   UNL     1      -0.773  12.859  18.889  0.00  0.00    +0.000 Cl
ATOM     14  C   UNL     1      -0.284  10.425  19.967  0.00  0.00    +0.000 A 
ATOM     15  N   UNL     1       0.359   9.241  20.104  0.00  0.00    +0.000 NA
ATOM     16  C   UNL     1       1.640   6.710  20.188  0.00  0.00    +0.000 C 
ATOM     17  C   UNL     1       2.772   5.666  19.996  0.00  0.00    +0.000 C 
ATOM     18  C   UNL     1       2.127   4.307  20.192  0.00  0.00    +0.000 C 
ATOM     19  O   UNL     1       1.373   4.077  21.138  0.00  0.00    +0.000 OA
ATOM     20  H   UNL     1       2.824   2.062  17.236  0.00  0.00    +0.000 HD
ATOM     21  H   UNL     1       2.380   5.343  16.736  0.00  0.00    +0.000 HD
ENDROOT
BRANCH   6  22
ATOM     22  C   UNL     1       4.651   5.600  18.026  0.00  0.00    +0.000 A 
ATOM     23  C   UNL     1       5.012   5.879  16.711  0.00  0.00    +0.000 A 
ATOM     24  C   UNL     1       6.055   5.041  16.227  0.00  0.00    +0.000 A 
ATOM     25  C   UNL     1       6.737   4.501  17.300  0.00  0.00    +0.000 A 
ATOM     26  S   UNL     1       5.889   4.735  18.799  0.00  0.00    +0.000 S 
BRANCH  24  27
ATOM     27  C   UNL     1       6.289   4.707  14.808  0.00  0.00    +0.000 A 
ATOM     28  C   UNL     1       7.502   5.118  14.208  0.00  0.00    +0.000 A 
ATOM     29  C   UNL     1       7.760   4.910  12.850  0.00  0.00    +0.000 A 
ATOM     30  C   UNL     1       6.801   4.295  12.057  0.00  0.00    +0.000 A 
ATOM     31  C   UNL     1       5.591   3.881  12.626  0.00  0.00    +0.000 A 
ATOM     32  C   UNL     1       5.343   4.080  14.002  0.00  0.00    +0.000 A 
BRANCH  31  33
ATOM     33  C   UNL     1       4.593   3.284  11.799  0.00  0.00    +0.000 C 
ATOM     34  N   UNL     1       3.779   2.790  11.120  0.00  0.00    +0.000 NA
ENDBRANCH  31  33
ENDBRANCH  24  27
ENDBRANCH   6  22
TORSDOF 3
ENDMDL
MODEL 2
REMARK VINA RESULT:      -7.5      1.170      1.436
REMARK  Name = 
REMARK  4 active torsions:
REMARK  status: ('A' for Active; 'I' for Inactive)
REMARK    1  A    between atoms: C_1  and  N_2
REMARK    2  A    between atoms: C_6  and  C_7
REMARK    3  A    between atoms: C_9  and  C_10
REMARK    4  A    between atoms: C_14  and  C_15
REMARK                            x       y       z     vdW  Elec       q    Type
REMARK                         _______ _______ _______ _____ _____    ______ ____
ROOT
ATOM      1  C   UNL     1       3.667   1.522  19.150  0.00  0.00    +0.000 C 
ATOM      2  N   UNL     1       3.475   2.907  18.756  0.00  0.00    +0.000 N 
ATOM      3  C   UNL     1       3.023   3.291  17.519  0.00  0.00    +0.000 C 
ATOM      4  N   UNL     1       2.980   2.507  16.500  0.00  0.00    +0.000 NA
ATOM      5  N   UNL     1       2.684   4.615  17.366  0.00  0.00    +0.000 N 
ATOM      6  C   UNL     1       3.757   5.517  17.863  0.00  0.00    +0.000 C 
ATOM      7  C   UNL     1       3.455   7.043  17.827  0.00  0.00    +0.000 C 
ATOM      8  N   UNL     1       2.729   7.335  19.042  0.00  0.00    +0.000 N 
ATOM      9  C   UNL     1       1.914   8.418  19.134  0.00  0.00    +0.000 A 
ATOM     10  N   UNL     1       1.933   9.312  18.126  0.00  0.00    +0.000 NA
ATOM     11  C   UNL     1       1.137  10.399  18.233  0.00  0.00    +0.000 A 
ATOM     12  C   UNL     1       0.326  10.637  19.311  0.00  0.00    +0.000 A 
ATOM     13 CL   UNL     1      -0.671  12.018  19.419  0.00  0.00    +0.000 Cl
ATOM     14  C   UNL     1       0.376   9.680  20.294  0.00  0.00    +0.000 A 
ATOM     15  N   UNL     1       1.149   8.571  20.225  0.00  0.00    +0.000 NA
ATOM     16  C   UNL     1       2.651   6.183  19.910  0.00  0.00    +0.000 C 
ATOM     17  C   UNL     1       3.772   5.252  19.377  0.00  0.00    +0.000 C 
ATOM     18  C   UNL     1       3.364   3.842  19.762  0.00  0.00    +0.000 C 
ATOM     19  O   UNL     1       2.964   3.569  20.895  0.00  0.00    +0.000 OA
ATOM     20  H   UNL     1       3.350   1.584  16.735  0.00  0.00    +0.000 HD
ATOM     21  H   UNL     1       2.434   4.787  16.397  0.00  0.00    +0.000 HD
ENDROOT
BRANCH   6  22
ATOM     22  C   UNL     1       4.951   5.310  16.923  0.00  0.00    +0.000 A 
ATOM     23  C   UNL     1       4.791   5.268  15.541  0.00  0.00    +0.000 A 
ATOM     24  C   UNL     1       5.814   4.532  14.881  0.00  0.00    +0.000 A 
ATOM     25  C   UNL     1       6.918   4.450  15.707  0.00  0.00    +0.000 A 
ATOM     26  S   UNL     1       6.556   4.938  17.334  0.00  0.00    +0.000 S 
BRANCH  24  27
ATOM     27  C   UNL     1       5.670   3.860  13.574  0.00  0.00    +0.000 A 
ATOM     28  C   UNL     1       6.722   3.030  13.122  0.00  0.00    +0.000 A 
ATOM     29  C   UNL     1       6.695   2.425  11.861  0.00  0.00    +0.000 A 
ATOM     30  C   UNL     1       5.614   2.650  11.019  0.00  0.00    +0.000 A 
ATOM     31  C   UNL     1       4.561   3.468  11.442  0.00  0.00    +0.000 A 
ATOM     32  C   UNL     1       4.589   4.063  12.723  0.00  0.00    +0.000 A 
BRANCH  31  33
ATOM     33  C   UNL     1       3.472   3.726  10.557  0.00  0.00    +0.000 C 
ATOM     34  N   UNL     1       2.578   3.943   9.834  0.00  0.00    +0.000 NA
ENDBRANCH  31  33
ENDBRANCH  24  27
ENDBRANCH   6  22
TORSDOF 3
ENDMDL
MODEL 3
REMARK VINA RESULT:      -7.1      4.984      8.414
REMARK  Name = 
REMARK  4 active torsions:
REMARK  status: ('A' for Active; 'I' for Inactive)
REMARK    1  A    between atoms: C_1  and  N_2
REMARK    2  A    between atoms: C_6  and  C_7
REMARK    3  A    between atoms: C_9  and  C_10
REMARK    4  A    between atoms: C_14  and  C_15
REMARK                            x       y       z     vdW  Elec       q    Type
REMARK                         _______ _______ _______ _____ _____    ______ ____
ROOT
ATOM      1  C   UNL     1       2.023  13.193  18.405  0.00  0.00    +0.000 C 
ATOM      2  N   UNL     1       1.003  12.945  19.409  0.00  0.00    +0.000 N 
ATOM      3  C   UNL     1       1.201  13.118  20.755  0.00  0.00    +0.000 C 
ATOM      4  N   UNL     1       2.362  13.252  21.295  0.00  0.00    +0.000 NA
ATOM      5  N   UNL     1       0.087  13.057  21.560  0.00  0.00    +0.000 N 
ATOM      6  C   UNL     1      -0.728  11.845  21.276  0.00  0.00    +0.000 C 
ATOM      7  C   UNL     1      -2.064  11.707  22.060  0.00  0.00    +0.000 C 
ATOM      8  N   UNL     1      -3.044  12.467  21.317  0.00  0.00    +0.000 N 
ATOM      9  C   UNL     1      -4.161  12.956  21.918  0.00  0.00    +0.000 A 
ATOM     10  N   UNL     1      -4.422  12.567  23.181  0.00  0.00    +0.000 NA
ATOM     11  C   UNL     1      -5.546  13.038  23.764  0.00  0.00    +0.000 A 
ATOM     12  C   UNL     1      -6.428  13.877  23.136  0.00  0.00    +0.000 A 
ATOM     13 CL   UNL     1      -7.840  14.459  23.899  0.00  0.00    +0.000 Cl
ATOM     14  C   UNL     1      -6.088  14.215  21.850  0.00  0.00    +0.000 A 
ATOM     15  N   UNL     1      -4.968  13.776  21.229  0.00  0.00    +0.000 NA
ATOM     16  C   UNL     1      -2.505  12.966  20.074  0.00  0.00    +0.000 C 
ATOM     17  C   UNL     1      -1.244  12.090  19.849  0.00  0.00    +0.000 C 
ATOM     18  C   UNL     1      -0.308  12.916  18.985  0.00  0.00    +0.000 C 
ATOM     19  O   UNL     1      -0.707  13.511  17.983  0.00  0.00    +0.000 OA
ATOM     20  H   UNL     1       3.099  13.183  20.591  0.00  0.00    +0.000 HD
ATOM     21  H   UNL     1       0.372  13.129  22.532  0.00  0.00    +0.000 HD
ENDROOT
BRANCH   6  22
ATOM     22  C   UNL     1       0.130  10.649  21.707  0.00  0.00    +0.000 A 
ATOM     23  C   UNL     1       1.040  10.056  20.837  0.00  0.00    +0.000 A 
ATOM     24  C   UNL     1       1.309   8.694  21.151  0.00  0.00    +0.000 A 
ATOM     25  C   UNL     1       0.970   8.458  22.469  0.00  0.00    +0.000 A 
ATOM     26  S   UNL     1       0.033   9.756  23.146  0.00  0.00    +0.000 S 
BRANCH  24  27
ATOM     27  C   UNL     1       1.761   7.672  20.186  0.00  0.00    +0.000 A 
ATOM     28  C   UNL     1       2.150   8.090  18.892  0.00  0.00    +0.000 A 
ATOM     29  C   UNL     1       2.512   7.174  17.899  0.00  0.00    +0.000 A 
ATOM     30  C   UNL     1       2.480   5.814  18.179  0.00  0.00    +0.000 A 
ATOM     31  C   UNL     1       2.097   5.375  19.451  0.00  0.00    +0.000 A 
ATOM     32  C   UNL     1       1.747   6.307  20.454  0.00  0.00    +0.000 A 
BRANCH  31  33
ATOM     33  C   UNL     1       2.029   3.976  19.721  0.00  0.00    +0.000 C 
ATOM     34  N   UNL     1       1.968   2.828  19.939  0.00  0.00    +0.000 NA
ENDBRANCH  31  33
ENDBRANCH  24  27
ENDBRANCH   6  22
TORSDOF 3
ENDMDL
MODEL 4
REMARK VINA RESULT:      -7.1      1.371      1.770
REMARK  Name = 
REMARK  4 active torsions:
REMARK  status: ('A' for Active; 'I' for Inactive)
REMARK    1  A    between atoms: C_1  and  N_2
REMARK    2  A    between atoms: C_6  and  C_7
REMARK    3  A    between atoms: C_9  and  C_10
REMARK    4  A    between atoms: C_14  and  C_15
REMARK                            x       y       z     vdW  Elec       q    Type
REMARK                         _______ _______ _______ _____ _____    ______ ____
ROOT
ATOM      1  C   UNL     1       2.082   1.737  19.512  0.00  0.00    +0.000 C 
ATOM      2  N   UNL     1       2.168   3.177  19.344  0.00  0.00    +0.000 N 
ATOM      3  C   UNL     1       2.198   3.801  18.122  0.00  0.00    +0.000 C 
ATOM      4  N   UNL     1       2.424   3.188  17.013  0.00  0.00    +0.000 NA
ATOM      5  N   UNL     1       2.059   5.169  18.120  0.00  0.00    +0.000 N 
ATOM      6  C   UNL     1       2.986   5.815  19.088  0.00  0.00    +0.000 C 
ATOM      7  C   UNL     1       2.862   7.358  19.245  0.00  0.00    +0.000 C 
ATOM      8  N   UNL     1       1.802   7.579  20.202  0.00  0.00    +0.000 N 
ATOM      9  C   UNL     1       1.113   8.750  20.233  0.00  0.00    +0.000 A 
ATOM     10  N   UNL     1       1.556   9.766  19.468  0.00  0.00    +0.000 NA
ATOM     11  C   UNL     1       0.879  10.934  19.521  0.00  0.00    +0.000 A 
ATOM     12  C   UNL     1      -0.219  11.136  20.314  0.00  0.00    +0.000 A 
ATOM     13 CL   UNL     1      -1.057  12.623  20.359  0.00  0.00    +0.000 Cl
ATOM     14  C   UNL     1      -0.596  10.051  21.065  0.00  0.00    +0.000 A 
ATOM     15  N   UNL     1       0.044   8.858  21.037  0.00  0.00    +0.000 NA
ATOM     16  C   UNL     1       1.326   6.340  20.770  0.00  0.00    +0.000 C 
ATOM     17  C   UNL     1       2.465   5.335  20.453  0.00  0.00    +0.000 C 
ATOM     18  C   UNL     1       1.817   3.963  20.420  0.00  0.00    +0.000 C 
ATOM     19  O   UNL     1       1.036   3.594  21.298  0.00  0.00    +0.000 OA
ATOM     20  H   UNL     1       2.602   2.196  17.177  0.00  0.00    +0.000 HD
ATOM     21  H   UNL     1       2.168   5.515  17.172  0.00  0.00    +0.000 HD
ENDROOT
BRANCH   6  22
ATOM     22  C   UNL     1       4.400   5.566  18.551  0.00  0.00    +0.000 A 
ATOM     23  C   UNL     1       4.747   5.886  17.241  0.00  0.00    +0.000 A 
ATOM     24  C   UNL     1       5.832   5.110  16.744  0.00  0.00    +0.000 A 
ATOM     25  C   UNL     1       6.540   4.588  17.809  0.00  0.00    +0.000 A 
ATOM     26  S   UNL     1       5.681   4.752  19.310  0.00  0.00    +0.000 S 
BRANCH  24  27
ATOM     27  C   UNL     1       6.083   4.814  15.320  0.00  0.00    +0.000 A 
ATOM     28  C   UNL     1       5.508   3.648  14.761  0.00  0.00    +0.000 A 
ATOM     29  C   UNL     1       5.767   3.257  13.444  0.00  0.00    +0.000 A 
ATOM     30  C   UNL     1       6.618   4.022  12.658  0.00  0.00    +0.000 A 
ATOM     31  C   UNL     1       7.201   5.179  13.187  0.00  0.00    +0.000 A 
ATOM     32  C   UNL     1       6.923   5.575  14.515  0.00  0.00    +0.000 A 
BRANCH  31  33
ATOM     33  C   UNL     1       8.105   5.940  12.388  0.00  0.00    +0.000 C 
ATOM     34  N   UNL     1       8.850   6.565  11.738  0.00  0.00    +0.000 NA
ENDBRANCH  31  33
ENDBRANCH  24  27
ENDBRANCH   6  22
TORSDOF 3
ENDMDL
MODEL 5
REMARK VINA RESULT:      -7.0      4.059      6.993
REMARK  Name = 
REMARK  4 active torsions:
REMARK  status: ('A' for Active; 'I' for Inactive)
REMARK    1  A    between atoms: C_1  and  N_2
REMARK    2  A    between atoms: C_6  and  C_7
REMARK    3  A    between atoms: C_9  and  C_10
REMARK    4  A    between atoms: C_14  and  C_15
REMARK                            x       y       z     vdW  Elec       q    Type
REMARK                         _______ _______ _______ _____ _____    ______ ____
ROOT
ATOM      1  C   UNL     1      -2.972   9.756  17.772  0.00  0.00    +0.000 C 
ATOM      2  N   UNL     1      -1.864  10.460  18.393  0.00  0.00    +0.000 N 
ATOM      3  C   UNL     1      -0.555  10.310  18.010  0.00  0.00    +0.000 C 
ATOM      4  N   UNL     1      -0.136   9.351  17.261  0.00  0.00    +0.000 NA
ATOM      5  N   UNL     1       0.352  11.199  18.537  0.00  0.00    +0.000 N 
ATOM      6  C   UNL     1       0.221  11.302  20.015  0.00  0.00    +0.000 C 
ATOM      7  C   UNL     1       1.134  12.345  20.722  0.00  0.00    +0.000 C 
ATOM      8  N   UNL     1       0.441  13.610  20.632  0.00  0.00    +0.000 N 
ATOM      9  C   UNL     1       1.111  14.789  20.709  0.00  0.00    +0.000 A 
ATOM     10  N   UNL     1       2.415  14.755  21.046  0.00  0.00    +0.000 NA
ATOM     11  C   UNL     1       3.070  15.933  21.143  0.00  0.00    +0.000 A 
ATOM     12  C   UNL     1       2.476  17.148  20.925  0.00  0.00    +0.000 A 
ATOM     13 CL   UNL     1       3.330  18.621  21.051  0.00  0.00    +0.000 Cl
ATOM     14  C   UNL     1       1.146  17.089  20.594  0.00  0.00    +0.000 A 
ATOM     15  N   UNL     1       0.451  15.933  20.475  0.00  0.00    +0.000 NA
ATOM     16  C   UNL     1      -0.876  13.459  20.059  0.00  0.00    +0.000 C 
ATOM     17  C   UNL     1      -1.164  11.941  20.206  0.00  0.00    +0.000 C 
ATOM     18  C   UNL     1      -2.160  11.595  19.116  0.00  0.00    +0.000 C 
ATOM     19  O   UNL     1      -3.156  12.289  18.904  0.00  0.00    +0.000 OA
ATOM     20  H   UNL     1      -0.901   8.716  17.023  0.00  0.00    +0.000 HD
ATOM     21  H   UNL     1       1.286  10.942  18.235  0.00  0.00    +0.000 HD
ENDROOT
BRANCH   6  22
ATOM     22  C   UNL     1       0.644   9.937  20.573  0.00  0.00    +0.000 A 
ATOM     23  C   UNL     1       1.749   9.257  20.071  0.00  0.00    +0.000 A 
ATOM     24  C   UNL     1       1.672   7.848  20.259  0.00  0.00    +0.000 A 
ATOM     25  C   UNL     1       0.775   7.575  21.273  0.00  0.00    +0.000 A 
ATOM     26  S   UNL     1      -0.177   8.966  21.697  0.00  0.00    +0.000 S 
BRANCH  24  27
ATOM     27  C   UNL     1       2.350   6.840  19.420  0.00  0.00    +0.000 A 
ATOM     28  C   UNL     1       2.257   5.478  19.793  0.00  0.00    +0.000 A 
ATOM     29  C   UNL     1       2.938   4.475  19.097  0.00  0.00    +0.000 A 
ATOM     30  C   UNL     1       3.740   4.817  18.016  0.00  0.00    +0.000 A 
ATOM     31  C   UNL     1       3.850   6.157  17.627  0.00  0.00    +0.000 A 
ATOM     32  C   UNL     1       3.147   7.163  18.327  0.00  0.00    +0.000 A 
BRANCH  31  33
ATOM     33  C   UNL     1       4.705   6.505  16.540  0.00  0.00    +0.000 C 
ATOM     34  N   UNL     1       5.410   6.795  15.652  0.00  0.00    +0.000 NA
ENDBRANCH  31  33
ENDBRANCH  24  27
ENDBRANCH   6  22
TORSDOF 3
ENDMDL
MODEL 6
REMARK VINA RESULT:      -6.8      8.655     10.444
REMARK  Name = 
REMARK  4 active torsions:
REMARK  status: ('A' for Active; 'I' for Inactive)
REMARK    1  A    between atoms: C_1  and  N_2
REMARK    2  A    between atoms: C_6  and  C_7
REMARK    3  A    between atoms: C_9  and  C_10
REMARK    4  A    between atoms: C_14  and  C_15
REMARK                            x       y       z     vdW  Elec       q    Type
REMARK                         _______ _______ _______ _____ _____    ______ ____
ROOT
ATOM      1  C   UNL     1      -1.815  15.206  22.618  0.00  0.00    +0.000 C 
ATOM      2  N   UNL     1      -0.666  14.911  21.781  0.00  0.00    +0.000 N 
ATOM      3  C   UNL     1      -0.729  14.791  20.415  0.00  0.00    +0.000 C 
ATOM      4  N   UNL     1      -1.829  14.657  19.761  0.00  0.00    +0.000 NA
ATOM      5  N   UNL     1       0.468  14.729  19.741  0.00  0.00    +0.000 N 
ATOM      6  C   UNL     1       1.381  13.718  20.339  0.00  0.00    +0.000 C 
ATOM      7  C   UNL     1       2.805  13.615  19.720  0.00  0.00    +0.000 C 
ATOM      8  N   UNL     1       3.599  14.631  20.372  0.00  0.00    +0.000 N 
ATOM      9  C   UNL     1       4.712  15.143  19.784  0.00  0.00    +0.000 A 
ATOM     10  N   UNL     1       5.158  14.557  18.656  0.00  0.00    +0.000 NA
ATOM     11  C   UNL     1       6.278  15.056  18.089  0.00  0.00    +0.000 A 
ATOM     12  C   UNL     1       6.980  16.113  18.605  0.00  0.00    +0.000 A 
ATOM     13 CL   UNL     1       8.391  16.725  17.864  0.00  0.00    +0.000 Cl
ATOM     14  C   UNL     1       6.459  16.644  19.758  0.00  0.00    +0.000 A 
ATOM     15  N   UNL     1       5.335  16.184  20.357  0.00  0.00    +0.000 NA
ATOM     16  C   UNL     1       2.868  15.283  21.434  0.00  0.00    +0.000 C 
ATOM     17  C   UNL     1       1.701  14.303  21.724  0.00  0.00    +0.000 C 
ATOM     18  C   UNL     1       0.584  15.143  22.314  0.00  0.00    +0.000 C 
ATOM     19  O   UNL     1       0.794  15.970  23.202  0.00  0.00    +0.000 OA
ATOM     20  H   UNL     1      -2.628  14.625  20.397  0.00  0.00    +0.000 HD
ATOM     21  H   UNL     1       0.289  14.571  18.754  0.00  0.00    +0.000 HD
ENDROOT
BRANCH   6  22
ATOM     22  C   UNL     1       0.723  12.355  20.091  0.00  0.00    +0.000 A 
ATOM     23  C   UNL     1       0.170  12.028  18.857  0.00  0.00    +0.000 A 
ATOM     24  C   UNL     1      -0.852  11.042  18.945  0.00  0.00    +0.000 A 
ATOM     25  C   UNL     1      -0.711  10.347  20.130  0.00  0.00    +0.000 A 
ATOM     26  S   UNL     1       0.395  11.130  21.219  0.00  0.00    +0.000 S 
BRANCH  24  27
ATOM     27  C   UNL     1      -1.958  10.875  17.981  0.00  0.00    +0.000 A 
ATOM     28  C   UNL     1      -1.752  10.044  16.854  0.00  0.00    +0.000 A 
ATOM     29  C   UNL     1      -2.721   9.900  15.857  0.00  0.00    +0.000 A 
ATOM     30  C   UNL     1      -3.917  10.598  15.960  0.00  0.00    +0.000 A 
ATOM     31  C   UNL     1      -4.145  11.428  17.063  0.00  0.00    +0.000 A 
ATOM     32  C   UNL     1      -3.167  11.556  18.075  0.00  0.00    +0.000 A 
BRANCH  31  33
ATOM     33  C   UNL     1      -5.360  12.171  17.144  0.00  0.00    +0.000 C 
ATOM     34  N   UNL     1      -6.354  12.784  17.216  0.00  0.00    +0.000 NA
ENDBRANCH  31  33
ENDBRANCH  24  27
ENDBRANCH   6  22
TORSDOF 3
ENDMDL
MODEL 7
REMARK VINA RESULT:      -6.8      6.738     10.023
REMARK  Name = 
REMARK  4 active torsions:
REMARK  status: ('A' for Active; 'I' for Inactive)
REMARK    1  A    between atoms: C_1  and  N_2
REMARK    2  A    between atoms: C_6  and  C_7
REMARK    3  A    between atoms: C_9  and  C_10
REMARK    4  A    between atoms: C_14  and  C_15
REMARK                            x       y       z     vdW  Elec       q    Type
REMARK                         _______ _______ _______ _____ _____    ______ ____
ROOT
ATOM      1  C   UNL     1       1.466   8.509  20.460  0.00  0.00    +0.000 C 
ATOM      2  N   UNL     1       0.533   9.611  20.612  0.00  0.00    +0.000 N 
ATOM      3  C   UNL     1      -0.213  10.125  19.581  0.00  0.00    +0.000 C 
ATOM      4  N   UNL     1       0.021   9.881  18.339  0.00  0.00    +0.000 NA
ATOM      5  N   UNL     1      -1.207  11.014  19.917  0.00  0.00    +0.000 N 
ATOM      6  C   UNL     1      -0.701  12.086  20.817  0.00  0.00    +0.000 C 
ATOM      7  C   UNL     1      -1.753  13.106  21.342  0.00  0.00    +0.000 C 
ATOM      8  N   UNL     1      -2.356  12.496  22.505  0.00  0.00    +0.000 N 
ATOM      9  C   UNL     1      -3.594  12.860  22.931  0.00  0.00    +0.000 A 
ATOM     10  N   UNL     1      -4.175  13.926  22.349  0.00  0.00    +0.000 NA
ATOM     11  C   UNL     1      -5.396  14.297  22.792  0.00  0.00    +0.000 A 
ATOM     12  C   UNL     1      -6.061  13.652  23.801  0.00  0.00    +0.000 A 
ATOM     13 CL   UNL     1      -7.606  14.141  24.340  0.00  0.00    +0.000 Cl
ATOM     14  C   UNL     1      -5.393  12.583  24.342  0.00  0.00    +0.000 A 
ATOM     15  N   UNL     1      -4.173  12.168  23.923  0.00  0.00    +0.000 NA
ATOM     16  C   UNL     1      -1.708  11.253  22.854  0.00  0.00    +0.000 C 
ATOM     17  C   UNL     1      -0.350  11.330  22.108  0.00  0.00    +0.000 C 
ATOM     18  C   UNL     1       0.088   9.895  21.885  0.00  0.00    +0.000 C 
ATOM     19  O   UNL     1       0.043   9.055  22.786  0.00  0.00    +0.000 OA
ATOM     20  H   UNL     1       0.844   9.284  18.236  0.00  0.00    +0.000 HD
ATOM     21  H   UNL     1      -1.636  11.373  19.070  0.00  0.00    +0.000 HD
ENDROOT
BRANCH   6  22
ATOM     22  C   UNL     1       0.289  12.907  19.982  0.00  0.00    +0.000 A 
ATOM     23  C   UNL     1       1.633  13.001  20.333  0.00  0.00    +0.000 A 
ATOM     24  C   UNL     1       2.256  14.184  19.846  0.00  0.00    +0.000 A 
ATOM     25  C   UNL     1       1.518  14.685  18.791  0.00  0.00    +0.000 A 
ATOM     26  S   UNL     1      -0.044  13.932  18.671  0.00  0.00    +0.000 S 
BRANCH  24  27
ATOM     27  C   UNL     1       3.434  14.836  20.452  0.00  0.00    +0.000 A 
ATOM     28  C   UNL     1       3.615  14.738  21.852  0.00  0.00    +0.000 A 
ATOM     29  C   UNL     1       4.660  15.395  22.509  0.00  0.00    +0.000 A 
ATOM     30  C   UNL     1       5.542  16.178  21.777  0.00  0.00    +0.000 A 
ATOM     31  C   UNL     1       5.384  16.293  20.391  0.00  0.00    +0.000 A 
ATOM     32  C   UNL     1       4.335  15.614  19.733  0.00  0.00    +0.000 A 
BRANCH  31  33
ATOM     33  C   UNL     1       6.271  17.130  19.650  0.00  0.00    +0.000 C 
ATOM     34  N   UNL     1       6.995  17.821  19.044  0.00  0.00    +0.000 NA
ENDBRANCH  31  33
ENDBRANCH  24  27
ENDBRANCH   6  22
TORSDOF 3
ENDMDL
MODEL 8
REMARK VINA RESULT:      -6.7      8.587     10.457
REMARK  Name = 
REMARK  4 active torsions:
REMARK  status: ('A' for Active; 'I' for Inactive)
REMARK    1  A    between atoms: C_1  and  N_2
REMARK    2  A    between atoms: C_6  and  C_7
REMARK    3  A    between atoms: C_9  and  C_10
REMARK    4  A    between atoms: C_14  and  C_15
REMARK                            x       y       z     vdW  Elec       q    Type
REMARK                         _______ _______ _______ _____ _____    ______ ____
ROOT
ATOM      1  C   UNL     1      -1.441  15.721  22.612  0.00  0.00    +0.000 C 
ATOM      2  N   UNL     1      -0.348  15.327  21.740  0.00  0.00    +0.000 N 
ATOM      3  C   UNL     1      -0.463  15.215  20.378  0.00  0.00    +0.000 C 
ATOM      4  N   UNL     1      -1.590  15.180  19.757  0.00  0.00    +0.000 NA
ATOM      5  N   UNL     1       0.702  15.048  19.668  0.00  0.00    +0.000 N 
ATOM      6  C   UNL     1       1.541  13.960  20.239  0.00  0.00    +0.000 C 
ATOM      7  C   UNL     1       2.931  13.733  19.577  0.00  0.00    +0.000 C 
ATOM      8  N   UNL     1       3.831  14.674  20.203  0.00  0.00    +0.000 N 
ATOM      9  C   UNL     1       4.966  15.087  19.580  0.00  0.00    +0.000 A 
ATOM     10  N   UNL     1       5.324  14.465  18.440  0.00  0.00    +0.000 NA
ATOM     11  C   UNL     1       6.466  14.864  17.838  0.00  0.00    +0.000 A 
ATOM     12  C   UNL     1       7.273  15.854  18.331  0.00  0.00    +0.000 A 
ATOM     13 CL   UNL     1       8.710  16.340  17.547  0.00  0.00    +0.000 Cl
ATOM     14  C   UNL     1       6.837  16.427  19.499  0.00  0.00    +0.000 A 
ATOM     15  N   UNL     1       5.695  16.068  20.132  0.00  0.00    +0.000 NA
ATOM     16  C   UNL     1       3.193  15.386  21.285  0.00  0.00    +0.000 C 
ATOM     17  C   UNL     1       1.953  14.513  21.613  0.00  0.00    +0.000 C 
ATOM     18  C   UNL     1       0.933  15.448  22.235  0.00  0.00    +0.000 C 
ATOM     19  O   UNL     1       1.242  16.252  23.115  0.00  0.00    +0.000 OA
ATOM     20  H   UNL     1      -2.369  15.218  20.417  0.00  0.00    +0.000 HD
ATOM     21  H   UNL     1       0.480  14.908  18.687  0.00  0.00    +0.000 HD
ENDROOT
BRANCH   6  22
ATOM     22  C   UNL     1       0.758  12.661  20.013  0.00  0.00    +0.000 A 
ATOM     23  C   UNL     1       0.086  12.415  18.819  0.00  0.00    +0.000 A 
ATOM     24  C   UNL     1      -1.002  11.510  18.966  0.00  0.00    +0.000 A 
ATOM     25  C   UNL     1      -0.826  10.772  20.120  0.00  0.00    +0.000 A 
ATOM     26  S   UNL     1       0.420  11.433  21.135  0.00  0.00    +0.000 S 
BRANCH  24  27
ATOM     27  C   UNL     1      -2.189  11.457  18.089  0.00  0.00    +0.000 A 
ATOM     28  C   UNL     1      -3.447  11.806  18.634  0.00  0.00    +0.000 A 
ATOM     29  C   UNL     1      -4.626  11.703  17.890  0.00  0.00    +0.000 A 
ATOM     30  C   UNL     1      -4.573  11.236  16.584  0.00  0.00    +0.000 A 
ATOM     31  C   UNL     1      -3.340  10.882  16.022  0.00  0.00    +0.000 A 
ATOM     32  C   UNL     1      -2.151  11.003  16.775  0.00  0.00    +0.000 A 
BRANCH  31  33
ATOM     33  C   UNL     1      -3.296  10.366  14.693  0.00  0.00    +0.000 C 
ATOM     34  N   UNL     1      -3.254   9.945  13.602  0.00  0.00    +0.000 NA
ENDBRANCH  31  33
ENDBRANCH  24  27
ENDBRANCH   6  22
TORSDOF 3
ENDMDL
MODEL 9
REMARK VINA RESULT:      -6.7      4.255      7.122
REMARK  Name = 
REMARK  4 active torsions:
REMARK  status: ('A' for Active; 'I' for Inactive)
REMARK    1  A    between atoms: C_1  and  N_2
REMARK    2  A    between atoms: C_6  and  C_7
REMARK    3  A    between atoms: C_9  and  C_10
REMARK    4  A    between atoms: C_14  and  C_15
REMARK                            x       y       z     vdW  Elec       q    Type
REMARK                         _______ _______ _______ _____ _____    ______ ____
ROOT
ATOM      1  C   UNL     1      -2.889   9.872  17.828  0.00  0.00    +0.000 C 
ATOM      2  N   UNL     1      -1.781  10.557  18.470  0.00  0.00    +0.000 N 
ATOM      3  C   UNL     1      -0.469  10.395  18.102  0.00  0.00    +0.000 C 
ATOM      4  N   UNL     1      -0.052   9.438  17.350  0.00  0.00    +0.000 NA
ATOM      5  N   UNL     1       0.442  11.268  18.649  0.00  0.00    +0.000 N 
ATOM      6  C   UNL     1       0.294  11.359  20.127  0.00  0.00    +0.000 C 
ATOM      7  C   UNL     1       1.209  12.385  20.855  0.00  0.00    +0.000 C 
ATOM      8  N   UNL     1       0.532  13.659  20.768  0.00  0.00    +0.000 N 
ATOM      9  C   UNL     1       1.215  14.829  20.864  0.00  0.00    +0.000 A 
ATOM     10  N   UNL     1       2.514  14.777  21.218  0.00  0.00    +0.000 NA
ATOM     11  C   UNL     1       3.182  15.945  21.334  0.00  0.00    +0.000 A 
ATOM     12  C   UNL     1       2.606  17.169  21.119  0.00  0.00    +0.000 A 
ATOM     13 CL   UNL     1       3.475  18.631  21.270  0.00  0.00    +0.000 Cl
ATOM     14  C   UNL     1       1.279  17.129  20.771  0.00  0.00    +0.000 A 
ATOM     15  N   UNL     1       0.572  15.983  20.632  0.00  0.00    +0.000 NA
ATOM     16  C   UNL     1      -0.779  13.529  20.176  0.00  0.00    +0.000 C 
ATOM     17  C   UNL     1      -1.086  12.013  20.306  0.00  0.00    +0.000 C 
ATOM     18  C   UNL     1      -2.073  11.689  19.200  0.00  0.00    +0.000 C 
ATOM     19  O   UNL     1      -3.057  12.396  18.981  0.00  0.00    +0.000 OA
ATOM     20  H   UNL     1      -0.820   8.814  17.096  0.00  0.00    +0.000 HD
ATOM     21  H   UNL     1       1.377  11.003  18.357  0.00  0.00    +0.000 HD
ENDROOT
BRANCH   6  22
ATOM     22  C   UNL     1       0.692   9.985  20.677  0.00  0.00    +0.000 A 
ATOM     23  C   UNL     1       1.766   9.274  20.149  0.00  0.00    +0.000 A 
ATOM     24  C   UNL     1       1.656   7.868  20.343  0.00  0.00    +0.000 A 
ATOM     25  C   UNL     1       0.777   7.621  21.379  0.00  0.00    +0.000 A 
ATOM     26  S   UNL     1      -0.126   9.037  21.823  0.00  0.00    +0.000 S 
BRANCH  24  27
ATOM     27  C   UNL     1       2.286   6.841  19.490  0.00  0.00    +0.000 A 
ATOM     28  C   UNL     1       3.021   7.261  18.357  0.00  0.00    +0.000 A 
ATOM     29  C   UNL     1       3.578   6.345  17.458  0.00  0.00    +0.000 A 
ATOM     30  C   UNL     1       3.399   4.985  17.669  0.00  0.00    +0.000 A 
ATOM     31  C   UNL     1       2.674   4.543  18.782  0.00  0.00    +0.000 A 
ATOM     32  C   UNL     1       2.128   5.474  19.694  0.00  0.00    +0.000 A 
BRANCH  31  33
ATOM     33  C   UNL     1       2.461   3.146  18.972  0.00  0.00    +0.000 C 
ATOM     34  N   UNL     1       2.286   2.000  19.135  0.00  0.00    +0.000 NA
ENDBRANCH  31  33
ENDBRANCH  24  27
ENDBRANCH   6  22
TORSDOF 3
ENDMDL
