MODEL 1
REMARK VINA RESULT:      -8.4      0.000      0.000
REMARK  Name = 
REMARK  3 active torsions:
REMARK  status: ('A' for Active; 'I' for Inactive)
REMARK    1  A    between atoms: C_2  and  C_5
REMARK    2  A    between atoms: N_12  and  C_13
REMARK    3  A    between atoms: C_13  and  C_14
REMARK                            x       y       z     vdW  Elec       q    Type
REMARK                         _______ _______ _______ _____ _____    ______ ____
ROOT
ATOM      1  C   UNL     1       0.193  10.423  21.188  0.00  0.00    +0.000 A 
ATOM      2  C   UNL     1       0.656   9.539  22.154  0.00  0.00    +0.000 A 
ATOM      3  C   UNL     1       1.327   8.381  21.757  0.00  0.00    +0.000 A 
ATOM      4  C   UNL     1       1.540   8.114  20.407  0.00  0.00    +0.000 A 
ATOM      5  N   UNL     1       2.194   6.972  20.013  0.00  0.00    +0.000 N 
ATOM      6  C   UNL     1       2.048   5.706  20.734  0.00  0.00    +0.000 C 
ATOM      7  C   UNL     1       1.715   4.535  19.772  0.00  0.00    +0.000 C 
ATOM      8  N   UNL     1       2.561   4.439  18.554  0.00  0.00    +0.000 NA
ATOM      9  C   UNL     1       2.491   5.761  17.876  0.00  0.00    +0.000 C 
ATOM     10  C   UNL     1       2.932   6.952  18.749  0.00  0.00    +0.000 C 
ATOM     11  N   UNL     1       1.111   8.986  19.469  0.00  0.00    +0.000 NA
ATOM     12  C   UNL     1       0.444  10.099  19.868  0.00  0.00    +0.000 A 
ENDROOT
BRANCH   1  14
ATOM     13  F   UNL     1       0.267  12.778  21.573  0.00  0.00    +0.000 F 
ATOM     14  C   UNL     1      -0.539  11.677  21.535  0.00  0.00    +0.000 C 
ATOM     15  F   UNL     1      -1.140  11.617  22.753  0.00  0.00    +0.000 F 
ATOM     16  F   UNL     1      -1.524  11.974  20.645  0.00  0.00    +0.000 F 
ENDBRANCH   1  14
BRANCH   8  17
ATOM     17  C   UNL     1       3.932   4.048  18.923  0.00  0.00    +0.000 C 
BRANCH  17  18
ATOM     18  C   UNL     1       4.987   4.344  17.876  0.00  0.00    +0.000 A 
ATOM     19  C   UNL     1       6.170   5.036  18.223  0.00  0.00    +0.000 A 
ATOM     20  C   UNL     1       7.118   5.373  17.252  0.00  0.00    +0.000 A 
ATOM     21  C   UNL     1       6.869   4.995  15.951  0.00  0.00    +0.000 A 
ATOM     22  C   UNL     1       5.734   4.302  15.605  0.00  0.00    +0.000 A 
ATOM     23  C   UNL     1       4.775   3.967  16.537  0.00  0.00    +0.000 A 
ATOM     24  O   UNL     1       5.683   4.017  14.276  0.00  0.00    +0.000 OA
ATOM     25  C   UNL     1       6.912   4.622  13.823  0.00  0.00    +0.000 C 
ATOM     26  O   UNL     1       7.670   5.245  14.881  0.00  0.00    +0.000 OA
ENDBRANCH  17  18
ENDBRANCH   8  17
TORSDOF 3
ENDMDL
MODEL 2
REMARK VINA RESULT:      -7.8      6.175     10.167
REMARK  Name = 
REMARK  3 active torsions:
REMARK  status: ('A' for Active; 'I' for Inactive)
REMARK    1  A    between atoms: C_2  and  C_5
REMARK    2  A    between atoms: N_12  and  C_13
REMARK    3  A    between atoms: C_13  and  C_14
REMARK                            x       y       z     vdW  Elec       q    Type
REMARK                         _______ _______ _______ _____ _____    ______ ____
ROOT
ATOM      1  C   UNL     1       3.693   5.203  17.888  0.00  0.00    +0.000 A 
ATOM      2  C   UNL     1       3.898   6.482  17.387  0.00  0.00    +0.000 A 
ATOM      3  C   UNL     1       3.260   7.565  17.994  0.00  0.00    +0.000 A 
ATOM      4  C   UNL     1       2.432   7.371  19.097  0.00  0.00    +0.000 A 
ATOM      5  N   UNL     1       1.797   8.435  19.692  0.00  0.00    +0.000 N 
ATOM      6  C   UNL     1       1.306   9.577  18.920  0.00  0.00    +0.000 C 
ATOM      7  C   UNL     1      -0.168   9.911  19.268  0.00  0.00    +0.000 C 
ATOM      8  N   UNL     1      -0.490   9.982  20.717  0.00  0.00    +0.000 NA
ATOM      9  C   UNL     1      -0.047   8.697  21.320  0.00  0.00    +0.000 C 
ATOM     10  C   UNL     1       1.445   8.373  21.112  0.00  0.00    +0.000 C 
ATOM     11  N   UNL     1       2.253   6.130  19.598  0.00  0.00    +0.000 NA
ATOM     12  C   UNL     1       2.865   5.084  18.987  0.00  0.00    +0.000 A 
ENDROOT
BRANCH   1  14
ATOM     13  F   UNL     1       5.658   3.876  17.603  0.00  0.00    +0.000 F 
ATOM     14  C   UNL     1       4.336   3.995  17.287  0.00  0.00    +0.000 C 
ATOM     15  F   UNL     1       4.277   3.988  15.929  0.00  0.00    +0.000 F 
ATOM     16  F   UNL     1       3.755   2.835  17.695  0.00  0.00    +0.000 F 
ENDBRANCH   1  14
BRANCH   8  17
ATOM     17  C   UNL     1       0.160  11.160  21.319  0.00  0.00    +0.000 C 
BRANCH  17  18
ATOM     18  C   UNL     1      -0.759  12.059  22.121  0.00  0.00    +0.000 A 
ATOM     19  C   UNL     1      -0.431  13.417  22.332  0.00  0.00    +0.000 A 
ATOM     20  C   UNL     1      -1.238  14.237  23.128  0.00  0.00    +0.000 A 
ATOM     21  C   UNL     1      -2.370  13.683  23.684  0.00  0.00    +0.000 A 
ATOM     22  C   UNL     1      -2.711  12.369  23.467  0.00  0.00    +0.000 A 
ATOM     23  C   UNL     1      -1.929  11.533  22.700  0.00  0.00    +0.000 A 
ATOM     24  O   UNL     1      -3.866  12.022  24.096  0.00  0.00    +0.000 OA
ATOM     25  C   UNL     1      -4.205  13.266  24.744  0.00  0.00    +0.000 C 
ATOM     26  O   UNL     1      -3.260  14.325  24.487  0.00  0.00    +0.000 OA
ENDBRANCH  17  18
ENDBRANCH   8  17
TORSDOF 3
ENDMDL
MODEL 3
REMARK VINA RESULT:      -7.7      1.076      1.453
REMARK  Name = 
REMARK  3 active torsions:
REMARK  status: ('A' for Active; 'I' for Inactive)
REMARK    1  A    between atoms: C_2  and  C_5
REMARK    2  A    between atoms: N_12  and  C_13
REMARK    3  A    between atoms: C_13  and  C_14
REMARK                            x       y       z     vdW  Elec       q    Type
REMARK                         _______ _______ _______ _____ _____    ______ ____
ROOT
ATOM      1  C   UNL     1      -0.485  11.141  19.776  0.00  0.00    +0.000 A 
ATOM      2  C   UNL     1       0.122  10.678  20.937  0.00  0.00    +0.000 A 
ATOM      3  C   UNL     1       0.959   9.563  20.875  0.00  0.00    +0.000 A 
ATOM      4  C   UNL     1       1.195   8.923  19.661  0.00  0.00    +0.000 A 
ATOM      5  N   UNL     1       2.014   7.821  19.597  0.00  0.00    +0.000 N 
ATOM      6  C   UNL     1       2.075   6.836  20.678  0.00  0.00    +0.000 C 
ATOM      7  C   UNL     1       1.916   5.388  20.142  0.00  0.00    +0.000 C 
ATOM      8  N   UNL     1       2.753   5.041  18.963  0.00  0.00    +0.000 NA
ATOM      9  C   UNL     1       2.470   6.061  17.920  0.00  0.00    +0.000 C 
ATOM     10  C   UNL     1       2.732   7.515  18.358  0.00  0.00    +0.000 C 
ATOM     11  N   UNL     1       0.625   9.388  18.529  0.00  0.00    +0.000 NA
ATOM     12  C   UNL     1      -0.201  10.462  18.606  0.00  0.00    +0.000 A 
ENDROOT
BRANCH   1  14
ATOM     13  F   UNL     1      -2.169  12.416  20.889  0.00  0.00    +0.000 F 
ATOM     14  C   UNL     1      -1.398  12.322  19.766  0.00  0.00    +0.000 C 
ATOM     15  F   UNL     1      -2.267  12.308  18.721  0.00  0.00    +0.000 F 
ATOM     16  F   UNL     1      -0.727  13.503  19.682  0.00  0.00    +0.000 F 
ENDBRANCH   1  14
BRANCH   8  17
ATOM     17  C   UNL     1       4.172   4.986  19.353  0.00  0.00    +0.000 C 
BRANCH  17  18
ATOM     18  C   UNL     1       5.156   5.093  18.205  0.00  0.00    +0.000 A 
ATOM     19  C   UNL     1       6.227   6.013  18.261  0.00  0.00    +0.000 A 
ATOM     20  C   UNL     1       7.100   6.168  17.179  0.00  0.00    +0.000 A 
ATOM     21  C   UNL     1       6.892   5.383  16.066  0.00  0.00    +0.000 A 
ATOM     22  C   UNL     1       5.867   4.469  16.009  0.00  0.00    +0.000 A 
ATOM     23  C   UNL     1       4.983   4.303  17.053  0.00  0.00    +0.000 A 
ATOM     24  O   UNL     1       5.840   3.791  14.830  0.00  0.00    +0.000 OA
ATOM     25  C   UNL     1       6.959   4.393  14.147  0.00  0.00    +0.000 C 
ATOM     26  O   UNL     1       7.631   5.405  14.925  0.00  0.00    +0.000 OA
ENDBRANCH  17  18
ENDBRANCH   8  17
TORSDOF 3
ENDMDL
MODEL 4
REMARK VINA RESULT:      -7.6      1.076      1.174
REMARK  Name = 
REMARK  3 active torsions:
REMARK  status: ('A' for Active; 'I' for Inactive)
REMARK    1  A    between atoms: C_2  and  C_5
REMARK    2  A    between atoms: N_12  and  C_13
REMARK    3  A    between atoms: C_13  and  C_14
REMARK                            x       y       z     vdW  Elec       q    Type
REMARK                         _______ _______ _______ _____ _____    ______ ____
ROOT
ATOM      1  C   UNL     1      -0.932  11.196  20.778  0.00  0.00    +0.000 A 
ATOM      2  C   UNL     1      -0.361  10.546  21.864  0.00  0.00    +0.000 A 
ATOM      3  C   UNL     1       0.524   9.490  21.643  0.00  0.00    +0.000 A 
ATOM      4  C   UNL     1       0.842   9.094  20.346  0.00  0.00    +0.000 A 
ATOM      5  N   UNL     1       1.708   8.050  20.125  0.00  0.00    +0.000 N 
ATOM      6  C   UNL     1       1.760   6.884  21.008  0.00  0.00    +0.000 C 
ATOM      7  C   UNL     1       1.686   5.556  20.208  0.00  0.00    +0.000 C 
ATOM      8  N   UNL     1       2.590   5.461  19.032  0.00  0.00    +0.000 NA
ATOM      9  C   UNL     1       2.314   6.647  18.180  0.00  0.00    +0.000 C 
ATOM     10  C   UNL     1       2.494   8.003  18.890  0.00  0.00    +0.000 C 
ATOM     11  N   UNL     1       0.306   9.742  19.290  0.00  0.00    +0.000 NA
ATOM     12  C   UNL     1      -0.567  10.755  19.520  0.00  0.00    +0.000 A 
ENDROOT
BRANCH   1  14
ATOM     13  F   UNL     1      -1.286  13.508  21.260  0.00  0.00    +0.000 F 
ATOM     14  C   UNL     1      -1.893  12.329  20.936  0.00  0.00    +0.000 C 
ATOM     15  F   UNL     1      -2.813  12.107  21.911  0.00  0.00    +0.000 F 
ATOM     16  F   UNL     1      -2.600  12.579  19.801  0.00  0.00    +0.000 F 
ENDBRANCH   1  14
BRANCH   8  17
ATOM     17  C   UNL     1       3.991   5.380  19.480  0.00  0.00    +0.000 C 
BRANCH  17  18
ATOM     18  C   UNL     1       5.009   5.205  18.371  0.00  0.00    +0.000 A 
ATOM     19  C   UNL     1       6.364   5.551  18.578  0.00  0.00    +0.000 A 
ATOM     20  C   UNL     1       7.297   5.457  17.540  0.00  0.00    +0.000 A 
ATOM     21  C   UNL     1       6.857   5.002  16.317  0.00  0.00    +0.000 A 
ATOM     22  C   UNL     1       5.547   4.642  16.110  0.00  0.00    +0.000 A 
ATOM     23  C   UNL     1       4.601   4.736  17.108  0.00  0.00    +0.000 A 
ATOM     24  O   UNL     1       5.321   4.211  14.840  0.00  0.00    +0.000 OA
ATOM     25  C   UNL     1       6.638   4.355  14.267  0.00  0.00    +0.000 C 
ATOM     26  O   UNL     1       7.618   4.857  15.199  0.00  0.00    +0.000 OA
ENDBRANCH  17  18
ENDBRANCH   8  17
TORSDOF 3
ENDMDL
MODEL 5
REMARK VINA RESULT:      -7.6      6.244     10.350
REMARK  Name = 
REMARK  3 active torsions:
REMARK  status: ('A' for Active; 'I' for Inactive)
REMARK    1  A    between atoms: C_2  and  C_5
REMARK    2  A    between atoms: N_12  and  C_13
REMARK    3  A    between atoms: C_13  and  C_14
REMARK                            x       y       z     vdW  Elec       q    Type
REMARK                         _______ _______ _______ _____ _____    ______ ____
ROOT
ATOM      1  C   UNL     1       3.343   5.267  18.368  0.00  0.00    +0.000 A 
ATOM      2  C   UNL     1       3.473   6.514  17.770  0.00  0.00    +0.000 A 
ATOM      3  C   UNL     1       2.857   7.622  18.354  0.00  0.00    +0.000 A 
ATOM      4  C   UNL     1       2.124   7.485  19.531  0.00  0.00    +0.000 A 
ATOM      5  N   UNL     1       1.510   8.572  20.105  0.00  0.00    +0.000 N 
ATOM      6  C   UNL     1       0.929   9.649  19.302  0.00  0.00    +0.000 C 
ATOM      7  C   UNL     1      -0.522   9.975  19.746  0.00  0.00    +0.000 C 
ATOM      8  N   UNL     1      -0.729  10.136  21.208  0.00  0.00    +0.000 NA
ATOM      9  C   UNL     1      -0.206   8.905  21.856  0.00  0.00    +0.000 C 
ATOM     10  C   UNL     1       1.274   8.599  21.550  0.00  0.00    +0.000 C 
ATOM     11  N   UNL     1       2.018   6.277  20.125  0.00  0.00    +0.000 NA
ATOM     12  C   UNL     1       2.607   5.205  19.537  0.00  0.00    +0.000 A 
ENDROOT
BRANCH   1  14
ATOM     13  F   UNL     1       4.108   3.032  18.711  0.00  0.00    +0.000 F 
ATOM     14  C   UNL     1       3.967   4.036  17.798  0.00  0.00    +0.000 C 
ATOM     15  F   UNL     1       5.211   4.259  17.299  0.00  0.00    +0.000 F 
ATOM     16  F   UNL     1       3.242   3.506  16.776  0.00  0.00    +0.000 F 
ENDBRANCH   1  14
BRANCH   8  17
ATOM     17  C   UNL     1      -0.065  11.365  21.677  0.00  0.00    +0.000 C 
BRANCH  17  18
ATOM     18  C   UNL     1      -0.945  12.302  22.480  0.00  0.00    +0.000 A 
ATOM     19  C   UNL     1      -2.169  11.849  23.023  0.00  0.00    +0.000 A 
ATOM     20  C   UNL     1      -3.020  12.723  23.707  0.00  0.00    +0.000 A 
ATOM     21  C   UNL     1      -2.619  14.033  23.849  0.00  0.00    +0.000 A 
ATOM     22  C   UNL     1      -1.420  14.479  23.346  0.00  0.00    +0.000 A 
ATOM     23  C   UNL     1      -0.567  13.646  22.655  0.00  0.00    +0.000 A 
ATOM     24  O   UNL     1      -1.209  15.799  23.600  0.00  0.00    +0.000 OA
ATOM     25  C   UNL     1      -2.419  16.134  24.312  0.00  0.00    +0.000 C 
ATOM     26  O   UNL     1      -3.319  15.018  24.473  0.00  0.00    +0.000 OA
ENDBRANCH  17  18
ENDBRANCH   8  17
TORSDOF 3
ENDMDL
MODEL 6
REMARK VINA RESULT:      -7.5      6.175     10.145
REMARK  Name = 
REMARK  3 active torsions:
REMARK  status: ('A' for Active; 'I' for Inactive)
REMARK    1  A    between atoms: C_2  and  C_5
REMARK    2  A    between atoms: N_12  and  C_13
REMARK    3  A    between atoms: C_13  and  C_14
REMARK                            x       y       z     vdW  Elec       q    Type
REMARK                         _______ _______ _______ _____ _____    ______ ____
ROOT
ATOM      1  C   UNL     1       3.272   4.708  18.494  0.00  0.00    +0.000 A 
ATOM      2  C   UNL     1       3.570   5.895  17.837  0.00  0.00    +0.000 A 
ATOM      3  C   UNL     1       3.043   7.095  18.318  0.00  0.00    +0.000 A 
ATOM      4  C   UNL     1       2.233   7.108  19.451  0.00  0.00    +0.000 A 
ATOM      5  N   UNL     1       1.707   8.287  19.923  0.00  0.00    +0.000 N 
ATOM      6  C   UNL     1       1.292   9.366  19.025  0.00  0.00    +0.000 C 
ATOM      7  C   UNL     1      -0.138   9.867  19.356  0.00  0.00    +0.000 C 
ATOM      8  N   UNL     1      -0.411  10.141  20.791  0.00  0.00    +0.000 NA
ATOM      9  C   UNL     1      -0.061   8.904  21.539  0.00  0.00    +0.000 C 
ATOM     10  C   UNL     1       1.392   8.428  21.346  0.00  0.00    +0.000 C 
ATOM     11  N   UNL     1       1.964   5.957  20.103  0.00  0.00    +0.000 NA
ATOM     12  C   UNL     1       2.468   4.795  19.615  0.00  0.00    +0.000 A 
ENDROOT
BRANCH   1  14
ATOM     13  F   UNL     1       2.805   2.506  17.697  0.00  0.00    +0.000 F 
ATOM     14  C   UNL     1       3.793   3.386  18.035  0.00  0.00    +0.000 C 
ATOM     15  F   UNL     1       4.541   2.757  18.979  0.00  0.00    +0.000 F 
ATOM     16  F   UNL     1       4.585   3.489  16.933  0.00  0.00    +0.000 F 
ENDBRANCH   1  14
BRANCH   8  17
ATOM     17  C   UNL     1       0.352  11.321  21.232  0.00  0.00    +0.000 C 
BRANCH  17  18
ATOM     18  C   UNL     1      -0.453  12.360  21.986  0.00  0.00    +0.000 A 
ATOM     19  C   UNL     1       0.004  13.694  22.079  0.00  0.00    +0.000 A 
ATOM     20  C   UNL     1      -0.697  14.644  22.829  0.00  0.00    +0.000 A 
ATOM     21  C   UNL     1      -1.855  14.242  23.458  0.00  0.00    +0.000 A 
ATOM     22  C   UNL     1      -2.320  12.953  23.356  0.00  0.00    +0.000 A 
ATOM     23  C   UNL     1      -1.645  11.991  22.636  0.00  0.00    +0.000 A 
ATOM     24  O   UNL     1      -3.480  12.764  24.042  0.00  0.00    +0.000 OA
ATOM     25  C   UNL     1      -3.682  14.080  24.599  0.00  0.00    +0.000 C 
ATOM     26  O   UNL     1      -2.654  15.023  24.233  0.00  0.00    +0.000 OA
ENDBRANCH  17  18
ENDBRANCH   8  17
TORSDOF 3
ENDMDL
MODEL 7
REMARK VINA RESULT:      -7.3      6.207     10.315
REMARK  Name = 
REMARK  3 active torsions:
REMARK  status: ('A' for Active; 'I' for Inactive)
REMARK    1  A    between atoms: C_2  and  C_5
REMARK    2  A    between atoms: N_12  and  C_13
REMARK    3  A    between atoms: C_13  and  C_14
REMARK                            x       y       z     vdW  Elec       q    Type
REMARK                         _______ _______ _______ _____ _____    ______ ____
ROOT
ATOM      1  C   UNL     1       3.601   5.749  17.936  0.00  0.00    +0.000 A 
ATOM      2  C   UNL     1       3.615   6.991  17.315  0.00  0.00    +0.000 A 
ATOM      3  C   UNL     1       2.911   8.052  17.887  0.00  0.00    +0.000 A 
ATOM      4  C   UNL     1       2.207   7.874  19.076  0.00  0.00    +0.000 A 
ATOM      5  N   UNL     1       1.508   8.914  19.639  0.00  0.00    +0.000 N 
ATOM      6  C   UNL     1       0.825   9.921  18.824  0.00  0.00    +0.000 C 
ATOM      7  C   UNL     1      -0.643  10.127  19.282  0.00  0.00    +0.000 C 
ATOM      8  N   UNL     1      -0.846  10.298  20.744  0.00  0.00    +0.000 NA
ATOM      9  C   UNL     1      -0.210   9.129  21.406  0.00  0.00    +0.000 C 
ATOM     10  C   UNL     1       1.287   8.947  21.086  0.00  0.00    +0.000 C 
ATOM     11  N   UNL     1       2.214   6.672  19.693  0.00  0.00    +0.000 NA
ATOM     12  C   UNL     1       2.888   5.645  19.116  0.00  0.00    +0.000 A 
ENDROOT
BRANCH   1  14
ATOM     13  F   UNL     1       4.762   4.758  16.101  0.00  0.00    +0.000 F 
ATOM     14  C   UNL     1       4.324   4.567  17.379  0.00  0.00    +0.000 C 
ATOM     15  F   UNL     1       3.554   3.447  17.343  0.00  0.00    +0.000 F 
ATOM     16  F   UNL     1       5.429   4.240  18.102  0.00  0.00    +0.000 F 
ENDBRANCH   1  14
BRANCH   8  17
ATOM     17  C   UNL     1      -0.287  11.589  21.182  0.00  0.00    +0.000 C 
BRANCH  17  18
ATOM     18  C   UNL     1      -1.228  12.451  21.998  0.00  0.00    +0.000 A 
ATOM     19  C   UNL     1      -0.721  13.395  22.920  0.00  0.00    +0.000 A 
ATOM     20  C   UNL     1      -1.581  14.147  23.727  0.00  0.00    +0.000 A 
ATOM     21  C   UNL     1      -2.937  13.950  23.582  0.00  0.00    +0.000 A 
ATOM     22  C   UNL     1      -3.442  13.051  22.674  0.00  0.00    +0.000 A 
ATOM     23  C   UNL     1      -2.620  12.285  21.875  0.00  0.00    +0.000 A 
ATOM     24  O   UNL     1      -4.802  13.013  22.682  0.00  0.00    +0.000 OA
ATOM     25  C   UNL     1      -5.093  13.984  23.710  0.00  0.00    +0.000 C 
ATOM     26  O   UNL     1      -3.914  14.582  24.286  0.00  0.00    +0.000 OA
ENDBRANCH  17  18
ENDBRANCH   8  17
TORSDOF 3
ENDMDL
MODEL 8
REMARK VINA RESULT:      -7.2      6.211     10.268
REMARK  Name = 
REMARK  3 active torsions:
REMARK  status: ('A' for Active; 'I' for Inactive)
REMARK    1  A    between atoms: C_2  and  C_5
REMARK    2  A    between atoms: N_12  and  C_13
REMARK    3  A    between atoms: C_13  and  C_14
REMARK                            x       y       z     vdW  Elec       q    Type
REMARK                         _______ _______ _______ _____ _____    ______ ____
ROOT
ATOM      1  C   UNL     1       3.596   5.640  17.745  0.00  0.00    +0.000 A 
ATOM      2  C   UNL     1       3.725   6.962  17.341  0.00  0.00    +0.000 A 
ATOM      3  C   UNL     1       3.057   7.963  18.048  0.00  0.00    +0.000 A 
ATOM      4  C   UNL     1       2.275   7.645  19.155  0.00  0.00    +0.000 A 
ATOM      5  N   UNL     1       1.610   8.627  19.850  0.00  0.00    +0.000 N 
ATOM      6  C   UNL     1       1.042   9.799  19.184  0.00  0.00    +0.000 C 
ATOM      7  C   UNL     1      -0.435  10.033  19.599  0.00  0.00    +0.000 C 
ATOM      8  N   UNL     1      -0.713   9.977  21.057  0.00  0.00    +0.000 NA
ATOM      9  C   UNL     1      -0.191   8.673  21.545  0.00  0.00    +0.000 C 
ATOM     10  C   UNL     1       1.307   8.439  21.270  0.00  0.00    +0.000 C 
ATOM     11  N   UNL     1       2.170   6.361  19.563  0.00  0.00    +0.000 NA
ATOM     12  C   UNL     1       2.810   5.396  18.855  0.00  0.00    +0.000 A 
ENDROOT
BRANCH   1  14
ATOM     13  F   UNL     1       3.440   3.470  16.760  0.00  0.00    +0.000 F 
ATOM     14  C   UNL     1       4.275   4.515  17.034  0.00  0.00    +0.000 C 
ATOM     15  F   UNL     1       5.307   3.988  17.745  0.00  0.00    +0.000 F 
ATOM     16  F   UNL     1       4.797   4.892  15.836  0.00  0.00    +0.000 F 
ENDBRANCH   1  14
BRANCH   8  17
ATOM     17  C   UNL     1      -0.100  11.135  21.731  0.00  0.00    +0.000 C 
BRANCH  17  18
ATOM     18  C   UNL     1      -1.046  12.284  22.018  0.00  0.00    +0.000 A 
ATOM     19  C   UNL     1      -0.961  13.487  21.282  0.00  0.00    +0.000 A 
ATOM     20  C   UNL     1      -1.783  14.576  21.585  0.00  0.00    +0.000 A 
ATOM     21  C   UNL     1      -2.690  14.433  22.613  0.00  0.00    +0.000 A 
ATOM     22  C   UNL     1      -2.797  13.260  23.321  0.00  0.00    +0.000 A 
ATOM     23  C   UNL     1      -1.991  12.174  23.055  0.00  0.00    +0.000 A 
ATOM     24  O   UNL     1      -3.755  13.321  24.284  0.00  0.00    +0.000 OA
ATOM     25  C   UNL     1      -4.230  14.673  24.109  0.00  0.00    +0.000 C 
ATOM     26  O   UNL     1      -3.557  15.385  23.049  0.00  0.00    +0.000 OA
ENDBRANCH  17  18
ENDBRANCH   8  17
TORSDOF 3
ENDMDL
MODEL 9
REMARK VINA RESULT:      -7.2      1.515      2.527
REMARK  Name = 
REMARK  3 active torsions:
REMARK  status: ('A' for Active; 'I' for Inactive)
REMARK    1  A    between atoms: C_2  and  C_5
REMARK    2  A    between atoms: N_12  and  C_13
REMARK    3  A    between atoms: C_13  and  C_14
REMARK                            x       y       z     vdW  Elec       q    Type
REMARK                         _______ _______ _______ _____ _____    ______ ____
ROOT
ATOM      1  C   UNL     1       0.584   9.964  19.686  0.00  0.00    +0.000 A 
ATOM      2  C   UNL     1       0.965   9.887  18.352  0.00  0.00    +0.000 A 
ATOM      3  C   UNL     1       1.774   8.831  17.931  0.00  0.00    +0.000 A 
ATOM      4  C   UNL     1       2.191   7.856  18.834  0.00  0.00    +0.000 A 
ATOM      5  N   UNL     1       2.994   6.818  18.424  0.00  0.00    +0.000 N 
ATOM      6  C   UNL     1       4.023   6.992  17.397  0.00  0.00    +0.000 C 
ATOM      7  C   UNL     1       5.391   6.424  17.858  0.00  0.00    +0.000 C 
ATOM      8  N   UNL     1       5.358   5.062  18.452  0.00  0.00    +0.000 NA
ATOM      9  C   UNL     1       4.364   5.098  19.556  0.00  0.00    +0.000 C 
ATOM     10  C   UNL     1       2.949   5.537  19.131  0.00  0.00    +0.000 C 
ATOM     11  N   UNL     1       1.800   7.918  20.125  0.00  0.00    +0.000 NA
ATOM     12  C   UNL     1       1.028   8.960  20.525  0.00  0.00    +0.000 A 
ENDROOT
BRANCH   1  14
ATOM     13  F   UNL     1      -1.481  11.158  19.579  0.00  0.00    +0.000 F 
ATOM     14  C   UNL     1      -0.274  11.068  20.211  0.00  0.00    +0.000 C 
ATOM     15  F   UNL     1       0.303  12.292  20.082  0.00  0.00    +0.000 F 
ATOM     16  F   UNL     1      -0.562  10.925  21.533  0.00  0.00    +0.000 F 
ENDBRANCH   1  14
BRANCH   8  17
ATOM     17  C   UNL     1       5.036   4.068  17.413  0.00  0.00    +0.000 C 
BRANCH  17  18
ATOM     18  C   UNL     1       5.815   4.216  16.121  0.00  0.00    +0.000 A 
ATOM     19  C   UNL     1       7.023   4.948  16.091  0.00  0.00    +0.000 A 
ATOM     20  C   UNL     1       7.714   5.148  14.891  0.00  0.00    +0.000 A 
ATOM     21  C   UNL     1       7.187   4.593  13.745  0.00  0.00    +0.000 A 
ATOM     22  C   UNL     1       6.025   3.860  13.767  0.00  0.00    +0.000 A 
ATOM     23  C   UNL     1       5.315   3.658  14.930  0.00  0.00    +0.000 A 
ATOM     24  O   UNL     1       5.682   3.394  12.535  0.00  0.00    +0.000 OA
ATOM     25  C   UNL     1       6.756   3.930  11.734  0.00  0.00    +0.000 C 
ATOM     26  O   UNL     1       7.715   4.693  12.496  0.00  0.00    +0.000 OA
ENDBRANCH  17  18
ENDBRANCH   8  17
TORSDOF 3
ENDMDL
