MODEL 1
REMARK VINA RESULT:      -8.6      0.000      0.000
REMARK  Name = 
REMARK  8 active torsions:
REMARK  status: ('A' for Active; 'I' for Inactive)
REMARK    1  A    between atoms: C_1  and  C_2
REMARK    2  A    between atoms: C_2  and  C_3
REMARK    3  A    between atoms: C_2  and  C_4
REMARK    4  A    between atoms: C_2  and  C_5
REMARK    5  A    between atoms: C_10  and  C_12
REMARK    6  A    between atoms: C_12  and  C_13
REMARK    7  A    between atoms: N_15  and  C_16
REMARK    8  A    between atoms: C_16  and  C_17
REMARK                            x       y       z     vdW  Elec       q    Type
REMARK                         _______ _______ _______ _____ _____    ______ ____
ROOT
ATOM      1  C   UNL     1       2.293   5.845  19.768  0.00  0.00    +0.000 A 
ATOM      2  C   UNL     1       3.370   6.225  18.987  0.00  0.00    +0.000 A 
ATOM      3  N   UNL     1       3.681   5.191  18.140  0.00  0.00    +0.000 N 
ATOM      4  C   UNL     1       2.867   4.107  18.412  0.00  0.00    +0.000 A 
ATOM      5  C   UNL     1       2.861   2.797  17.922  0.00  0.00    +0.000 A 
ATOM      6  C   UNL     1       1.815   1.999  18.361  0.00  0.00    +0.000 A 
ATOM      7  N   UNL     1       0.835   2.397  19.196  0.00  0.00    +0.000 NA
ATOM      8  C   UNL     1       0.881   3.658  19.698  0.00  0.00    +0.000 A 
ATOM      9  C   UNL     1       1.912   4.533  19.339  0.00  0.00    +0.000 A 
ENDROOT
BRANCH   1  10
ATOM     10  C   UNL     1       1.685   6.645  20.871  0.00  0.00    +0.000 C 
BRANCH  10  16
ATOM     11  C   UNL     1       0.308  12.234  20.553  0.00  0.00    +0.000 A 
ATOM     12  C   UNL     1      -0.559  12.319  21.632  0.00  0.00    +0.000 A 
ATOM     13  S   UNL     1      -0.581  10.835  22.498  0.00  0.00    +0.000 S 
ATOM     14  C   UNL     1       0.446  10.164  21.320  0.00  0.00    +0.000 A 
ATOM     15  N   UNL     1       0.733   8.840  21.491  0.00  0.00    +0.000 N 
ATOM     16  C   UNL     1       1.357   8.094  20.521  0.00  0.00    +0.000 C 
ATOM     17  O   UNL     1       1.654   8.490  19.391  0.00  0.00    +0.000 OA
ATOM     18  N   UNL     1       0.855  10.971  20.379  0.00  0.00    +0.000 NA
ATOM     19  H   UNL     1       0.404   8.421  22.354  0.00  0.00    +0.000 HD
BRANCH  11  21
ATOM     20  C   UNL     1       0.721  14.709  20.196  0.00  0.00    +0.000 C 
ATOM     21  C   UNL     1       0.673  13.312  19.544  0.00  0.00    +0.000 C 
ATOM     22  C   UNL     1      -0.364  13.324  18.408  0.00  0.00    +0.000 C 
ATOM     23  C   UNL     1       2.067  13.034  18.935  0.00  0.00    +0.000 C 
ENDBRANCH  11  21
ENDBRANCH  10  16
ENDBRANCH   1  10
BRANCH   3  24
ATOM     24  C   UNL     1       4.659   5.299  17.057  0.00  0.00    +0.000 C 
BRANCH  24  25
ATOM     25  C   UNL     1       5.964   5.863  17.550  0.00  0.00    +0.000 A 
ATOM     26  C   UNL     1       6.693   5.199  18.546  0.00  0.00    +0.000 A 
ATOM     27  C   UNL     1       7.829   5.786  19.103  0.00  0.00    +0.000 A 
ATOM     28  C   UNL     1       8.262   7.031  18.654  0.00  0.00    +0.000 A 
ATOM     29  C   UNL     1       7.583   7.673  17.620  0.00  0.00    +0.000 A 
ATOM     30  C   UNL     1       6.442   7.091  17.067  0.00  0.00    +0.000 A 
ENDBRANCH  24  25
ENDBRANCH   3  24
TORSDOF 5
ENDMDL
MODEL 2
REMARK VINA RESULT:      -8.6      2.535      4.882
REMARK  Name = 
REMARK  8 active torsions:
REMARK  status: ('A' for Active; 'I' for Inactive)
REMARK    1  A    between atoms: C_1  and  C_2
REMARK    2  A    between atoms: C_2  and  C_3
REMARK    3  A    between atoms: C_2  and  C_4
REMARK    4  A    between atoms: C_2  and  C_5
REMARK    5  A    between atoms: C_10  and  C_12
REMARK    6  A    between atoms: C_12  and  C_13
REMARK    7  A    between atoms: N_15  and  C_16
REMARK    8  A    between atoms: C_16  and  C_17
REMARK                            x       y       z     vdW  Elec       q    Type
REMARK                         _______ _______ _______ _____ _____    ______ ____
ROOT
ATOM      1  C   UNL     1       3.708   6.831  17.686  0.00  0.00    +0.000 A 
ATOM      2  C   UNL     1       2.782   5.811  17.824  0.00  0.00    +0.000 A 
ATOM      3  N   UNL     1       3.337   4.650  17.348  0.00  0.00    +0.000 N 
ATOM      4  C   UNL     1       4.591   4.913  16.829  0.00  0.00    +0.000 A 
ATOM      5  C   UNL     1       5.502   4.112  16.132  0.00  0.00    +0.000 A 
ATOM      6  C   UNL     1       6.724   4.702  15.848  0.00  0.00    +0.000 A 
ATOM      7  N   UNL     1       7.078   5.956  16.197  0.00  0.00    +0.000 NA
ATOM      8  C   UNL     1       6.166   6.736  16.833  0.00  0.00    +0.000 A 
ATOM      9  C   UNL     1       4.893   6.242  17.139  0.00  0.00    +0.000 A 
ENDROOT
BRANCH   1  10
ATOM     10  C   UNL     1       3.481   8.269  18.010  0.00  0.00    +0.000 C 
BRANCH  10  16
ATOM     11  C   UNL     1      -1.657  10.873  18.224  0.00  0.00    +0.000 A 
ATOM     12  C   UNL     1      -1.446  11.711  19.308  0.00  0.00    +0.000 A 
ATOM     13  S   UNL     1       0.192  11.623  19.819  0.00  0.00    +0.000 S 
ATOM     14  C   UNL     1       0.459  10.403  18.664  0.00  0.00    +0.000 A 
ATOM     15  N   UNL     1       1.712   9.862  18.675  0.00  0.00    +0.000 N 
ATOM     16  C   UNL     1       2.025   8.725  17.969  0.00  0.00    +0.000 C 
ATOM     17  O   UNL     1       1.229   8.037  17.327  0.00  0.00    +0.000 OA
ATOM     18  N   UNL     1      -0.549  10.108  17.889  0.00  0.00    +0.000 NA
ATOM     19  H   UNL     1       2.386  10.311  19.284  0.00  0.00    +0.000 HD
BRANCH  11  21
ATOM     20  C   UNL     1      -2.671  10.722  15.906  0.00  0.00    +0.000 C 
ATOM     21  C   UNL     1      -2.934  10.664  17.424  0.00  0.00    +0.000 C 
ATOM     22  C   UNL     1      -3.957  11.752  17.797  0.00  0.00    +0.000 C 
ATOM     23  C   UNL     1      -3.550   9.281  17.738  0.00  0.00    +0.000 C 
ENDBRANCH  11  21
ENDBRANCH  10  16
ENDBRANCH   1  10
BRANCH   3  24
ATOM     24  C   UNL     1       2.709   3.336  17.488  0.00  0.00    +0.000 C 
BRANCH  24  25
ATOM     25  C   UNL     1       2.391   3.030  18.928  0.00  0.00    +0.000 A 
ATOM     26  C   UNL     1       1.073   3.113  19.396  0.00  0.00    +0.000 A 
ATOM     27  C   UNL     1       0.793   2.965  20.754  0.00  0.00    +0.000 A 
ATOM     28  C   UNL     1       1.825   2.712  21.655  0.00  0.00    +0.000 A 
ATOM     29  C   UNL     1       3.131   2.565  21.195  0.00  0.00    +0.000 A 
ATOM     30  C   UNL     1       3.415   2.719  19.837  0.00  0.00    +0.000 A 
ENDBRANCH  24  25
ENDBRANCH   3  24
TORSDOF 5
ENDMDL
MODEL 3
REMARK VINA RESULT:      -8.4      2.561      4.911
REMARK  Name = 
REMARK  8 active torsions:
REMARK  status: ('A' for Active; 'I' for Inactive)
REMARK    1  A    between atoms: C_1  and  C_2
REMARK    2  A    between atoms: C_2  and  C_3
REMARK    3  A    between atoms: C_2  and  C_4
REMARK    4  A    between atoms: C_2  and  C_5
REMARK    5  A    between atoms: C_10  and  C_12
REMARK    6  A    between atoms: C_12  and  C_13
REMARK    7  A    between atoms: N_15  and  C_16
REMARK    8  A    between atoms: C_16  and  C_17
REMARK                            x       y       z     vdW  Elec       q    Type
REMARK                         _______ _______ _______ _____ _____    ______ ____
ROOT
ATOM      1  C   UNL     1       3.790   6.843  17.629  0.00  0.00    +0.000 A 
ATOM      2  C   UNL     1       2.877   5.828  17.854  0.00  0.00    +0.000 A 
ATOM      3  N   UNL     1       3.417   4.648  17.408  0.00  0.00    +0.000 N 
ATOM      4  C   UNL     1       4.645   4.892  16.822  0.00  0.00    +0.000 A 
ATOM      5  C   UNL     1       5.528   4.063  16.123  0.00  0.00    +0.000 A 
ATOM      6  C   UNL     1       6.733   4.644  15.758  0.00  0.00    +0.000 A 
ATOM      7  N   UNL     1       7.095   5.913  16.033  0.00  0.00    +0.000 NA
ATOM      8  C   UNL     1       6.208   6.719  16.673  0.00  0.00    +0.000 A 
ATOM      9  C   UNL     1       4.953   6.235  17.058  0.00  0.00    +0.000 A 
ENDROOT
BRANCH   1  10
ATOM     10  C   UNL     1       3.569   8.294  17.897  0.00  0.00    +0.000 C 
BRANCH  10  16
ATOM     11  C   UNL     1      -1.566  10.899  18.166  0.00  0.00    +0.000 A 
ATOM     12  C   UNL     1      -1.310  11.809  19.180  0.00  0.00    +0.000 A 
ATOM     13  S   UNL     1       0.350  11.758  19.623  0.00  0.00    +0.000 S 
ATOM     14  C   UNL     1       0.570  10.463  18.542  0.00  0.00    +0.000 A 
ATOM     15  N   UNL     1       1.825   9.926  18.532  0.00  0.00    +0.000 N 
ATOM     16  C   UNL     1       2.111   8.744  17.891  0.00  0.00    +0.000 C 
ATOM     17  O   UNL     1       1.290   8.014  17.333  0.00  0.00    +0.000 OA
ATOM     18  N   UNL     1      -0.470  10.115  17.833  0.00  0.00    +0.000 NA
ATOM     19  H   UNL     1       2.523  10.416  19.080  0.00  0.00    +0.000 HD
BRANCH  11  21
ATOM     20  C   UNL     1      -3.464   9.259  17.807  0.00  0.00    +0.000 C 
ATOM     21  C   UNL     1      -2.876  10.635  17.439  0.00  0.00    +0.000 C 
ATOM     22  C   UNL     1      -2.639  10.689  15.919  0.00  0.00    +0.000 C 
ATOM     23  C   UNL     1      -3.927  11.707  17.811  0.00  0.00    +0.000 C 
ENDBRANCH  11  21
ENDBRANCH  10  16
ENDBRANCH   1  10
BRANCH   3  24
ATOM     24  C   UNL     1       2.803   3.340  17.635  0.00  0.00    +0.000 C 
BRANCH  24  25
ATOM     25  C   UNL     1       2.415   3.159  19.079  0.00  0.00    +0.000 A 
ATOM     26  C   UNL     1       3.383   2.836  20.038  0.00  0.00    +0.000 A 
ATOM     27  C   UNL     1       3.010   2.533  21.347  0.00  0.00    +0.000 A 
ATOM     28  C   UNL     1       1.668   2.571  21.716  0.00  0.00    +0.000 A 
ATOM     29  C   UNL     1       0.701   2.953  20.788  0.00  0.00    +0.000 A 
ATOM     30  C   UNL     1       1.071   3.250  19.476  0.00  0.00    +0.000 A 
ENDBRANCH  24  25
ENDBRANCH   3  24
TORSDOF 5
ENDMDL
MODEL 4
REMARK VINA RESULT:      -8.4      0.464      1.320
REMARK  Name = 
REMARK  8 active torsions:
REMARK  status: ('A' for Active; 'I' for Inactive)
REMARK    1  A    between atoms: C_1  and  C_2
REMARK    2  A    between atoms: C_2  and  C_3
REMARK    3  A    between atoms: C_2  and  C_4
REMARK    4  A    between atoms: C_2  and  C_5
REMARK    5  A    between atoms: C_10  and  C_12
REMARK    6  A    between atoms: C_12  and  C_13
REMARK    7  A    between atoms: N_15  and  C_16
REMARK    8  A    between atoms: C_16  and  C_17
REMARK                            x       y       z     vdW  Elec       q    Type
REMARK                         _______ _______ _______ _____ _____    ______ ____
ROOT
ATOM      1  C   UNL     1       2.226   5.701  19.870  0.00  0.00    +0.000 A 
ATOM      2  C   UNL     1       3.331   6.105  19.143  0.00  0.00    +0.000 A 
ATOM      3  N   UNL     1       3.662   5.109  18.259  0.00  0.00    +0.000 N 
ATOM      4  C   UNL     1       2.829   4.022  18.453  0.00  0.00    +0.000 A 
ATOM      5  C   UNL     1       2.827   2.736  17.903  0.00  0.00    +0.000 A 
ATOM      6  C   UNL     1       1.761   1.929  18.270  0.00  0.00    +0.000 A 
ATOM      7  N   UNL     1       0.757   2.298  19.091  0.00  0.00    +0.000 NA
ATOM      8  C   UNL     1       0.798   3.535  19.653  0.00  0.00    +0.000 A 
ATOM      9  C   UNL     1       1.848   4.414  19.368  0.00  0.00    +0.000 A 
ENDROOT
BRANCH   1  10
ATOM     10  C   UNL     1       1.590   6.456  20.988  0.00  0.00    +0.000 C 
BRANCH  10  16
ATOM     11  C   UNL     1       0.390  12.094  20.940  0.00  0.00    +0.000 A 
ATOM     12  C   UNL     1      -0.542  12.140  21.965  0.00  0.00    +0.000 A 
ATOM     13  S   UNL     1      -0.660  10.607  22.733  0.00  0.00    +0.000 S 
ATOM     14  C   UNL     1       0.422   9.977  21.581  0.00  0.00    +0.000 A 
ATOM     15  N   UNL     1       0.661   8.637  21.686  0.00  0.00    +0.000 N 
ATOM     16  C   UNL     1       1.326   7.933  20.711  0.00  0.00    +0.000 C 
ATOM     17  O   UNL     1       1.705   8.388  19.630  0.00  0.00    +0.000 OA
ATOM     18  N   UNL     1       0.913  10.827  20.721  0.00  0.00    +0.000 NA
ATOM     19  H   UNL     1       0.265   8.176  22.498  0.00  0.00    +0.000 HD
BRANCH  11  21
ATOM     20  C   UNL     1       1.448  12.680  18.713  0.00  0.00    +0.000 C 
ATOM     21  C   UNL     1       0.850  13.220  20.027  0.00  0.00    +0.000 C 
ATOM     22  C   UNL     1       1.912  14.067  20.751  0.00  0.00    +0.000 C 
ATOM     23  C   UNL     1      -0.340  14.136  19.656  0.00  0.00    +0.000 C 
ENDBRANCH  11  21
ENDBRANCH  10  16
ENDBRANCH   1  10
BRANCH   3  24
ATOM     24  C   UNL     1       4.675   5.256  17.214  0.00  0.00    +0.000 C 
BRANCH  24  25
ATOM     25  C   UNL     1       5.897   5.966  17.732  0.00  0.00    +0.000 A 
ATOM     26  C   UNL     1       6.297   7.188  17.176  0.00  0.00    +0.000 A 
ATOM     27  C   UNL     1       7.501   7.780  17.556  0.00  0.00    +0.000 A 
ATOM     28  C   UNL     1       8.308   7.167  18.512  0.00  0.00    +0.000 A 
ATOM     29  C   UNL     1       7.892   5.984  19.119  0.00  0.00    +0.000 A 
ATOM     30  C   UNL     1       6.691   5.387  18.735  0.00  0.00    +0.000 A 
ENDBRANCH  24  25
ENDBRANCH   3  24
TORSDOF 5
ENDMDL
MODEL 5
REMARK VINA RESULT:      -8.3      2.253      4.565
REMARK  Name = 
REMARK  8 active torsions:
REMARK  status: ('A' for Active; 'I' for Inactive)
REMARK    1  A    between atoms: C_1  and  C_2
REMARK    2  A    between atoms: C_2  and  C_3
REMARK    3  A    between atoms: C_2  and  C_4
REMARK    4  A    between atoms: C_2  and  C_5
REMARK    5  A    between atoms: C_10  and  C_12
REMARK    6  A    between atoms: C_12  and  C_13
REMARK    7  A    between atoms: N_15  and  C_16
REMARK    8  A    between atoms: C_16  and  C_17
REMARK                            x       y       z     vdW  Elec       q    Type
REMARK                         _______ _______ _______ _____ _____    ______ ____
ROOT
ATOM      1  C   UNL     1       4.044   6.493  17.533  0.00  0.00    +0.000 A 
ATOM      2  C   UNL     1       3.003   5.609  17.751  0.00  0.00    +0.000 A 
ATOM      3  N   UNL     1       3.360   4.381  17.251  0.00  0.00    +0.000 N 
ATOM      4  C   UNL     1       4.596   4.472  16.638  0.00  0.00    +0.000 A 
ATOM      5  C   UNL     1       5.336   3.554  15.887  0.00  0.00    +0.000 A 
ATOM      6  C   UNL     1       6.602   3.973  15.506  0.00  0.00    +0.000 A 
ATOM      7  N   UNL     1       7.146   5.168  15.811  0.00  0.00    +0.000 NA
ATOM      8  C   UNL     1       6.397   6.066  16.502  0.00  0.00    +0.000 A 
ATOM      9  C   UNL     1       5.096   5.749  16.908  0.00  0.00    +0.000 A 
ENDROOT
BRANCH   1  10
ATOM     10  C   UNL     1       4.037   7.950  17.854  0.00  0.00    +0.000 C 
BRANCH  10  16
ATOM     11  C   UNL     1      -0.891  10.444  19.506  0.00  0.00    +0.000 A 
ATOM     12  C   UNL     1      -0.920  10.040  20.831  0.00  0.00    +0.000 A 
ATOM     13  S   UNL     1       0.537   9.226  21.239  0.00  0.00    +0.000 S 
ATOM     14  C   UNL     1       1.032   9.356  19.617  0.00  0.00    +0.000 A 
ATOM     15  N   UNL     1       2.222   8.754  19.327  0.00  0.00    +0.000 N 
ATOM     16  C   UNL     1       2.655   8.572  18.035  0.00  0.00    +0.000 C 
ATOM     17  O   UNL     1       2.015   8.848  17.018  0.00  0.00    +0.000 OA
ATOM     18  N   UNL     1       0.236  10.013  18.818  0.00  0.00    +0.000 NA
ATOM     19  H   UNL     1       2.743   8.390  20.118  0.00  0.00    +0.000 HD
BRANCH  11  21
ATOM     20  C   UNL     1      -2.876  12.010  19.674  0.00  0.00    +0.000 C 
ATOM     21  C   UNL     1      -1.938  11.230  18.732  0.00  0.00    +0.000 C 
ATOM     22  C   UNL     1      -2.776  10.264  17.876  0.00  0.00    +0.000 C 
ATOM     23  C   UNL     1      -1.261  12.256  17.794  0.00  0.00    +0.000 C 
ENDBRANCH  11  21
ENDBRANCH  10  16
ENDBRANCH   1  10
BRANCH   3  24
ATOM     24  C   UNL     1       2.573   3.165  17.454  0.00  0.00    +0.000 C 
BRANCH  24  25
ATOM     25  C   UNL     1       2.327   2.908  18.917  0.00  0.00    +0.000 A 
ATOM     26  C   UNL     1       1.043   3.057  19.456  0.00  0.00    +0.000 A 
ATOM     27  C   UNL     1       0.835   2.955  20.832  0.00  0.00    +0.000 A 
ATOM     28  C   UNL     1       1.906   2.681  21.679  0.00  0.00    +0.000 A 
ATOM     29  C   UNL     1       3.177   2.468  21.150  0.00  0.00    +0.000 A 
ATOM     30  C   UNL     1       3.388   2.576  19.775  0.00  0.00    +0.000 A 
ENDBRANCH  24  25
ENDBRANCH   3  24
TORSDOF 5
ENDMDL
MODEL 6
REMARK VINA RESULT:      -8.2      0.620      1.087
REMARK  Name = 
REMARK  8 active torsions:
REMARK  status: ('A' for Active; 'I' for Inactive)
REMARK    1  A    between atoms: C_1  and  C_2
REMARK    2  A    between atoms: C_2  and  C_3
REMARK    3  A    between atoms: C_2  and  C_4
REMARK    4  A    between atoms: C_2  and  C_5
REMARK    5  A    between atoms: C_10  and  C_12
REMARK    6  A    between atoms: C_12  and  C_13
REMARK    7  A    between atoms: N_15  and  C_16
REMARK    8  A    between atoms: C_16  and  C_17
REMARK                            x       y       z     vdW  Elec       q    Type
REMARK                         _______ _______ _______ _____ _____    ______ ____
ROOT
ATOM      1  C   UNL     1       1.961   6.179  20.065  0.00  0.00    +0.000 A 
ATOM      2  C   UNL     1       2.992   6.562  19.225  0.00  0.00    +0.000 A 
ATOM      3  N   UNL     1       3.414   5.461  18.521  0.00  0.00    +0.000 N 
ATOM      4  C   UNL     1       2.721   4.344  18.949  0.00  0.00    +0.000 A 
ATOM      5  C   UNL     1       2.857   2.986  18.641  0.00  0.00    +0.000 A 
ATOM      6  C   UNL     1       1.903   2.148  19.198  0.00  0.00    +0.000 A 
ATOM      7  N   UNL     1       0.885   2.549  19.985  0.00  0.00    +0.000 NA
ATOM      8  C   UNL     1       0.793   3.864  20.311  0.00  0.00    +0.000 A 
ATOM      9  C   UNL     1       1.725   4.787  19.822  0.00  0.00    +0.000 A 
ENDROOT
BRANCH   1  10
ATOM     10  C   UNL     1       1.269   7.052  21.057  0.00  0.00    +0.000 C 
BRANCH  10  16
ATOM     11  C   UNL     1       0.459  12.730  20.475  0.00  0.00    +0.000 A 
ATOM     12  C   UNL     1      -0.486  12.931  21.469  0.00  0.00    +0.000 A 
ATOM     13  S   UNL     1      -0.723  11.485  22.368  0.00  0.00    +0.000 S 
ATOM     14  C   UNL     1       0.334  10.683  21.303  0.00  0.00    +0.000 A 
ATOM     15  N   UNL     1       0.479   9.345  21.534  0.00  0.00    +0.000 N 
ATOM     16  C   UNL     1       1.112   8.512  20.642  0.00  0.00    +0.000 C 
ATOM     17  O   UNL     1       1.541   8.841  19.534  0.00  0.00    +0.000 OA
ATOM     18  N   UNL     1       0.898  11.416  20.382  0.00  0.00    +0.000 NA
ATOM     19  H   UNL     1       0.038   8.987  22.374  0.00  0.00    +0.000 HD
BRANCH  11  21
ATOM     20  C   UNL     1       1.914  14.781  20.160  0.00  0.00    +0.000 C 
ATOM     21  C   UNL     1       1.011  13.735  19.476  0.00  0.00    +0.000 C 
ATOM     22  C   UNL     1      -0.155  14.459  18.779  0.00  0.00    +0.000 C 
ATOM     23  C   UNL     1       1.859  13.020  18.399  0.00  0.00    +0.000 C 
ENDBRANCH  11  21
ENDBRANCH  10  16
ENDBRANCH   1  10
BRANCH   3  24
ATOM     24  C   UNL     1       4.376   5.525  17.421  0.00  0.00    +0.000 C 
BRANCH  24  25
ATOM     25  C   UNL     1       5.702   6.067  17.881  0.00  0.00    +0.000 A 
ATOM     26  C   UNL     1       6.286   7.161  17.230  0.00  0.00    +0.000 A 
ATOM     27  C   UNL     1       7.574   7.580  17.563  0.00  0.00    +0.000 A 
ATOM     28  C   UNL     1       8.283   6.923  18.565  0.00  0.00    +0.000 A 
ATOM     29  C   UNL     1       7.690   5.874  19.264  0.00  0.00    +0.000 A 
ATOM     30  C   UNL     1       6.405   5.449  18.929  0.00  0.00    +0.000 A 
ENDBRANCH  24  25
ENDBRANCH   3  24
TORSDOF 5
ENDMDL
MODEL 7
REMARK VINA RESULT:      -8.2      1.229      1.426
REMARK  Name = 
REMARK  8 active torsions:
REMARK  status: ('A' for Active; 'I' for Inactive)
REMARK    1  A    between atoms: C_1  and  C_2
REMARK    2  A    between atoms: C_2  and  C_3
REMARK    3  A    between atoms: C_2  and  C_4
REMARK    4  A    between atoms: C_2  and  C_5
REMARK    5  A    between atoms: C_10  and  C_12
REMARK    6  A    between atoms: C_12  and  C_13
REMARK    7  A    between atoms: N_15  and  C_16
REMARK    8  A    between atoms: C_16  and  C_17
REMARK                            x       y       z     vdW  Elec       q    Type
REMARK                         _______ _______ _______ _____ _____    ______ ____
ROOT
ATOM      1  C   UNL     1       1.964   6.100  20.083  0.00  0.00    +0.000 A 
ATOM      2  C   UNL     1       2.917   6.627  19.231  0.00  0.00    +0.000 A 
ATOM      3  N   UNL     1       3.335   5.637  18.376  0.00  0.00    +0.000 N 
ATOM      4  C   UNL     1       2.719   4.446  18.711  0.00  0.00    +0.000 A 
ATOM      5  C   UNL     1       2.888   3.141  18.237  0.00  0.00    +0.000 A 
ATOM      6  C   UNL     1       2.010   2.199  18.750  0.00  0.00    +0.000 A 
ATOM      7  N   UNL     1       1.033   2.456  19.642  0.00  0.00    +0.000 NA
ATOM      8  C   UNL     1       0.911   3.719  20.127  0.00  0.00    +0.000 A 
ATOM      9  C   UNL     1       1.768   4.736  19.693  0.00  0.00    +0.000 A 
ENDROOT
BRANCH   1  10
ATOM     10  C   UNL     1       1.307   6.818  21.214  0.00  0.00    +0.000 C 
BRANCH  10  16
ATOM     11  C   UNL     1       0.086  12.318  19.991  0.00  0.00    +0.000 A 
ATOM     12  C   UNL     1      -0.439  12.160  18.717  0.00  0.00    +0.000 A 
ATOM     13  S   UNL     1      -0.579  10.491  18.333  0.00  0.00    +0.000 S 
ATOM     14  C   UNL     1       0.175  10.115  19.811  0.00  0.00    +0.000 A 
ATOM     15  N   UNL     1       0.403   8.785  20.021  0.00  0.00    +0.000 N 
ATOM     16  C   UNL     1       1.195   8.331  21.048  0.00  0.00    +0.000 C 
ATOM     17  O   UNL     1       1.835   9.040  21.828  0.00  0.00    +0.000 OA
ATOM     18  N   UNL     1       0.458  11.123  20.591  0.00  0.00    +0.000 NA
ATOM     19  H   UNL     1       0.004   8.151  19.338  0.00  0.00    +0.000 HD
BRANCH  11  21
ATOM     20  C   UNL     1      -0.282  13.566  22.165  0.00  0.00    +0.000 C 
ATOM     21  C   UNL     1       0.341  13.607  20.756  0.00  0.00    +0.000 C 
ATOM     22  C   UNL     1      -0.257  14.793  19.978  0.00  0.00    +0.000 C 
ATOM     23  C   UNL     1       1.860  13.846  20.925  0.00  0.00    +0.000 C 
ENDBRANCH  11  21
ENDBRANCH  10  16
ENDBRANCH   1  10
BRANCH   3  24
ATOM     24  C   UNL     1       4.215   5.874  17.232  0.00  0.00    +0.000 C 
BRANCH  24  25
ATOM     25  C   UNL     1       5.628   6.145  17.673  0.00  0.00    +0.000 A 
ATOM     26  C   UNL     1       6.229   5.350  18.657  0.00  0.00    +0.000 A 
ATOM     27  C   UNL     1       7.484   5.680  19.167  0.00  0.00    +0.000 A 
ATOM     28  C   UNL     1       8.162   6.796  18.682  0.00  0.00    +0.000 A 
ATOM     29  C   UNL     1       7.604   7.559  17.659  0.00  0.00    +0.000 A 
ATOM     30  C   UNL     1       6.345   7.235  17.153  0.00  0.00    +0.000 A 
ENDBRANCH  24  25
ENDBRANCH   3  24
TORSDOF 5
ENDMDL
MODEL 8
REMARK VINA RESULT:      -8.2      1.227      2.048
REMARK  Name = 
REMARK  8 active torsions:
REMARK  status: ('A' for Active; 'I' for Inactive)
REMARK    1  A    between atoms: C_1  and  C_2
REMARK    2  A    between atoms: C_2  and  C_3
REMARK    3  A    between atoms: C_2  and  C_4
REMARK    4  A    between atoms: C_2  and  C_5
REMARK    5  A    between atoms: C_10  and  C_12
REMARK    6  A    between atoms: C_12  and  C_13
REMARK    7  A    between atoms: N_15  and  C_16
REMARK    8  A    between atoms: C_16  and  C_17
REMARK                            x       y       z     vdW  Elec       q    Type
REMARK                         _______ _______ _______ _____ _____    ______ ____
ROOT
ATOM      1  C   UNL     1       2.494   5.500  19.993  0.00  0.00    +0.000 A 
ATOM      2  C   UNL     1       3.842   5.811  19.958  0.00  0.00    +0.000 A 
ATOM      3  N   UNL     1       4.491   4.859  19.213  0.00  0.00    +0.000 N 
ATOM      4  C   UNL     1       3.593   3.883  18.823  0.00  0.00    +0.000 A 
ATOM      5  C   UNL     1       3.767   2.662  18.164  0.00  0.00    +0.000 A 
ATOM      6  C   UNL     1       2.602   1.980  17.849  0.00  0.00    +0.000 A 
ATOM      7  N   UNL     1       1.354   2.410  18.124  0.00  0.00    +0.000 NA
ATOM      8  C   UNL     1       1.204   3.576  18.805  0.00  0.00    +0.000 A 
ATOM      9  C   UNL     1       2.320   4.325  19.194  0.00  0.00    +0.000 A 
ENDROOT
BRANCH   1  10
ATOM     10  C   UNL     1       1.445   6.235  20.758  0.00  0.00    +0.000 C 
BRANCH  10  16
ATOM     11  C   UNL     1       0.839  11.967  20.654  0.00  0.00    +0.000 A 
ATOM     12  C   UNL     1      -0.160  12.110  21.604  0.00  0.00    +0.000 A 
ATOM     13  S   UNL     1      -0.495  10.599  22.350  0.00  0.00    +0.000 S 
ATOM     14  C   UNL     1       0.603   9.859  21.281  0.00  0.00    +0.000 A 
ATOM     15  N   UNL     1       0.694   8.502  21.396  0.00  0.00    +0.000 N 
ATOM     16  C   UNL     1       1.357   7.732  20.471  0.00  0.00    +0.000 C 
ATOM     17  O   UNL     1       1.864   8.144  19.425  0.00  0.00    +0.000 OA
ATOM     18  N   UNL     1       1.244  10.653  20.467  0.00  0.00    +0.000 NA
ATOM     19  H   UNL     1       0.191   8.085  22.171  0.00  0.00    +0.000 HD
BRANCH  11  21
ATOM     20  C   UNL     1       2.093  12.442  18.503  0.00  0.00    +0.000 C 
ATOM     21  C   UNL     1       1.482  13.039  19.787  0.00  0.00    +0.000 C 
ATOM     22  C   UNL     1       2.589  13.749  20.586  0.00  0.00    +0.000 C 
ATOM     23  C   UNL     1       0.432  14.090  19.358  0.00  0.00    +0.000 C 
ENDBRANCH  11  21
ENDBRANCH  10  16
ENDBRANCH   1  10
BRANCH   3  24
ATOM     24  C   UNL     1       5.898   4.957  18.824  0.00  0.00    +0.000 C 
BRANCH  24  25
ATOM     25  C   UNL     1       6.045   5.118  17.334  0.00  0.00    +0.000 A 
ATOM     26  C   UNL     1       5.224   6.010  16.633  0.00  0.00    +0.000 A 
ATOM     27  C   UNL     1       5.261   6.062  15.240  0.00  0.00    +0.000 A 
ATOM     28  C   UNL     1       6.136   5.239  14.534  0.00  0.00    +0.000 A 
ATOM     29  C   UNL     1       7.003   4.393  15.222  0.00  0.00    +0.000 A 
ATOM     30  C   UNL     1       6.962   4.334  16.616  0.00  0.00    +0.000 A 
ENDBRANCH  24  25
ENDBRANCH   3  24
TORSDOF 5
ENDMDL
MODEL 9
REMARK VINA RESULT:      -8.2      2.893      8.755
REMARK  Name = 
REMARK  8 active torsions:
REMARK  status: ('A' for Active; 'I' for Inactive)
REMARK    1  A    between atoms: C_1  and  C_2
REMARK    2  A    between atoms: C_2  and  C_3
REMARK    3  A    between atoms: C_2  and  C_4
REMARK    4  A    between atoms: C_2  and  C_5
REMARK    5  A    between atoms: C_10  and  C_12
REMARK    6  A    between atoms: C_12  and  C_13
REMARK    7  A    between atoms: N_15  and  C_16
REMARK    8  A    between atoms: C_16  and  C_17
REMARK                            x       y       z     vdW  Elec       q    Type
REMARK                         _______ _______ _______ _____ _____    ______ ____
ROOT
ATOM      1  C   UNL     1       0.767   8.429  20.606  0.00  0.00    +0.000 A 
ATOM      2  C   UNL     1       0.563   9.011  19.367  0.00  0.00    +0.000 A 
ATOM      3  N   UNL     1      -0.049  10.226  19.550  0.00  0.00    +0.000 N 
ATOM      4  C   UNL     1      -0.316  10.413  20.894  0.00  0.00    +0.000 A 
ATOM      5  C   UNL     1      -1.019  11.411  21.577  0.00  0.00    +0.000 A 
ATOM      6  C   UNL     1      -0.998  11.318  22.960  0.00  0.00    +0.000 A 
ATOM      7  N   UNL     1      -0.359  10.361  23.662  0.00  0.00    +0.000 NA
ATOM      8  C   UNL     1       0.280   9.373  22.983  0.00  0.00    +0.000 A 
ATOM      9  C   UNL     1       0.293   9.361  21.584  0.00  0.00    +0.000 A 
ENDROOT
BRANCH   1  10
ATOM     10  C   UNL     1       1.335   7.072  20.853  0.00  0.00    +0.000 C 
BRANCH  10  16
ATOM     11  C   UNL     1       4.529   4.463  16.825  0.00  0.00    +0.000 A 
ATOM     12  C   UNL     1       4.210   3.142  17.099  0.00  0.00    +0.000 A 
ATOM     13  S   UNL     1       2.980   3.061  18.295  0.00  0.00    +0.000 S 
ATOM     14  C   UNL     1       3.055   4.753  18.449  0.00  0.00    +0.000 A 
ATOM     15  N   UNL     1       2.246   5.282  19.413  0.00  0.00    +0.000 N 
ATOM     16  C   UNL     1       2.348   6.591  19.818  0.00  0.00    +0.000 C 
ATOM     17  O   UNL     1       3.198   7.397  19.432  0.00  0.00    +0.000 OA
ATOM     18  N   UNL     1       3.867   5.374  17.637  0.00  0.00    +0.000 NA
ATOM     19  H   UNL     1       1.606   4.636  19.861  0.00  0.00    +0.000 HD
BRANCH  11  21
ATOM     20  C   UNL     1       5.396   4.294  14.450  0.00  0.00    +0.000 C 
ATOM     21  C   UNL     1       5.523   5.007  15.810  0.00  0.00    +0.000 C 
ATOM     22  C   UNL     1       6.954   4.819  16.344  0.00  0.00    +0.000 C 
ATOM     23  C   UNL     1       5.282   6.515  15.571  0.00  0.00    +0.000 C 
ENDBRANCH  11  21
ENDBRANCH  10  16
ENDBRANCH   1  10
BRANCH   3  24
ATOM     24  C   UNL     1      -0.266  11.193  18.474  0.00  0.00    +0.000 C 
BRANCH  24  25
ATOM     25  C   UNL     1      -1.647  11.060  17.888  0.00  0.00    +0.000 A 
ATOM     26  C   UNL     1      -2.707  11.827  18.390  0.00  0.00    +0.000 A 
ATOM     27  C   UNL     1      -4.010  11.610  17.945  0.00  0.00    +0.000 A 
ATOM     28  C   UNL     1      -4.265  10.639  16.979  0.00  0.00    +0.000 A 
ATOM     29  C   UNL     1      -3.212   9.914  16.426  0.00  0.00    +0.000 A 
ATOM     30  C   UNL     1      -1.908  10.125  16.874  0.00  0.00    +0.000 A 
ENDBRANCH  24  25
ENDBRANCH   3  24
TORSDOF 5
ENDMDL
