MODEL 1
REMARK VINA RESULT:      -7.9      0.000      0.000
REMARK  Name = 
REMARK  8 active torsions:
REMARK  status: ('A' for Active; 'I' for Inactive)
REMARK    1  A    between atoms: C_1  and  O_2
REMARK    2  A    between atoms: O_2  and  C_3
REMARK    3  A    between atoms: C_7  and  C_8
REMARK    4  A    between atoms: C_8  and  N_9
REMARK    5  A    between atoms: C_11  and  C_12
REMARK    6  A    between atoms: N_14  and  C_15
REMARK    7  A    between atoms: N_22  and  C_23
REMARK    8  A    between atoms: C_23  and  C_24
REMARK                            x       y       z     vdW  Elec       q    Type
REMARK                         _______ _______ _______ _____ _____    ______ ____
ROOT
ATOM      1  N   UNL     1      -1.009  12.089  20.785  0.00  0.00    +0.000 N 
ATOM      2  N   UNL     1      -2.263  11.959  20.277  0.00  0.00    +0.000 NA
ATOM      3  C   UNL     1      -2.106  11.246  19.134  0.00  0.00    +0.000 A 
ATOM      4  C   UNL     1      -0.736  10.903  18.941  0.00  0.00    +0.000 A 
ATOM      5  C   UNL     1      -0.069  11.523  19.974  0.00  0.00    +0.000 A 
ATOM      6  C   UNL     1       1.400  11.491  20.147  0.00  0.00    +0.000 C 
ATOM      7  C   UNL     1       2.022  10.959  18.828  0.00  0.00    +0.000 C 
ATOM      8  N   UNL     1       1.347   9.770  18.236  0.00  0.00    +0.000 NA
ATOM      9  C   UNL     1      -0.064  10.107  17.863  0.00  0.00    +0.000 C 
ENDROOT
BRANCH   3  10
ATOM     10  C   UNL     1      -3.226  10.932  18.247  0.00  0.00    +0.000 C 
ATOM     11  O   UNL     1      -3.418   9.802  17.774  0.00  0.00    +0.000 OA
ATOM     12  N   UNL     1      -4.046  12.018  17.998  0.00  0.00    +0.000 N 
ATOM     13  H   UNL     1      -3.769  12.871  18.476  0.00  0.00    +0.000 HD
BRANCH  12  14
ATOM     14  C   UNL     1      -5.211  11.980  17.185  0.00  0.00    +0.000 C 
ATOM     15  C   UNL     1      -6.555  11.683  17.797  0.00  0.00    +0.000 C 
ATOM     16  C   UNL     1      -6.259  13.063  17.277  0.00  0.00    +0.000 C 
ENDBRANCH  12  14
ENDBRANCH   3  10
BRANCH   1  17
ATOM     17  C   UNL     1      -0.817  12.560  22.157  0.00  0.00    +0.000 C 
BRANCH  17  22
ATOM     18  C   UNL     1      -4.181  12.892  23.944  0.00  0.00    +0.000 A 
ATOM     19  C   UNL     1      -4.419  14.262  23.816  0.00  0.00    +0.000 A 
ATOM     20  C   UNL     1      -3.492  15.083  23.174  0.00  0.00    +0.000 A 
ATOM     21  C   UNL     1      -2.313  14.539  22.661  0.00  0.00    +0.000 A 
ATOM     22  C   UNL     1      -2.041  13.170  22.794  0.00  0.00    +0.000 A 
ATOM     23  C   UNL     1      -2.990  12.354  23.444  0.00  0.00    +0.000 A 
BRANCH  18  25
ATOM     24  C   UNL     1      -6.500  12.501  24.213  0.00  0.00    +0.000 C 
ATOM     25  O   UNL     1      -5.161  12.195  24.589  0.00  0.00    +0.000 OA
ENDBRANCH  18  25
ENDBRANCH  17  22
ENDBRANCH   1  17
BRANCH   8  26
ATOM     26  C   UNL     1       1.389   8.560  19.087  0.00  0.00    +0.000 C 
BRANCH  26  27
ATOM     27  C   UNL     1       2.467   7.565  18.683  0.00  0.00    +0.000 A 
ATOM     28  C   UNL     1       3.219   7.777  17.509  0.00  0.00    +0.000 A 
ATOM     29  C   UNL     1       4.237   6.886  17.237  0.00  0.00    +0.000 A 
ATOM     30  C   UNL     1       4.628   5.925  18.147  0.00  0.00    +0.000 A 
ATOM     31  C   UNL     1       3.930   5.689  19.299  0.00  0.00    +0.000 A 
ATOM     32  C   UNL     1       2.769   6.436  19.490  0.00  0.00    +0.000 A 
ATOM     33 CL   UNL     1       1.618   5.773  20.603  0.00  0.00    +0.000 Cl
ATOM     34  O   UNL     1       5.619   5.126  17.661  0.00  0.00    +0.000 OA
ATOM     35  C   UNL     1       5.405   5.387  16.263  0.00  0.00    +0.000 C 
ATOM     36  O   UNL     1       4.891   6.723  16.049  0.00  0.00    +0.000 OA
ENDBRANCH  26  27
ENDBRANCH   8  26
TORSDOF 7
ENDMDL
MODEL 2
REMARK VINA RESULT:      -7.8      3.349      5.226
REMARK  Name = 
REMARK  8 active torsions:
REMARK  status: ('A' for Active; 'I' for Inactive)
REMARK    1  A    between atoms: C_1  and  O_2
REMARK    2  A    between atoms: O_2  and  C_3
REMARK    3  A    between atoms: C_7  and  C_8
REMARK    4  A    between atoms: C_8  and  N_9
REMARK    5  A    between atoms: C_11  and  C_12
REMARK    6  A    between atoms: N_14  and  C_15
REMARK    7  A    between atoms: N_22  and  C_23
REMARK    8  A    between atoms: C_23  and  C_24
REMARK                            x       y       z     vdW  Elec       q    Type
REMARK                         _______ _______ _______ _____ _____    ______ ____
ROOT
ATOM      1  N   UNL     1       1.295  12.981  20.738  0.00  0.00    +0.000 N 
ATOM      2  N   UNL     1       0.458  13.035  21.807  0.00  0.00    +0.000 NA
ATOM      3  C   UNL     1      -0.216  11.858  21.784  0.00  0.00    +0.000 A 
ATOM      4  C   UNL     1       0.229  11.047  20.699  0.00  0.00    +0.000 A 
ATOM      5  C   UNL     1       1.134  11.833  20.020  0.00  0.00    +0.000 A 
ATOM      6  C   UNL     1       1.817  11.419  18.775  0.00  0.00    +0.000 C 
ATOM      7  C   UNL     1       1.092  10.159  18.231  0.00  0.00    +0.000 C 
ATOM      8  N   UNL     1       0.769   9.117  19.247  0.00  0.00    +0.000 NA
ATOM      9  C   UNL     1      -0.176   9.668  20.271  0.00  0.00    +0.000 C 
ENDROOT
BRANCH   3  10
ATOM     10  C   UNL     1      -1.266  11.537  22.749  0.00  0.00    +0.000 C 
ATOM     11  O   UNL     1      -1.288  10.482  23.400  0.00  0.00    +0.000 OA
ATOM     12  N   UNL     1      -2.223  12.530  22.866  0.00  0.00    +0.000 N 
ATOM     13  H   UNL     1      -2.054  13.345  22.282  0.00  0.00    +0.000 HD
BRANCH  12  14
ATOM     14  C   UNL     1      -3.338  12.478  23.744  0.00  0.00    +0.000 C 
ATOM     15  C   UNL     1      -3.898  13.744  24.337  0.00  0.00    +0.000 C 
ATOM     16  C   UNL     1      -4.693  12.985  23.311  0.00  0.00    +0.000 C 
ENDBRANCH  12  14
ENDBRANCH   3  10
BRANCH   1  17
ATOM     17  C   UNL     1       2.378  13.957  20.603  0.00  0.00    +0.000 C 
BRANCH  17  22
ATOM     18  C   UNL     1       0.453  16.535  18.538  0.00  0.00    +0.000 A 
ATOM     19  C   UNL     1       1.488  17.117  17.802  0.00  0.00    +0.000 A 
ATOM     20  C   UNL     1       2.805  16.697  17.982  0.00  0.00    +0.000 A 
ATOM     21  C   UNL     1       3.099  15.694  18.908  0.00  0.00    +0.000 A 
ATOM     22  C   UNL     1       2.081  15.107  19.673  0.00  0.00    +0.000 A 
ATOM     23  C   UNL     1       0.754  15.543  19.477  0.00  0.00    +0.000 A 
BRANCH  18  25
ATOM     24  C   UNL     1      -1.218  18.122  19.078  0.00  0.00    +0.000 C 
ATOM     25  O   UNL     1      -0.791  17.029  18.272  0.00  0.00    +0.000 OA
ENDBRANCH  18  25
ENDBRANCH  17  22
ENDBRANCH   1  17
BRANCH   8  26
ATOM     26  C   UNL     1       1.954   8.515  19.899  0.00  0.00    +0.000 C 
BRANCH  26  27
ATOM     27  C   UNL     1       2.075   7.015  19.678  0.00  0.00    +0.000 A 
ATOM     28  C   UNL     1       1.634   6.116  20.671  0.00  0.00    +0.000 A 
ATOM     29  C   UNL     1       1.694   4.769  20.383  0.00  0.00    +0.000 A 
ATOM     30  C   UNL     1       2.007   4.307  19.120  0.00  0.00    +0.000 A 
ATOM     31  C   UNL     1       2.435   5.143  18.127  0.00  0.00    +0.000 A 
ATOM     32  C   UNL     1       2.589   6.486  18.463  0.00  0.00    +0.000 A 
ATOM     33 CL   UNL     1       3.634   7.410  17.434  0.00  0.00    +0.000 Cl
ATOM     34  O   UNL     1       2.053   2.946  19.064  0.00  0.00    +0.000 OA
ATOM     35  C   UNL     1       2.233   2.704  20.470  0.00  0.00    +0.000 C 
ATOM     36  O   UNL     1       1.599   3.732  21.268  0.00  0.00    +0.000 OA
ENDBRANCH  26  27
ENDBRANCH   8  26
TORSDOF 7
ENDMDL
MODEL 3
REMARK VINA RESULT:      -7.5      2.863     10.503
REMARK  Name = 
REMARK  8 active torsions:
REMARK  status: ('A' for Active; 'I' for Inactive)
REMARK    1  A    between atoms: C_1  and  O_2
REMARK    2  A    between atoms: O_2  and  C_3
REMARK    3  A    between atoms: C_7  and  C_8
REMARK    4  A    between atoms: C_8  and  N_9
REMARK    5  A    between atoms: C_11  and  C_12
REMARK    6  A    between atoms: N_14  and  C_15
REMARK    7  A    between atoms: N_22  and  C_23
REMARK    8  A    between atoms: C_23  and  C_24
REMARK                            x       y       z     vdW  Elec       q    Type
REMARK                         _______ _______ _______ _____ _____    ______ ____
ROOT
ATOM      1  N   UNL     1       3.302   7.760  17.730  0.00  0.00    +0.000 N 
ATOM      2  N   UNL     1       3.132   6.669  18.521  0.00  0.00    +0.000 NA
ATOM      3  C   UNL     1       2.241   7.057  19.468  0.00  0.00    +0.000 A 
ATOM      4  C   UNL     1       1.828   8.403  19.245  0.00  0.00    +0.000 A 
ATOM      5  C   UNL     1       2.585   8.831  18.176  0.00  0.00    +0.000 A 
ATOM      6  C   UNL     1       2.535  10.203  17.624  0.00  0.00    +0.000 C 
ATOM      7  C   UNL     1       1.780  11.097  18.643  0.00  0.00    +0.000 C 
ATOM      8  N   UNL     1       0.533  10.510  19.210  0.00  0.00    +0.000 NA
ATOM      9  C   UNL     1       0.850   9.267  19.983  0.00  0.00    +0.000 C 
ENDROOT
BRANCH   3  10
ATOM     10  C   UNL     1       1.825   6.177  20.559  0.00  0.00    +0.000 C 
ATOM     11  O   UNL     1       0.912   6.463  21.348  0.00  0.00    +0.000 OA
ATOM     12  N   UNL     1       2.546   4.998  20.616  0.00  0.00    +0.000 N 
ATOM     13  H   UNL     1       3.247   4.900  19.886  0.00  0.00    +0.000 HD
BRANCH  12  14
ATOM     14  C   UNL     1       2.331   3.965  21.568  0.00  0.00    +0.000 C 
ATOM     15  C   UNL     1       1.298   2.900  21.312  0.00  0.00    +0.000 C 
ATOM     16  C   UNL     1       2.759   2.545  21.284  0.00  0.00    +0.000 C 
ENDBRANCH  12  14
ENDBRANCH   3  10
BRANCH   1  17
ATOM     17  C   UNL     1       3.981   7.633  16.439  0.00  0.00    +0.000 C 
BRANCH  17  22
ATOM     18  C   UNL     1       6.175   4.609  15.626  0.00  0.00    +0.000 A 
ATOM     19  C   UNL     1       7.222   4.786  16.533  0.00  0.00    +0.000 A 
ATOM     20  C   UNL     1       7.236   5.885  17.391  0.00  0.00    +0.000 A 
ATOM     21  C   UNL     1       6.202   6.822  17.343  0.00  0.00    +0.000 A 
ATOM     22  C   UNL     1       5.149   6.678  16.429  0.00  0.00    +0.000 A 
ATOM     23  C   UNL     1       5.150   5.559  15.570  0.00  0.00    +0.000 A 
BRANCH  18  25
ATOM     24  C   UNL     1       6.292   3.718  13.436  0.00  0.00    +0.000 C 
ATOM     25  O   UNL     1       6.273   3.496  14.843  0.00  0.00    +0.000 OA
ENDBRANCH  18  25
ENDBRANCH  17  22
ENDBRANCH   1  17
BRANCH   8  26
ATOM     26  C   UNL     1      -0.526  10.249  18.210  0.00  0.00    +0.000 C 
BRANCH  26  27
ATOM     27  C   UNL     1      -1.864  10.885  18.556  0.00  0.00    +0.000 A 
ATOM     28  C   UNL     1      -2.008  11.624  19.748  0.00  0.00    +0.000 A 
ATOM     29  C   UNL     1      -3.219  12.245  19.970  0.00  0.00    +0.000 A 
ATOM     30  C   UNL     1      -4.201  12.296  19.001  0.00  0.00    +0.000 A 
ATOM     31  C   UNL     1      -4.101  11.599  17.829  0.00  0.00    +0.000 A 
ATOM     32  C   UNL     1      -2.977  10.790  17.677  0.00  0.00    +0.000 A 
ATOM     33 CL   UNL     1      -3.113   9.515  16.511  0.00  0.00    +0.000 Cl
ATOM     34  O   UNL     1      -5.331  12.918  19.441  0.00  0.00    +0.000 OA
ATOM     35  C   UNL     1      -5.094  12.765  20.851  0.00  0.00    +0.000 C 
ATOM     36  O   UNL     1      -3.678  12.758  21.151  0.00  0.00    +0.000 OA
ENDBRANCH  26  27
ENDBRANCH   8  26
TORSDOF 7
ENDMDL
MODEL 4
REMARK VINA RESULT:      -7.5      3.320      5.976
REMARK  Name = 
REMARK  8 active torsions:
REMARK  status: ('A' for Active; 'I' for Inactive)
REMARK    1  A    between atoms: C_1  and  O_2
REMARK    2  A    between atoms: O_2  and  C_3
REMARK    3  A    between atoms: C_7  and  C_8
REMARK    4  A    between atoms: C_8  and  N_9
REMARK    5  A    between atoms: C_11  and  C_12
REMARK    6  A    between atoms: N_14  and  C_15
REMARK    7  A    between atoms: N_22  and  C_23
REMARK    8  A    between atoms: C_23  and  C_24
REMARK                            x       y       z     vdW  Elec       q    Type
REMARK                         _______ _______ _______ _____ _____    ______ ____
ROOT
ATOM      1  N   UNL     1       1.210  13.157  21.067  0.00  0.00    +0.000 N 
ATOM      2  N   UNL     1       0.226  13.205  22.003  0.00  0.00    +0.000 NA
ATOM      3  C   UNL     1      -0.479  12.058  21.830  0.00  0.00    +0.000 A 
ATOM      4  C   UNL     1       0.094  11.271  20.788  0.00  0.00    +0.000 A 
ATOM      5  C   UNL     1       1.117  12.044  20.284  0.00  0.00    +0.000 A 
ATOM      6  C   UNL     1       1.962  11.650  19.136  0.00  0.00    +0.000 C 
ATOM      7  C   UNL     1       1.282  10.441  18.438  0.00  0.00    +0.000 C 
ATOM      8  N   UNL     1       0.776   9.377  19.349  0.00  0.00    +0.000 NA
ATOM      9  C   UNL     1      -0.291   9.927  20.246  0.00  0.00    +0.000 C 
ENDROOT
BRANCH   3  10
ATOM     10  C   UNL     1      -1.670  11.745  22.616  0.00  0.00    +0.000 C 
ATOM     11  O   UNL     1      -1.746  10.762  23.369  0.00  0.00    +0.000 OA
ATOM     12  N   UNL     1      -2.697  12.656  22.439  0.00  0.00    +0.000 N 
ATOM     13  H   UNL     1      -2.474  13.420  21.807  0.00  0.00    +0.000 HD
BRANCH  12  14
ATOM     14  C   UNL     1      -3.954  12.594  23.098  0.00  0.00    +0.000 C 
ATOM     15  C   UNL     1      -4.066  12.950  24.557  0.00  0.00    +0.000 C 
ATOM     16  C   UNL     1      -4.674  13.853  23.519  0.00  0.00    +0.000 C 
ENDBRANCH  12  14
ENDBRANCH   3  10
BRANCH   1  17
ATOM     17  C   UNL     1       2.334  14.092  21.134  0.00  0.00    +0.000 C 
BRANCH  17  22
ATOM     18  C   UNL     1       4.423  15.086  18.090  0.00  0.00    +0.000 A 
ATOM     19  C   UNL     1       3.558  15.979  17.451  0.00  0.00    +0.000 A 
ATOM     20  C   UNL     1       2.299  16.247  17.986  0.00  0.00    +0.000 A 
ATOM     21  C   UNL     1       1.890  15.617  19.163  0.00  0.00    +0.000 A 
ATOM     22  C   UNL     1       2.730  14.702  19.812  0.00  0.00    +0.000 A 
ATOM     23  C   UNL     1       4.002  14.444  19.259  0.00  0.00    +0.000 A 
BRANCH  18  25
ATOM     24  C   UNL     1       6.771  15.368  18.182  0.00  0.00    +0.000 C 
ATOM     25  O   UNL     1       5.626  14.908  17.472  0.00  0.00    +0.000 OA
ENDBRANCH  18  25
ENDBRANCH  17  22
ENDBRANCH   1  17
BRANCH   8  26
ATOM     26  C   UNL     1       1.829   8.702  20.141  0.00  0.00    +0.000 C 
BRANCH  26  27
ATOM     27  C   UNL     1       1.972   7.220  19.831  0.00  0.00    +0.000 A 
ATOM     28  C   UNL     1       1.565   6.257  20.777  0.00  0.00    +0.000 A 
ATOM     29  C   UNL     1       1.642   4.931  20.409  0.00  0.00    +0.000 A 
ATOM     30  C   UNL     1       1.939   4.548  19.116  0.00  0.00    +0.000 A 
ATOM     31  C   UNL     1       2.334   5.449  18.166  0.00  0.00    +0.000 A 
ATOM     32  C   UNL     1       2.471   6.773  18.578  0.00  0.00    +0.000 A 
ATOM     33 CL   UNL     1       3.480   7.774  17.586  0.00  0.00    +0.000 Cl
ATOM     34  O   UNL     1       2.006   3.194  18.980  0.00  0.00    +0.000 OA
ATOM     35  C   UNL     1       2.217   2.874  20.365  0.00  0.00    +0.000 C 
ATOM     36  O   UNL     1       1.581   3.842  21.233  0.00  0.00    +0.000 OA
ENDBRANCH  26  27
ENDBRANCH   8  26
TORSDOF 7
ENDMDL
MODEL 5
REMARK VINA RESULT:      -7.4      2.720      3.605
REMARK  Name = 
REMARK  8 active torsions:
REMARK  status: ('A' for Active; 'I' for Inactive)
REMARK    1  A    between atoms: C_1  and  O_2
REMARK    2  A    between atoms: O_2  and  C_3
REMARK    3  A    between atoms: C_7  and  C_8
REMARK    4  A    between atoms: C_8  and  N_9
REMARK    5  A    between atoms: C_11  and  C_12
REMARK    6  A    between atoms: N_14  and  C_15
REMARK    7  A    between atoms: N_22  and  C_23
REMARK    8  A    between atoms: C_23  and  C_24
REMARK                            x       y       z     vdW  Elec       q    Type
REMARK                         _______ _______ _______ _____ _____    ______ ____
ROOT
ATOM      1  N   UNL     1      -0.541  12.664  19.683  0.00  0.00    +0.000 N 
ATOM      2  N   UNL     1      -1.854  12.409  19.441  0.00  0.00    +0.000 NA
ATOM      3  C   UNL     1      -1.856  11.332  18.616  0.00  0.00    +0.000 A 
ATOM      4  C   UNL     1      -0.524  10.892  18.363  0.00  0.00    +0.000 A 
ATOM      5  C   UNL     1       0.278  11.814  19.000  0.00  0.00    +0.000 A 
ATOM      6  C   UNL     1       1.757  11.791  18.959  0.00  0.00    +0.000 C 
ATOM      7  C   UNL     1       2.186  10.804  17.841  0.00  0.00    +0.000 C 
ATOM      8  N   UNL     1       1.452   9.507  17.814  0.00  0.00    +0.000 NA
ATOM      9  C   UNL     1      -0.005   9.743  17.553  0.00  0.00    +0.000 C 
ENDROOT
BRANCH   3  10
ATOM     10  C   UNL     1      -3.089  10.766  18.071  0.00  0.00    +0.000 C 
ATOM     11  O   UNL     1      -3.241   9.553  17.859  0.00  0.00    +0.000 OA
ATOM     12  N   UNL     1      -4.063  11.716  17.822  0.00  0.00    +0.000 N 
ATOM     13  H   UNL     1      -3.796  12.665  18.068  0.00  0.00    +0.000 HD
BRANCH  12  14
ATOM     14  C   UNL     1      -5.357  11.430  17.308  0.00  0.00    +0.000 C 
ATOM     15  C   UNL     1      -6.479  11.058  18.241  0.00  0.00    +0.000 C 
ATOM     16  C   UNL     1      -6.508  12.382  17.529  0.00  0.00    +0.000 C 
ENDBRANCH  12  14
ENDBRANCH   3  10
BRANCH   1  17
ATOM     17  C   UNL     1      -0.157  13.583  20.755  0.00  0.00    +0.000 C 
BRANCH  17  22
ATOM     18  C   UNL     1      -0.247  16.994  19.029  0.00  0.00    +0.000 A 
ATOM     19  C   UNL     1       1.056  17.445  19.257  0.00  0.00    +0.000 A 
ATOM     20  C   UNL     1       1.957  16.664  19.980  0.00  0.00    +0.000 A 
ATOM     21  C   UNL     1       1.558  15.426  20.489  0.00  0.00    +0.000 A 
ATOM     22  C   UNL     1       0.251  14.960  20.292  0.00  0.00    +0.000 A 
ATOM     23  C   UNL     1      -0.647  15.761  19.556  0.00  0.00    +0.000 A 
BRANCH  18  25
ATOM     24  C   UNL     1      -0.497  18.297  17.069  0.00  0.00    +0.000 C 
ATOM     25  O   UNL     1      -1.032  17.845  18.308  0.00  0.00    +0.000 OA
ENDBRANCH  18  25
ENDBRANCH  17  22
ENDBRANCH   1  17
BRANCH   8  26
ATOM     26  C   UNL     1       1.639   8.677  19.025  0.00  0.00    +0.000 C 
BRANCH  26  27
ATOM     27  C   UNL     1       2.513   7.453  18.796  0.00  0.00    +0.000 A 
ATOM     28  C   UNL     1       3.322   7.367  17.644  0.00  0.00    +0.000 A 
ATOM     29  C   UNL     1       4.153   6.272  17.531  0.00  0.00    +0.000 A 
ATOM     30  C   UNL     1       4.327   5.378  18.567  0.00  0.00    +0.000 A 
ATOM     31  C   UNL     1       3.568   5.427  19.704  0.00  0.00    +0.000 A 
ATOM     32  C   UNL     1       2.570   6.398  19.747  0.00  0.00    +0.000 A 
ATOM     33 CL   UNL     1       1.283   6.113  20.873  0.00  0.00    +0.000 Cl
ATOM     34  O   UNL     1       5.156   4.349  18.230  0.00  0.00    +0.000 OA
ATOM     35  C   UNL     1       5.031   4.467  16.802  0.00  0.00    +0.000 C 
ATOM     36  O   UNL     1       4.793   5.838  16.404  0.00  0.00    +0.000 OA
ENDBRANCH  26  27
ENDBRANCH   8  26
TORSDOF 7
ENDMDL
MODEL 6
REMARK VINA RESULT:      -7.4      3.677      5.478
REMARK  Name = 
REMARK  8 active torsions:
REMARK  status: ('A' for Active; 'I' for Inactive)
REMARK    1  A    between atoms: C_1  and  O_2
REMARK    2  A    between atoms: O_2  and  C_3
REMARK    3  A    between atoms: C_7  and  C_8
REMARK    4  A    between atoms: C_8  and  N_9
REMARK    5  A    between atoms: C_11  and  C_12
REMARK    6  A    between atoms: N_14  and  C_15
REMARK    7  A    between atoms: N_22  and  C_23
REMARK    8  A    between atoms: C_23  and  C_24
REMARK                            x       y       z     vdW  Elec       q    Type
REMARK                         _______ _______ _______ _____ _____    ______ ____
ROOT
ATOM      1  N   UNL     1       1.563  12.993  20.276  0.00  0.00    +0.000 N 
ATOM      2  N   UNL     1       0.823  13.245  21.388  0.00  0.00    +0.000 NA
ATOM      3  C   UNL     1       0.076  12.128  21.573  0.00  0.00    +0.000 A 
ATOM      4  C   UNL     1       0.375  11.154  20.576  0.00  0.00    +0.000 A 
ATOM      5  C   UNL     1       1.269  11.777  19.732  0.00  0.00    +0.000 A 
ATOM      6  C   UNL     1       1.817  11.158  18.506  0.00  0.00    +0.000 C 
ATOM      7  C   UNL     1       0.970   9.895  18.192  0.00  0.00    +0.000 C 
ATOM      8  N   UNL     1       0.668   9.020  19.359  0.00  0.00    +0.000 NA
ATOM      9  C   UNL     1      -0.151   9.766  20.368  0.00  0.00    +0.000 C 
ENDROOT
BRANCH   3  10
ATOM     10  C   UNL     1      -0.908  12.014  22.648  0.00  0.00    +0.000 C 
ATOM     11  O   UNL     1      -0.963  11.039  23.414  0.00  0.00    +0.000 OA
ATOM     12  N   UNL     1      -1.760  13.100  22.728  0.00  0.00    +0.000 N 
ATOM     13  H   UNL     1      -1.574  13.829  22.044  0.00  0.00    +0.000 HD
BRANCH  12  14
ATOM     14  C   UNL     1      -2.794  13.248  23.692  0.00  0.00    +0.000 C 
ATOM     15  C   UNL     1      -3.884  14.265  23.486  0.00  0.00    +0.000 C 
ATOM     16  C   UNL     1      -4.204  12.799  23.394  0.00  0.00    +0.000 C 
ENDBRANCH  12  14
ENDBRANCH   3  10
BRANCH   1  17
ATOM     17  C   UNL     1       2.690  13.860  19.931  0.00  0.00    +0.000 C 
BRANCH  17  22
ATOM     18  C   UNL     1       1.387  17.329  18.985  0.00  0.00    +0.000 A 
ATOM     19  C   UNL     1       1.984  18.118  19.971  0.00  0.00    +0.000 A 
ATOM     20  C   UNL     1       2.788  17.536  20.951  0.00  0.00    +0.000 A 
ATOM     21  C   UNL     1       2.995  16.155  20.956  0.00  0.00    +0.000 A 
ATOM     22  C   UNL     1       2.392  15.339  19.989  0.00  0.00    +0.000 A 
ATOM     23  C   UNL     1       1.584  15.944  19.004  0.00  0.00    +0.000 A 
BRANCH  18  25
ATOM     24  C   UNL     1       1.219  18.244  16.808  0.00  0.00    +0.000 C 
ATOM     25  O   UNL     1       0.626  18.013  18.082  0.00  0.00    +0.000 OA
ENDBRANCH  18  25
ENDBRANCH  17  22
ENDBRANCH   1  17
BRANCH   8  26
ATOM     26  C   UNL     1       1.862   8.420  19.995  0.00  0.00    +0.000 C 
BRANCH  26  27
ATOM     27  C   UNL     1       2.006   6.927  19.738  0.00  0.00    +0.000 A 
ATOM     28  C   UNL     1       1.548   5.998  20.695  0.00  0.00    +0.000 A 
ATOM     29  C   UNL     1       1.630   4.660  20.373  0.00  0.00    +0.000 A 
ATOM     30  C   UNL     1       1.983   4.234  19.108  0.00  0.00    +0.000 A 
ATOM     31  C   UNL     1       2.429   5.101  18.149  0.00  0.00    +0.000 A 
ATOM     32  C   UNL     1       2.559   6.436  18.525  0.00  0.00    +0.000 A 
ATOM     33 CL   UNL     1       3.621   7.398  17.550  0.00  0.00    +0.000 Cl
ATOM     34  O   UNL     1       2.045   2.876  19.017  0.00  0.00    +0.000 OA
ATOM     35  C   UNL     1       2.189   2.599  20.421  0.00  0.00    +0.000 C 
ATOM     36  O   UNL     1       1.522   3.599  21.227  0.00  0.00    +0.000 OA
ENDBRANCH  26  27
ENDBRANCH   8  26
TORSDOF 7
ENDMDL
MODEL 7
REMARK VINA RESULT:      -7.4      2.939     10.361
REMARK  Name = 
REMARK  8 active torsions:
REMARK  status: ('A' for Active; 'I' for Inactive)
REMARK    1  A    between atoms: C_1  and  O_2
REMARK    2  A    between atoms: O_2  and  C_3
REMARK    3  A    between atoms: C_7  and  C_8
REMARK    4  A    between atoms: C_8  and  N_9
REMARK    5  A    between atoms: C_11  and  C_12
REMARK    6  A    between atoms: N_14  and  C_15
REMARK    7  A    between atoms: N_22  and  C_23
REMARK    8  A    between atoms: C_23  and  C_24
REMARK                            x       y       z     vdW  Elec       q    Type
REMARK                         _______ _______ _______ _____ _____    ______ ____
ROOT
ATOM      1  N   UNL     1       3.408   7.657  17.718  0.00  0.00    +0.000 N 
ATOM      2  N   UNL     1       3.206   6.590  18.536  0.00  0.00    +0.000 NA
ATOM      3  C   UNL     1       2.286   7.011  19.440  0.00  0.00    +0.000 A 
ATOM      4  C   UNL     1       1.888   8.352  19.163  0.00  0.00    +0.000 A 
ATOM      5  C   UNL     1       2.682   8.744  18.107  0.00  0.00    +0.000 A 
ATOM      6  C   UNL     1       2.658  10.098  17.512  0.00  0.00    +0.000 C 
ATOM      7  C   UNL     1       1.873  11.027  18.478  0.00  0.00    +0.000 C 
ATOM      8  N   UNL     1       0.605  10.463  19.020  0.00  0.00    +0.000 NA
ATOM      9  C   UNL     1       0.890   9.242  19.841  0.00  0.00    +0.000 C 
ENDROOT
BRANCH   3  10
ATOM     10  C   UNL     1       1.829   6.168  20.543  0.00  0.00    +0.000 C 
ATOM     11  O   UNL     1       1.008   6.548  21.392  0.00  0.00    +0.000 OA
ATOM     12  N   UNL     1       2.397   4.906  20.538  0.00  0.00    +0.000 N 
ATOM     13  H   UNL     1       3.035   4.737  19.764  0.00  0.00    +0.000 HD
BRANCH  12  14
ATOM     14  C   UNL     1       2.112   3.888  21.487  0.00  0.00    +0.000 C 
ATOM     15  C   UNL     1       1.283   2.694  21.094  0.00  0.00    +0.000 C 
ATOM     16  C   UNL     1       2.750   2.524  21.379  0.00  0.00    +0.000 C 
ENDBRANCH  12  14
ENDBRANCH   3  10
BRANCH   1  17
ATOM     17  C   UNL     1       4.128   7.487  16.455  0.00  0.00    +0.000 C 
BRANCH  17  22
ATOM     18  C   UNL     1       7.062   5.258  17.477  0.00  0.00    +0.000 A 
ATOM     19  C   UNL     1       7.158   4.415  16.368  0.00  0.00    +0.000 A 
ATOM     20  C   UNL     1       6.271   4.549  15.300  0.00  0.00    +0.000 A 
ATOM     21  C   UNL     1       5.272   5.524  15.339  0.00  0.00    +0.000 A 
ATOM     22  C   UNL     1       5.142   6.369  16.449  0.00  0.00    +0.000 A 
ATOM     23  C   UNL     1       6.049   6.223  17.519  0.00  0.00    +0.000 A 
BRANCH  18  25
ATOM     24  C   UNL     1       7.656   5.509  19.755  0.00  0.00    +0.000 C 
ATOM     25  O   UNL     1       7.986   5.031  18.455  0.00  0.00    +0.000 OA
ENDBRANCH  18  25
ENDBRANCH  17  22
ENDBRANCH   1  17
BRANCH   8  26
ATOM     26  C   UNL     1      -0.421  10.176  17.993  0.00  0.00    +0.000 C 
BRANCH  26  27
ATOM     27  C   UNL     1      -1.779  10.790  18.298  0.00  0.00    +0.000 A 
ATOM     28  C   UNL     1      -1.970  11.531  19.483  0.00  0.00    +0.000 A 
ATOM     29  C   UNL     1      -3.197  12.133  19.667  0.00  0.00    +0.000 A 
ATOM     30  C   UNL     1      -4.151  12.164  18.670  0.00  0.00    +0.000 A 
ATOM     31  C   UNL     1      -4.005  11.465  17.504  0.00  0.00    +0.000 A 
ATOM     32  C   UNL     1      -2.864  10.674  17.388  0.00  0.00    +0.000 A 
ATOM     33 CL   UNL     1      -2.945   9.393  16.223  0.00  0.00    +0.000 Cl
ATOM     34  O   UNL     1      -5.303  12.769  19.075  0.00  0.00    +0.000 OA
ATOM     35  C   UNL     1      -5.105  12.625  20.491  0.00  0.00    +0.000 C 
ATOM     36  O   UNL     1      -3.698  12.642  20.832  0.00  0.00    +0.000 OA
ENDBRANCH  26  27
ENDBRANCH   8  26
TORSDOF 7
ENDMDL
MODEL 8
REMARK VINA RESULT:      -7.3      3.000      4.710
REMARK  Name = 
REMARK  8 active torsions:
REMARK  status: ('A' for Active; 'I' for Inactive)
REMARK    1  A    between atoms: C_1  and  O_2
REMARK    2  A    between atoms: O_2  and  C_3
REMARK    3  A    between atoms: C_7  and  C_8
REMARK    4  A    between atoms: C_8  and  N_9
REMARK    5  A    between atoms: C_11  and  C_12
REMARK    6  A    between atoms: N_14  and  C_15
REMARK    7  A    between atoms: N_22  and  C_23
REMARK    8  A    between atoms: C_23  and  C_24
REMARK                            x       y       z     vdW  Elec       q    Type
REMARK                         _______ _______ _______ _____ _____    ______ ____
ROOT
ATOM      1  N   UNL     1       1.596  12.613  20.062  0.00  0.00    +0.000 N 
ATOM      2  N   UNL     1       0.858  12.815  21.185  0.00  0.00    +0.000 NA
ATOM      3  C   UNL     1       0.198  11.647  21.385  0.00  0.00    +0.000 A 
ATOM      4  C   UNL     1       0.552  10.693  20.386  0.00  0.00    +0.000 A 
ATOM      5  C   UNL     1       1.384  11.377  19.527  0.00  0.00    +0.000 A 
ATOM      6  C   UNL     1       1.957  10.794  18.293  0.00  0.00    +0.000 C 
ATOM      7  C   UNL     1       1.200   9.472  17.997  0.00  0.00    +0.000 C 
ATOM      8  N   UNL     1       0.982   8.581  19.172  0.00  0.00    +0.000 NA
ATOM      9  C   UNL     1       0.126   9.270  20.191  0.00  0.00    +0.000 C 
ENDROOT
BRANCH   3  10
ATOM     10  C   UNL     1      -0.757  11.465  22.477  0.00  0.00    +0.000 C 
ATOM     11  O   UNL     1      -0.523  10.761  23.471  0.00  0.00    +0.000 OA
ATOM     12  N   UNL     1      -1.939  12.159  22.291  0.00  0.00    +0.000 N 
ATOM     13  H   UNL     1      -1.972  12.709  21.437  0.00  0.00    +0.000 HD
BRANCH  12  14
ATOM     14  C   UNL     1      -3.024  12.167  23.208  0.00  0.00    +0.000 C 
ATOM     15  C   UNL     1      -3.340  13.408  24.000  0.00  0.00    +0.000 C 
ATOM     16  C   UNL     1      -4.280  12.953  22.919  0.00  0.00    +0.000 C 
ENDBRANCH  12  14
ENDBRANCH   3  10
BRANCH   1  17
ATOM     17  C   UNL     1       2.652  13.560  19.696  0.00  0.00    +0.000 C 
BRANCH  17  22
ATOM     18  C   UNL     1       0.630  16.613  18.596  0.00  0.00    +0.000 A 
ATOM     19  C   UNL     1       1.427  17.652  19.083  0.00  0.00    +0.000 A 
ATOM     20  C   UNL     1       2.602  17.374  19.780  0.00  0.00    +0.000 A 
ATOM     21  C   UNL     1       2.986  16.050  20.004  0.00  0.00    +0.000 A 
ATOM     22  C   UNL     1       2.194  14.990  19.543  0.00  0.00    +0.000 A 
ATOM     23  C   UNL     1       1.010  15.289  18.837  0.00  0.00    +0.000 A 
BRANCH  18  25
ATOM     24  C   UNL     1      -1.529  17.575  18.725  0.00  0.00    +0.000 C 
ATOM     25  O   UNL     1      -0.491  17.012  17.929  0.00  0.00    +0.000 OA
ENDBRANCH  18  25
ENDBRANCH  17  22
ENDBRANCH   1  17
BRANCH   8  26
ATOM     26  C   UNL     1       2.227   8.073  19.790  0.00  0.00    +0.000 C 
BRANCH  26  27
ATOM     27  C   UNL     1       2.808   6.857  19.084  0.00  0.00    +0.000 A 
ATOM     28  C   UNL     1       3.652   7.025  17.967  0.00  0.00    +0.000 A 
ATOM     29  C   UNL     1       4.214   5.891  17.418  0.00  0.00    +0.000 A 
ATOM     30  C   UNL     1       4.104   4.656  18.024  0.00  0.00    +0.000 A 
ATOM     31  C   UNL     1       3.301   4.450  19.111  0.00  0.00    +0.000 A 
ATOM     32  C   UNL     1       2.553   5.540  19.551  0.00  0.00    +0.000 A 
ATOM     33 CL   UNL     1       1.162   5.165  20.514  0.00  0.00    +0.000 Cl
ATOM     34  O   UNL     1       4.694   3.668  17.294  0.00  0.00    +0.000 OA
ATOM     35  C   UNL     1       4.699   4.346  16.026  0.00  0.00    +0.000 C 
ATOM     36  O   UNL     1       4.812   5.779  16.195  0.00  0.00    +0.000 OA
ENDBRANCH  26  27
ENDBRANCH   8  26
TORSDOF 7
ENDMDL
MODEL 9
REMARK VINA RESULT:      -7.3      1.156      1.369
REMARK  Name = 
REMARK  8 active torsions:
REMARK  status: ('A' for Active; 'I' for Inactive)
REMARK    1  A    between atoms: C_1  and  O_2
REMARK    2  A    between atoms: O_2  and  C_3
REMARK    3  A    between atoms: C_7  and  C_8
REMARK    4  A    between atoms: C_8  and  N_9
REMARK    5  A    between atoms: C_11  and  C_12
REMARK    6  A    between atoms: N_14  and  C_15
REMARK    7  A    between atoms: N_22  and  C_23
REMARK    8  A    between atoms: C_23  and  C_24
REMARK                            x       y       z     vdW  Elec       q    Type
REMARK                         _______ _______ _______ _____ _____    ______ ____
ROOT
ATOM      1  N   UNL     1      -0.764  12.474  20.333  0.00  0.00    +0.000 N 
ATOM      2  N   UNL     1      -2.050  12.276  19.943  0.00  0.00    +0.000 NA
ATOM      3  C   UNL     1      -1.975  11.384  18.924  0.00  0.00    +0.000 A 
ATOM      4  C   UNL     1      -0.621  10.999  18.694  0.00  0.00    +0.000 A 
ATOM      5  C   UNL     1       0.117  11.774  19.562  0.00  0.00    +0.000 A 
ATOM      6  C   UNL     1       1.595  11.755  19.634  0.00  0.00    +0.000 C 
ATOM      7  C   UNL     1       2.122  11.008  18.380  0.00  0.00    +0.000 C 
ATOM      8  N   UNL     1       1.409   9.745  18.040  0.00  0.00    +0.000 NA
ATOM      9  C   UNL     1      -0.026  10.031  17.716  0.00  0.00    +0.000 C 
ENDROOT
BRANCH   3  10
ATOM     10  C   UNL     1      -3.154  10.941  18.182  0.00  0.00    +0.000 C 
ATOM     11  O   UNL     1      -3.357   9.755  17.879  0.00  0.00    +0.000 OA
ATOM     12  N   UNL     1      -4.016  11.973  17.859  0.00  0.00    +0.000 N 
ATOM     13  H   UNL     1      -3.722  12.886  18.196  0.00  0.00    +0.000 HD
BRANCH  12  14
ATOM     14  C   UNL     1      -5.241  11.813  17.157  0.00  0.00    +0.000 C 
ATOM     15  C   UNL     1      -6.527  11.605  17.912  0.00  0.00    +0.000 C 
ATOM     16  C   UNL     1      -6.294  12.894  17.174  0.00  0.00    +0.000 C 
ENDBRANCH  12  14
ENDBRANCH   3  10
BRANCH   1  17
ATOM     17  C   UNL     1      -0.475  13.161  21.593  0.00  0.00    +0.000 C 
BRANCH  17  22
ATOM     18  C   UNL     1      -3.276  15.227  23.177  0.00  0.00    +0.000 A 
ATOM     19  C   UNL     1      -3.241  16.378  22.386  0.00  0.00    +0.000 A 
ATOM     20  C   UNL     1      -2.308  16.500  21.357  0.00  0.00    +0.000 A 
ATOM     21  C   UNL     1      -1.394  15.472  21.116  0.00  0.00    +0.000 A 
ATOM     22  C   UNL     1      -1.395  14.316  21.909  0.00  0.00    +0.000 A 
ATOM     23  C   UNL     1      -2.347  14.207  22.944  0.00  0.00    +0.000 A 
BRANCH  18  25
ATOM     24  C   UNL     1      -4.610  16.499  24.663  0.00  0.00    +0.000 C 
ATOM     25  O   UNL     1      -4.234  15.225  24.148  0.00  0.00    +0.000 OA
ENDBRANCH  18  25
ENDBRANCH  17  22
ENDBRANCH   1  17
BRANCH   8  26
ATOM     26  C   UNL     1       1.512   8.690  19.073  0.00  0.00    +0.000 C 
BRANCH  26  27
ATOM     27  C   UNL     1       2.500   7.587  18.724  0.00  0.00    +0.000 A 
ATOM     28  C   UNL     1       3.302   7.697  17.569  0.00  0.00    +0.000 A 
ATOM     29  C   UNL     1       4.236   6.707  17.347  0.00  0.00    +0.000 A 
ATOM     30  C   UNL     1       4.508   5.736  18.289  0.00  0.00    +0.000 A 
ATOM     31  C   UNL     1       3.759   5.596  19.425  0.00  0.00    +0.000 A 
ATOM     32  C   UNL     1       2.670   6.455  19.564  0.00  0.00    +0.000 A 
ATOM     33 CL   UNL     1       1.430   5.933  20.657  0.00  0.00    +0.000 Cl
ATOM     34  O   UNL     1       5.431   4.834  17.851  0.00  0.00    +0.000 OA
ATOM     35  C   UNL     1       5.281   5.079  16.442  0.00  0.00    +0.000 C 
ATOM     36  O   UNL     1       4.905   6.452  16.183  0.00  0.00    +0.000 OA
ENDBRANCH  26  27
ENDBRANCH   8  26
TORSDOF 7
ENDMDL
