MODEL 1
REMARK VINA RESULT:      -7.4      0.000      0.000
REMARK  Name = 
REMARK  8 active torsions:
REMARK  status: ('A' for Active; 'I' for Inactive)
REMARK    1  A    between atoms: C_1  and  O_2
REMARK    2  A    between atoms: O_2  and  C_3
REMARK    3  A    between atoms: C_5  and  C_6
REMARK    4  A    between atoms: N_7  and  S_8
REMARK    5  A    between atoms: S_8  and  C_11
REMARK    6  A    between atoms: C_11  and  C_12
REMARK    7  A    between atoms: C_12  and  C_13
REMARK    8  A    between atoms: C_21  and  O_22
REMARK                            x       y       z     vdW  Elec       q    Type
REMARK                         _______ _______ _______ _____ _____    ______ ____
ROOT
ATOM      1  C   UNL     1       3.726   3.769  16.933  0.00  0.00    +0.000 C 
ATOM      2  N   UNL     1       3.612   3.885  18.215  0.00  0.00    +0.000 NA
ENDROOT
BRANCH   1   5
ATOM      3  C   UNL     1       6.881   5.666  16.035  0.00  0.00    +0.000 A 
ATOM      4  C   UNL     1       5.765   5.210  16.751  0.00  0.00    +0.000 A 
ATOM      5  C   UNL     1       4.909   4.254  16.201  0.00  0.00    +0.000 A 
ATOM      6  C   UNL     1       5.147   3.748  14.922  0.00  0.00    +0.000 A 
ATOM      7  C   UNL     1       6.252   4.197  14.199  0.00  0.00    +0.000 A 
ATOM      8  C   UNL     1       7.116   5.150  14.753  0.00  0.00    +0.000 A 
BRANCH   3  10
ATOM      9  C   UNL     1       7.512   6.613  18.141  0.00  0.00    +0.000 C 
ATOM     10  O   UNL     1       7.610   6.595  16.724  0.00  0.00    +0.000 OA
ENDBRANCH   3  10
BRANCH   8  11
ATOM     11  O   UNL     1       8.184   5.558  14.003  0.00  0.00    +0.000 OA
ATOM     12  H   UNL     1       7.916   5.646  13.074  0.00  0.00    +0.000 HD
ENDBRANCH   8  11
ENDBRANCH   1   5
BRANCH   2  13
ATOM     13  S   UNL     1       2.242   3.363  18.927  0.00  0.00    +0.000 S 
ATOM     14  O   UNL     1       1.163   3.299  17.955  0.00  0.00    +0.000 OA
ATOM     15  O   UNL     1       2.555   2.201  19.733  0.00  0.00    +0.000 OA
BRANCH  13  16
ATOM     16  C   UNL     1       1.887   4.708  20.044  0.00  0.00    +0.000 C 
BRANCH  16  17
ATOM     17  C   UNL     1       2.929   5.812  19.942  0.00  0.00    +0.000 C 
BRANCH  17  18
ATOM     18  C   UNL     1       2.358   7.125  19.478  0.00  0.00    +0.000 A 
ATOM     19  C   UNL     1       1.620   7.928  20.359  0.00  0.00    +0.000 A 
ATOM     20  C   UNL     1       1.115   9.158  19.935  0.00  0.00    +0.000 A 
ATOM     21  C   UNL     1       1.340   9.591  18.629  0.00  0.00    +0.000 A 
ATOM     22  C   UNL     1       2.071   8.798  17.748  0.00  0.00    +0.000 A 
ATOM     23  C   UNL     1       2.577   7.568  18.168  0.00  0.00    +0.000 A 
ENDBRANCH  17  18
ENDBRANCH  16  17
ENDBRANCH  13  16
ENDBRANCH   2  13
TORSDOF 7
ENDMDL
MODEL 2
REMARK VINA RESULT:      -7.4      2.767      5.640
REMARK  Name = 
REMARK  8 active torsions:
REMARK  status: ('A' for Active; 'I' for Inactive)
REMARK    1  A    between atoms: C_1  and  O_2
REMARK    2  A    between atoms: O_2  and  C_3
REMARK    3  A    between atoms: C_5  and  C_6
REMARK    4  A    between atoms: N_7  and  S_8
REMARK    5  A    between atoms: S_8  and  C_11
REMARK    6  A    between atoms: C_11  and  C_12
REMARK    7  A    between atoms: C_12  and  C_13
REMARK    8  A    between atoms: C_21  and  O_22
REMARK                            x       y       z     vdW  Elec       q    Type
REMARK                         _______ _______ _______ _____ _____    ______ ____
ROOT
ATOM      1  C   UNL     1       2.289   5.676  20.352  0.00  0.00    +0.000 C 
ATOM      2  N   UNL     1       1.942   4.547  19.829  0.00  0.00    +0.000 NA
ENDROOT
BRANCH   1   5
ATOM      3  C   UNL     1       1.382   9.250  19.479  0.00  0.00    +0.000 A 
ATOM      4  C   UNL     1       1.501   8.047  20.189  0.00  0.00    +0.000 A 
ATOM      5  C   UNL     1       2.161   6.953  19.627  0.00  0.00    +0.000 A 
ATOM      6  C   UNL     1       2.702   7.039  18.343  0.00  0.00    +0.000 A 
ATOM      7  C   UNL     1       2.586   8.230  17.626  0.00  0.00    +0.000 A 
ATOM      8  C   UNL     1       1.931   9.332  18.192  0.00  0.00    +0.000 A 
BRANCH   3  10
ATOM      9  C   UNL     1       0.653  10.102  21.595  0.00  0.00    +0.000 C 
ATOM     10  O   UNL     1       0.712  10.215  20.180  0.00  0.00    +0.000 OA
ENDBRANCH   3  10
BRANCH   8  11
ATOM     11  O   UNL     1       1.843  10.475  17.449  0.00  0.00    +0.000 OA
ATOM     12  H   UNL     1       0.911  10.723  17.340  0.00  0.00    +0.000 HD
ENDBRANCH   8  11
ENDBRANCH   1   5
BRANCH   2  13
ATOM     13  S   UNL     1       2.171   3.184  20.694  0.00  0.00    +0.000 S 
ATOM     14  O   UNL     1       2.260   3.495  22.111  0.00  0.00    +0.000 OA
ATOM     15  O   UNL     1       1.231   2.183  20.234  0.00  0.00    +0.000 OA
BRANCH  13  16
ATOM     16  C   UNL     1       3.794   2.684  20.146  0.00  0.00    +0.000 C 
BRANCH  16  17
ATOM     17  C   UNL     1       3.888   2.652  18.628  0.00  0.00    +0.000 C 
BRANCH  17  18
ATOM     18  C   UNL     1       4.626   3.832  18.054  0.00  0.00    +0.000 A 
ATOM     19  C   UNL     1       5.506   4.575  18.853  0.00  0.00    +0.000 A 
ATOM     20  C   UNL     1       6.210   5.651  18.313  0.00  0.00    +0.000 A 
ATOM     21  C   UNL     1       6.037   5.995  16.973  0.00  0.00    +0.000 A 
ATOM     22  C   UNL     1       5.163   5.263  16.173  0.00  0.00    +0.000 A 
ATOM     23  C   UNL     1       4.457   4.186  16.710  0.00  0.00    +0.000 A 
ENDBRANCH  17  18
ENDBRANCH  16  17
ENDBRANCH  13  16
ENDBRANCH   2  13
TORSDOF 7
ENDMDL
MODEL 3
REMARK VINA RESULT:      -7.4      0.940      1.433
REMARK  Name = 
REMARK  8 active torsions:
REMARK  status: ('A' for Active; 'I' for Inactive)
REMARK    1  A    between atoms: C_1  and  O_2
REMARK    2  A    between atoms: O_2  and  C_3
REMARK    3  A    between atoms: C_5  and  C_6
REMARK    4  A    between atoms: N_7  and  S_8
REMARK    5  A    between atoms: S_8  and  C_11
REMARK    6  A    between atoms: C_11  and  C_12
REMARK    7  A    between atoms: C_12  and  C_13
REMARK    8  A    between atoms: C_21  and  O_22
REMARK                            x       y       z     vdW  Elec       q    Type
REMARK                         _______ _______ _______ _____ _____    ______ ____
ROOT
ATOM      1  C   UNL     1       3.659   3.752  17.979  0.00  0.00    +0.000 C 
ATOM      2  N   UNL     1       3.827   3.279  19.170  0.00  0.00    +0.000 NA
ENDROOT
BRANCH   1   5
ATOM      3  C   UNL     1       6.865   5.438  16.867  0.00  0.00    +0.000 A 
ATOM      4  C   UNL     1       5.806   5.004  17.677  0.00  0.00    +0.000 A 
ATOM      5  C   UNL     1       4.786   4.211  17.147  0.00  0.00    +0.000 A 
ATOM      6  C   UNL     1       4.802   3.849  15.799  0.00  0.00    +0.000 A 
ATOM      7  C   UNL     1       5.849   4.278  14.984  0.00  0.00    +0.000 A 
ATOM      8  C   UNL     1       6.877   5.067  15.515  0.00  0.00    +0.000 A 
BRANCH   3  10
ATOM      9  C   UNL     1       7.596   7.608  17.564  0.00  0.00    +0.000 C 
ATOM     10  O   UNL     1       7.775   6.199  17.547  0.00  0.00    +0.000 OA
ENDBRANCH   3  10
BRANCH   8  11
ATOM     11  O   UNL     1       7.880   5.462  14.675  0.00  0.00    +0.000 OA
ATOM     12  H   UNL     1       8.740   5.237  15.064  0.00  0.00    +0.000 HD
ENDBRANCH   8  11
ENDBRANCH   1   5
BRANCH   2  13
ATOM     13  S   UNL     1       2.512   2.847  20.030  0.00  0.00    +0.000 S 
ATOM     14  O   UNL     1       1.777   1.802  19.336  0.00  0.00    +0.000 OA
ATOM     15  O   UNL     1       2.907   2.654  21.410  0.00  0.00    +0.000 OA
BRANCH  13  16
ATOM     16  C   UNL     1       1.534   4.338  19.957  0.00  0.00    +0.000 C 
BRANCH  16  17
ATOM     17  C   UNL     1       2.222   5.494  20.667  0.00  0.00    +0.000 C 
BRANCH  17  18
ATOM     18  C   UNL     1       2.021   6.817  19.977  0.00  0.00    +0.000 A 
ATOM     19  C   UNL     1       2.442   6.998  18.653  0.00  0.00    +0.000 A 
ATOM     20  C   UNL     1       2.230   8.215  18.006  0.00  0.00    +0.000 A 
ATOM     21  C   UNL     1       1.601   9.262  18.679  0.00  0.00    +0.000 A 
ATOM     22  C   UNL     1       1.182   9.091  19.996  0.00  0.00    +0.000 A 
ATOM     23  C   UNL     1       1.392   7.875  20.646  0.00  0.00    +0.000 A 
ENDBRANCH  17  18
ENDBRANCH  16  17
ENDBRANCH  13  16
ENDBRANCH   2  13
TORSDOF 7
ENDMDL
MODEL 4
REMARK VINA RESULT:      -7.4      2.785      5.745
REMARK  Name = 
REMARK  8 active torsions:
REMARK  status: ('A' for Active; 'I' for Inactive)
REMARK    1  A    between atoms: C_1  and  O_2
REMARK    2  A    between atoms: O_2  and  C_3
REMARK    3  A    between atoms: C_5  and  C_6
REMARK    4  A    between atoms: N_7  and  S_8
REMARK    5  A    between atoms: S_8  and  C_11
REMARK    6  A    between atoms: C_11  and  C_12
REMARK    7  A    between atoms: C_12  and  C_13
REMARK    8  A    between atoms: C_21  and  O_22
REMARK                            x       y       z     vdW  Elec       q    Type
REMARK                         _______ _______ _______ _____ _____    ______ ____
ROOT
ATOM      1  C   UNL     1       2.208   5.648  20.432  0.00  0.00    +0.000 C 
ATOM      2  N   UNL     1       1.976   4.507  19.872  0.00  0.00    +0.000 NA
ENDROOT
BRANCH   1   5
ATOM      3  C   UNL     1       1.447   9.254  19.554  0.00  0.00    +0.000 A 
ATOM      4  C   UNL     1       1.536   8.054  20.274  0.00  0.00    +0.000 A 
ATOM      5  C   UNL     1       2.113   6.921  19.697  0.00  0.00    +0.000 A 
ATOM      6  C   UNL     1       2.597   6.966  18.388  0.00  0.00    +0.000 A 
ATOM      7  C   UNL     1       2.510   8.153  17.662  0.00  0.00    +0.000 A 
ATOM      8  C   UNL     1       1.940   9.293  18.242  0.00  0.00    +0.000 A 
BRANCH   3  10
ATOM      9  C   UNL     1      -0.558  10.295  20.347  0.00  0.00    +0.000 C 
ATOM     10  O   UNL     1       0.860  10.260  20.271  0.00  0.00    +0.000 OA
ENDBRANCH   3  10
BRANCH   8  11
ATOM     11  O   UNL     1       1.877  10.431  17.489  0.00  0.00    +0.000 OA
ATOM     12  H   UNL     1       2.759  10.834  17.432  0.00  0.00    +0.000 HD
ENDBRANCH   8  11
ENDBRANCH   1   5
BRANCH   2  13
ATOM     13  S   UNL     1       2.158   3.151  20.758  0.00  0.00    +0.000 S 
ATOM     14  O   UNL     1       2.262   3.482  22.169  0.00  0.00    +0.000 OA
ATOM     15  O   UNL     1       1.180   2.178  20.317  0.00  0.00    +0.000 OA
BRANCH  13  16
ATOM     16  C   UNL     1       3.759   2.584  20.213  0.00  0.00    +0.000 C 
BRANCH  16  17
ATOM     17  C   UNL     1       3.865   2.575  18.696  0.00  0.00    +0.000 C 
BRANCH  17  18
ATOM     18  C   UNL     1       4.608   3.764  18.146  0.00  0.00    +0.000 A 
ATOM     19  C   UNL     1       4.442   4.147  16.808  0.00  0.00    +0.000 A 
ATOM     20  C   UNL     1       5.110   5.265  16.308  0.00  0.00    +0.000 A 
ATOM     21  C   UNL     1       5.950   6.005  17.139  0.00  0.00    +0.000 A 
ATOM     22  C   UNL     1       6.121   5.630  18.469  0.00  0.00    +0.000 A 
ATOM     23  C   UNL     1       5.455   4.512  18.973  0.00  0.00    +0.000 A 
ENDBRANCH  17  18
ENDBRANCH  16  17
ENDBRANCH  13  16
ENDBRANCH   2  13
TORSDOF 7
ENDMDL
MODEL 5
REMARK VINA RESULT:      -7.3      1.125      1.287
REMARK  Name = 
REMARK  8 active torsions:
REMARK  status: ('A' for Active; 'I' for Inactive)
REMARK    1  A    between atoms: C_1  and  O_2
REMARK    2  A    between atoms: O_2  and  C_3
REMARK    3  A    between atoms: C_5  and  C_6
REMARK    4  A    between atoms: N_7  and  S_8
REMARK    5  A    between atoms: S_8  and  C_11
REMARK    6  A    between atoms: C_11  and  C_12
REMARK    7  A    between atoms: C_12  and  C_13
REMARK    8  A    between atoms: C_21  and  O_22
REMARK                            x       y       z     vdW  Elec       q    Type
REMARK                         _______ _______ _______ _____ _____    ______ ____
ROOT
ATOM      1  C   UNL     1       3.482   3.875  18.455  0.00  0.00    +0.000 C 
ATOM      2  N   UNL     1       3.613   3.623  19.716  0.00  0.00    +0.000 NA
ENDROOT
BRANCH   1   5
ATOM      3  C   UNL     1       6.707   5.477  17.274  0.00  0.00    +0.000 A 
ATOM      4  C   UNL     1       5.635   5.101  18.097  0.00  0.00    +0.000 A 
ATOM      5  C   UNL     1       4.622   4.274  17.610  0.00  0.00    +0.000 A 
ATOM      6  C   UNL     1       4.657   3.818  16.291  0.00  0.00    +0.000 A 
ATOM      7  C   UNL     1       5.717   4.188  15.463  0.00  0.00    +0.000 A 
ATOM      8  C   UNL     1       6.739   5.012  15.952  0.00  0.00    +0.000 A 
BRANCH   3  10
ATOM      9  C   UNL     1       7.579   7.677  17.636  0.00  0.00    +0.000 C 
ATOM     10  O   UNL     1       7.608   6.284  17.913  0.00  0.00    +0.000 OA
ENDBRANCH   3  10
BRANCH   8  11
ATOM     11  O   UNL     1       7.754   5.346  15.101  0.00  0.00    +0.000 OA
ATOM     12  H   UNL     1       8.303   4.564  14.924  0.00  0.00    +0.000 HD
ENDBRANCH   8  11
ENDBRANCH   1   5
BRANCH   2  13
ATOM     13  S   UNL     1       2.282   3.240  20.575  0.00  0.00    +0.000 S 
ATOM     14  O   UNL     1       1.484   2.259  19.859  0.00  0.00    +0.000 OA
ATOM     15  O   UNL     1       2.676   2.986  21.945  0.00  0.00    +0.000 OA
BRANCH  13  16
ATOM     16  C   UNL     1       1.389   4.785  20.554  0.00  0.00    +0.000 C 
BRANCH  16  17
ATOM     17  C   UNL     1       2.301   5.964  20.860  0.00  0.00    +0.000 C 
BRANCH  17  18
ATOM     18  C   UNL     1       2.016   7.171  20.007  0.00  0.00    +0.000 A 
ATOM     19  C   UNL     1       1.286   8.250  20.526  0.00  0.00    +0.000 A 
ATOM     20  C   UNL     1       1.046   9.379  19.743  0.00  0.00    +0.000 A 
ATOM     21  C   UNL     1       1.530   9.437  18.437  0.00  0.00    +0.000 A 
ATOM     22  C   UNL     1       2.254   8.368  17.914  0.00  0.00    +0.000 A 
ATOM     23  C   UNL     1       2.496   7.238  18.694  0.00  0.00    +0.000 A 
ENDBRANCH  17  18
ENDBRANCH  16  17
ENDBRANCH  13  16
ENDBRANCH   2  13
TORSDOF 7
ENDMDL
MODEL 6
REMARK VINA RESULT:      -7.3      2.848      6.212
REMARK  Name = 
REMARK  8 active torsions:
REMARK  status: ('A' for Active; 'I' for Inactive)
REMARK    1  A    between atoms: C_1  and  O_2
REMARK    2  A    between atoms: O_2  and  C_3
REMARK    3  A    between atoms: C_5  and  C_6
REMARK    4  A    between atoms: N_7  and  S_8
REMARK    5  A    between atoms: S_8  and  C_11
REMARK    6  A    between atoms: C_11  and  C_12
REMARK    7  A    between atoms: C_12  and  C_13
REMARK    8  A    between atoms: C_21  and  O_22
REMARK                            x       y       z     vdW  Elec       q    Type
REMARK                         _______ _______ _______ _____ _____    ______ ____
ROOT
ATOM      1  C   UNL     1       3.381   6.180  18.043  0.00  0.00    +0.000 C 
ATOM      2  N   UNL     1       4.672   6.194  17.988  0.00  0.00    +0.000 NA
ENDROOT
BRANCH   1   5
ATOM      3  C   UNL     1       1.317   8.493  20.222  0.00  0.00    +0.000 A 
ATOM      4  C   UNL     1       2.065   7.385  19.799  0.00  0.00    +0.000 A 
ATOM      5  C   UNL     1       2.600   7.339  18.510  0.00  0.00    +0.000 A 
ATOM      6  C   UNL     1       2.386   8.393  17.620  0.00  0.00    +0.000 A 
ATOM      7  C   UNL     1       1.640   9.498  18.030  0.00  0.00    +0.000 A 
ATOM      8  C   UNL     1       1.110   9.549  19.325  0.00  0.00    +0.000 A 
BRANCH   3  10
ATOM      9  C   UNL     1       1.417   9.243  22.494  0.00  0.00    +0.000 C 
ATOM     10  O   UNL     1       0.874   8.373  21.511  0.00  0.00    +0.000 OA
ENDBRANCH   3  10
BRANCH   8  11
ATOM     11  O   UNL     1       0.386  10.654  19.677  0.00  0.00    +0.000 OA
ATOM     12  H   UNL     1       0.346  11.270  18.927  0.00  0.00    +0.000 HD
ENDBRANCH   8  11
ENDBRANCH   1   5
BRANCH   2  13
ATOM     13  S   UNL     1       5.446   4.843  17.506  0.00  0.00    +0.000 S 
ATOM     14  O   UNL     1       6.253   5.118  16.329  0.00  0.00    +0.000 OA
ATOM     15  O   UNL     1       6.053   4.222  18.665  0.00  0.00    +0.000 OA
BRANCH  13  16
ATOM     16  C   UNL     1       4.081   3.812  17.001  0.00  0.00    +0.000 C 
BRANCH  16  17
ATOM     17  C   UNL     1       3.971   2.564  17.863  0.00  0.00    +0.000 C 
BRANCH  17  18
ATOM     18  C   UNL     1       2.996   2.712  19.000  0.00  0.00    +0.000 A 
ATOM     19  C   UNL     1       3.436   2.625  20.328  0.00  0.00    +0.000 A 
ATOM     20  C   UNL     1       2.536   2.790  21.381  0.00  0.00    +0.000 A 
ATOM     21  C   UNL     1       1.190   3.037  21.115  0.00  0.00    +0.000 A 
ATOM     22  C   UNL     1       0.744   3.122  19.798  0.00  0.00    +0.000 A 
ATOM     23  C   UNL     1       1.642   2.958  18.743  0.00  0.00    +0.000 A 
ENDBRANCH  17  18
ENDBRANCH  16  17
ENDBRANCH  13  16
ENDBRANCH   2  13
TORSDOF 7
ENDMDL
MODEL 7
REMARK VINA RESULT:      -7.2      2.812      6.506
REMARK  Name = 
REMARK  8 active torsions:
REMARK  status: ('A' for Active; 'I' for Inactive)
REMARK    1  A    between atoms: C_1  and  O_2
REMARK    2  A    between atoms: O_2  and  C_3
REMARK    3  A    between atoms: C_5  and  C_6
REMARK    4  A    between atoms: N_7  and  S_8
REMARK    5  A    between atoms: S_8  and  C_11
REMARK    6  A    between atoms: C_11  and  C_12
REMARK    7  A    between atoms: C_12  and  C_13
REMARK    8  A    between atoms: C_21  and  O_22
REMARK                            x       y       z     vdW  Elec       q    Type
REMARK                         _______ _______ _______ _____ _____    ______ ____
ROOT
ATOM      1  C   UNL     1       3.666   7.265  17.353  0.00  0.00    +0.000 C 
ATOM      2  N   UNL     1       4.877   6.947  17.675  0.00  0.00    +0.000 NA
ENDROOT
BRANCH   1   5
ATOM      3  C   UNL     1       1.064   9.461  19.015  0.00  0.00    +0.000 A 
ATOM      4  C   UNL     1       1.966   8.958  18.067  0.00  0.00    +0.000 A 
ATOM      5  C   UNL     1       2.706   7.804  18.332  0.00  0.00    +0.000 A 
ATOM      6  C   UNL     1       2.565   7.141  19.553  0.00  0.00    +0.000 A 
ATOM      7  C   UNL     1       1.673   7.635  20.504  0.00  0.00    +0.000 A 
ATOM      8  C   UNL     1       0.924   8.788  20.237  0.00  0.00    +0.000 A 
BRANCH   3  10
ATOM      9  C   UNL     1      -0.905  10.471  18.103  0.00  0.00    +0.000 C 
ATOM     10  O   UNL     1       0.423  10.592  18.590  0.00  0.00    +0.000 OA
ENDBRANCH   3  10
BRANCH   8  11
ATOM     11  O   UNL     1       0.065   9.231  21.203  0.00  0.00    +0.000 OA
ATOM     12  H   UNL     1      -0.782   8.761  21.127  0.00  0.00    +0.000 HD
ENDBRANCH   8  11
ENDBRANCH   1   5
BRANCH   2  13
ATOM     13  S   UNL     1       5.846   6.310  16.531  0.00  0.00    +0.000 S 
ATOM     14  O   UNL     1       5.205   6.382  15.229  0.00  0.00    +0.000 OA
ATOM     15  O   UNL     1       7.180   6.846  16.707  0.00  0.00    +0.000 OA
BRANCH  13  16
ATOM     16  C   UNL     1       5.892   4.594  17.019  0.00  0.00    +0.000 C 
BRANCH  16  17
ATOM     17  C   UNL     1       4.628   3.858  16.600  0.00  0.00    +0.000 C 
BRANCH  17  18
ATOM     18  C   UNL     1       3.624   3.722  17.714  0.00  0.00    +0.000 A 
ATOM     19  C   UNL     1       4.052   3.518  19.033  0.00  0.00    +0.000 A 
ATOM     20  C   UNL     1       3.122   3.418  20.068  0.00  0.00    +0.000 A 
ATOM     21  C   UNL     1       1.760   3.518  19.792  0.00  0.00    +0.000 A 
ATOM     22  C   UNL     1       1.326   3.719  18.484  0.00  0.00    +0.000 A 
ATOM     23  C   UNL     1       2.254   3.819  17.447  0.00  0.00    +0.000 A 
ENDBRANCH  17  18
ENDBRANCH  16  17
ENDBRANCH  13  16
ENDBRANCH   2  13
TORSDOF 7
ENDMDL
MODEL 8
REMARK VINA RESULT:      -7.2      2.836      6.441
REMARK  Name = 
REMARK  8 active torsions:
REMARK  status: ('A' for Active; 'I' for Inactive)
REMARK    1  A    between atoms: C_1  and  O_2
REMARK    2  A    between atoms: O_2  and  C_3
REMARK    3  A    between atoms: C_5  and  C_6
REMARK    4  A    between atoms: N_7  and  S_8
REMARK    5  A    between atoms: S_8  and  C_11
REMARK    6  A    between atoms: C_11  and  C_12
REMARK    7  A    between atoms: C_12  and  C_13
REMARK    8  A    between atoms: C_21  and  O_22
REMARK                            x       y       z     vdW  Elec       q    Type
REMARK                         _______ _______ _______ _____ _____    ______ ____
ROOT
ATOM      1  C   UNL     1       3.694   7.261  17.310  0.00  0.00    +0.000 C 
ATOM      2  N   UNL     1       4.909   6.963  17.635  0.00  0.00    +0.000 NA
ENDROOT
BRANCH   1   5
ATOM      3  C   UNL     1       1.177   9.587  18.926  0.00  0.00    +0.000 A 
ATOM      4  C   UNL     1       2.072   9.040  17.995  0.00  0.00    +0.000 A 
ATOM      5  C   UNL     1       2.742   7.847  18.270  0.00  0.00    +0.000 A 
ATOM      6  C   UNL     1       2.539   7.188  19.484  0.00  0.00    +0.000 A 
ATOM      7  C   UNL     1       1.654   7.725  20.418  0.00  0.00    +0.000 A 
ATOM      8  C   UNL     1       0.974   8.918  20.140  0.00  0.00    +0.000 A 
BRANCH   3  10
ATOM      9  C   UNL     1       1.241  11.978  18.828  0.00  0.00    +0.000 C 
ATOM     10  O   UNL     1       0.607  10.752  18.492  0.00  0.00    +0.000 OA
ENDBRANCH   3  10
BRANCH   8  11
ATOM     11  O   UNL     1       0.118   9.402  21.089  0.00  0.00    +0.000 OA
ATOM     12  H   UNL     1       0.590   9.507  21.931  0.00  0.00    +0.000 HD
ENDBRANCH   8  11
ENDBRANCH   1   5
BRANCH   2  13
ATOM     13  S   UNL     1       5.868   6.271  16.514  0.00  0.00    +0.000 S 
ATOM     14  O   UNL     1       5.211   6.271  15.218  0.00  0.00    +0.000 OA
ATOM     15  O   UNL     1       7.201   6.822  16.645  0.00  0.00    +0.000 OA
BRANCH  13  16
ATOM     16  C   UNL     1       5.929   4.584  17.092  0.00  0.00    +0.000 C 
BRANCH  16  17
ATOM     17  C   UNL     1       4.687   3.806  16.684  0.00  0.00    +0.000 C 
BRANCH  17  18
ATOM     18  C   UNL     1       3.644   3.742  17.767  0.00  0.00    +0.000 A 
ATOM     19  C   UNL     1       2.281   3.798  17.444  0.00  0.00    +0.000 A 
ATOM     20  C   UNL     1       1.315   3.712  18.447  0.00  0.00    +0.000 A 
ATOM     21  C   UNL     1       1.704   3.574  19.779  0.00  0.00    +0.000 A 
ATOM     22  C   UNL     1       3.056   3.520  20.108  0.00  0.00    +0.000 A 
ATOM     23  C   UNL     1       4.024   3.606  19.108  0.00  0.00    +0.000 A 
ENDBRANCH  17  18
ENDBRANCH  16  17
ENDBRANCH  13  16
ENDBRANCH   2  13
TORSDOF 7
ENDMDL
MODEL 9
REMARK VINA RESULT:      -7.1      2.895      6.406
REMARK  Name = 
REMARK  8 active torsions:
REMARK  status: ('A' for Active; 'I' for Inactive)
REMARK    1  A    between atoms: C_1  and  O_2
REMARK    2  A    between atoms: O_2  and  C_3
REMARK    3  A    between atoms: C_5  and  C_6
REMARK    4  A    between atoms: N_7  and  S_8
REMARK    5  A    between atoms: S_8  and  C_11
REMARK    6  A    between atoms: C_11  and  C_12
REMARK    7  A    between atoms: C_12  and  C_13
REMARK    8  A    between atoms: C_21  and  O_22
REMARK                            x       y       z     vdW  Elec       q    Type
REMARK                         _______ _______ _______ _____ _____    ______ ____
ROOT
ATOM      1  C   UNL     1       3.112   6.317  17.969  0.00  0.00    +0.000 C 
ATOM      2  N   UNL     1       4.382   6.105  18.077  0.00  0.00    +0.000 NA
ENDROOT
BRANCH   1   5
ATOM      3  C   UNL     1       1.301   9.381  19.268  0.00  0.00    +0.000 A 
ATOM      4  C   UNL     1       1.979   8.506  18.408  0.00  0.00    +0.000 A 
ATOM      5  C   UNL     1       2.390   7.248  18.854  0.00  0.00    +0.000 A 
ATOM      6  C   UNL     1       2.142   6.851  20.169  0.00  0.00    +0.000 A 
ATOM      7  C   UNL     1       1.472   7.715  21.034  0.00  0.00    +0.000 A 
ATOM      8  C   UNL     1       1.051   8.974  20.586  0.00  0.00    +0.000 A 
BRANCH   3  10
ATOM      9  C   UNL     1      -0.393  10.796  18.341  0.00  0.00    +0.000 C 
ATOM     10  O   UNL     1       0.970  10.565  18.667  0.00  0.00    +0.000 OA
ENDBRANCH   3  10
BRANCH   8  11
ATOM     11  O   UNL     1       0.400   9.784  21.473  0.00  0.00    +0.000 OA
ATOM     12  H   UNL     1       0.483   9.420  22.369  0.00  0.00    +0.000 HD
ENDBRANCH   8  11
ENDBRANCH   1   5
BRANCH   2  13
ATOM     13  S   UNL     1       5.079   5.017  17.083  0.00  0.00    +0.000 S 
ATOM     14  O   UNL     1       5.369   5.624  15.795  0.00  0.00    +0.000 OA
ATOM     15  O   UNL     1       6.128   4.335  17.811  0.00  0.00    +0.000 OA
BRANCH  13  16
ATOM     16  C   UNL     1       3.749   3.851  16.846  0.00  0.00    +0.000 C 
BRANCH  16  17
ATOM     17  C   UNL     1       3.840   2.690  17.825  0.00  0.00    +0.000 C 
BRANCH  17  18
ATOM     18  C   UNL     1       2.912   2.831  19.001  0.00  0.00    +0.000 A 
ATOM     19  C   UNL     1       3.401   2.709  20.309  0.00  0.00    +0.000 A 
ATOM     20  C   UNL     1       2.545   2.867  21.399  0.00  0.00    +0.000 A 
ATOM     21  C   UNL     1       1.195   3.144  21.190  0.00  0.00    +0.000 A 
ATOM     22  C   UNL     1       0.701   3.264  19.894  0.00  0.00    +0.000 A 
ATOM     23  C   UNL     1       1.554   3.107  18.801  0.00  0.00    +0.000 A 
ENDBRANCH  17  18
ENDBRANCH  16  17
ENDBRANCH  13  16
ENDBRANCH   2  13
TORSDOF 7
ENDMDL
