MODEL 1
REMARK VINA RESULT:      -8.6      0.000      0.000
REMARK  Name = 
REMARK  6 active torsions:
REMARK  status: ('A' for Active; 'I' for Inactive)
REMARK    1  A    between atoms: C_1  and  C_2
REMARK    2  A    between atoms: C_2  and  C_14
REMARK    3  A    between atoms: N_3  and  N_4
REMARK    4  A    between atoms: C_17  and  C_18
REMARK    5  A    between atoms: C_22  and  C_23
REMARK    6  A    between atoms: C_23  and  O_25
REMARK                            x       y       z     vdW  Elec       q    Type
REMARK                         _______ _______ _______ _____ _____    ______ ____
ROOT
ATOM      1  C   UNL     1       0.187  10.260  20.587  0.00  0.00    +0.000 A 
ATOM      2  C   UNL     1       0.292  11.621  20.794  0.00  0.00    +0.000 A 
ATOM      3  C   UNL     1      -0.665  12.237  19.955  0.00  0.00    +0.000 A 
ATOM      4  C   UNL     1      -1.284  11.227  19.245  0.00  0.00    +0.000 A 
ATOM      5  O   UNL     1      -0.797  10.021  19.663  0.00  0.00    +0.000 OA
ENDROOT
BRANCH   4   6
ATOM      6  C   UNL     1      -2.306  11.238  18.187  0.00  0.00    +0.000 A 
ATOM      7  C   UNL     1      -1.973  10.601  16.973  0.00  0.00    +0.000 A 
ATOM      8  C   UNL     1      -2.911  10.439  15.960  0.00  0.00    +0.000 A 
ATOM      9  C   UNL     1      -4.204  10.914  16.141  0.00  0.00    +0.000 A 
ATOM     10  C   UNL     1      -4.582  11.581  17.324  0.00  0.00    +0.000 A 
ATOM     11  C   UNL     1      -3.621  11.752  18.348  0.00  0.00    +0.000 A 
ATOM     12 CL   UNL     1      -4.049  12.554  19.834  0.00  0.00    +0.000 Cl
BRANCH  10  13
ATOM     13  C   UNL     1      -6.023  12.004  17.354  0.00  0.00    +0.000 C 
ATOM     14  O   UNL     1      -6.376  13.096  16.940  0.00  0.00    +0.000 OA
BRANCH  13  15
ATOM     15  O   UNL     1      -6.928  11.136  17.845  0.00  0.00    +0.000 OA
ATOM     16  H   UNL     1      -6.622  10.569  18.577  0.00  0.00    +0.000 HD
ENDBRANCH  13  15
ENDBRANCH  10  13
ENDBRANCH   4   6
BRANCH   1  18
ATOM     17  C   UNL     1       1.130   9.162  22.659  0.00  0.00    +0.000 C 
ATOM     18  C   UNL     1       0.923   9.146  21.161  0.00  0.00    +0.000 C 
ATOM     19  N   UNL     1       1.352   8.225  20.344  0.00  0.00    +0.000 NA
BRANCH  19  20
ATOM     20  N   UNL     1       2.005   7.132  20.846  0.00  0.00    +0.000 N 
ATOM     21  C   UNL     1       2.335   6.046  20.090  0.00  0.00    +0.000 A 
ATOM     22  N   UNL     1       2.473   4.853  20.623  0.00  0.00    +0.000 NA
ATOM     23  C   UNL     1       2.747   3.913  19.644  0.00  0.00    +0.000 A 
ATOM     24  C   UNL     1       2.890   2.524  19.847  0.00  0.00    +0.000 A 
ATOM     25  C   UNL     1       3.162   1.685  18.762  0.00  0.00    +0.000 A 
ATOM     26  C   UNL     1       3.311   2.214  17.484  0.00  0.00    +0.000 A 
ATOM     27  C   UNL     1       3.177   3.588  17.257  0.00  0.00    +0.000 A 
ATOM     28  C   UNL     1       2.881   4.418  18.351  0.00  0.00    +0.000 A 
ATOM     29  S   UNL     1       2.612   6.117  18.390  0.00  0.00    +0.000 S 
ATOM     30  H   UNL     1       1.829   6.868  21.813  0.00  0.00    +0.000 HD
ENDBRANCH  19  20
ENDBRANCH   1  18
TORSDOF 5
ENDMDL
MODEL 2
REMARK VINA RESULT:      -8.0      1.075      1.323
REMARK  Name = 
REMARK  6 active torsions:
REMARK  status: ('A' for Active; 'I' for Inactive)
REMARK    1  A    between atoms: C_1  and  C_2
REMARK    2  A    between atoms: C_2  and  C_14
REMARK    3  A    between atoms: N_3  and  N_4
REMARK    4  A    between atoms: C_17  and  C_18
REMARK    5  A    between atoms: C_22  and  C_23
REMARK    6  A    between atoms: C_23  and  O_25
REMARK                            x       y       z     vdW  Elec       q    Type
REMARK                         _______ _______ _______ _____ _____    ______ ____
ROOT
ATOM      1  C   UNL     1       0.027  10.300  19.852  0.00  0.00    +0.000 A 
ATOM      2  C   UNL     1       0.615  11.460  19.386  0.00  0.00    +0.000 A 
ATOM      3  C   UNL     1      -0.406  12.218  18.770  0.00  0.00    +0.000 A 
ATOM      4  C   UNL     1      -1.565  11.470  18.853  0.00  0.00    +0.000 A 
ATOM      5  O   UNL     1      -1.310  10.324  19.551  0.00  0.00    +0.000 OA
ENDROOT
BRANCH   4   6
ATOM      6  C   UNL     1      -2.928  11.690  18.347  0.00  0.00    +0.000 A 
ATOM      7  C   UNL     1      -3.190  11.281  17.022  0.00  0.00    +0.000 A 
ATOM      8  C   UNL     1      -4.474  11.322  16.492  0.00  0.00    +0.000 A 
ATOM      9  C   UNL     1      -5.525  11.775  17.280  0.00  0.00    +0.000 A 
ATOM     10  C   UNL     1      -5.315  12.220  18.600  0.00  0.00    +0.000 A 
ATOM     11  C   UNL     1      -4.004  12.186  19.131  0.00  0.00    +0.000 A 
ATOM     12 CL   UNL     1      -3.701  12.708  20.765  0.00  0.00    +0.000 Cl
BRANCH  10  13
ATOM     13  C   UNL     1      -6.568  12.651  19.307  0.00  0.00    +0.000 C 
ATOM     14  O   UNL     1      -7.464  11.861  19.555  0.00  0.00    +0.000 OA
BRANCH  13  15
ATOM     15  O   UNL     1      -6.678  13.943  19.673  0.00  0.00    +0.000 OA
ATOM     16  H   UNL     1      -7.437  14.160  20.246  0.00  0.00    +0.000 HD
ENDBRANCH  13  15
ENDBRANCH  10  13
ENDBRANCH   4   6
BRANCH   1  18
ATOM     17  C   UNL     1      -0.056   8.766  21.859  0.00  0.00    +0.000 C 
ATOM     18  C   UNL     1       0.590   9.156  20.549  0.00  0.00    +0.000 C 
ATOM     19  N   UNL     1       1.609   8.558  19.996  0.00  0.00    +0.000 NA
BRANCH  19  20
ATOM     20  N   UNL     1       2.139   7.445  20.590  0.00  0.00    +0.000 N 
ATOM     21  C   UNL     1       2.331   6.267  19.932  0.00  0.00    +0.000 A 
ATOM     22  N   UNL     1       2.337   5.116  20.568  0.00  0.00    +0.000 NA
ATOM     23  C   UNL     1       2.488   4.069  19.675  0.00  0.00    +0.000 A 
ATOM     24  C   UNL     1       2.473   2.696  19.999  0.00  0.00    +0.000 A 
ATOM     25  C   UNL     1       2.631   1.740  18.992  0.00  0.00    +0.000 A 
ATOM     26  C   UNL     1       2.822   2.133  17.672  0.00  0.00    +0.000 A 
ATOM     27  C   UNL     1       2.844   3.488  17.325  0.00  0.00    +0.000 A 
ATOM     28  C   UNL     1       2.660   4.440  18.342  0.00  0.00    +0.000 A 
ATOM     29  S   UNL     1       2.589   6.156  18.231  0.00  0.00    +0.000 S 
ATOM     30  H   UNL     1       1.948   7.289  21.577  0.00  0.00    +0.000 HD
ENDBRANCH  19  20
ENDBRANCH   1  18
TORSDOF 5
ENDMDL
MODEL 3
REMARK VINA RESULT:      -8.0      1.316      1.909
REMARK  Name = 
REMARK  6 active torsions:
REMARK  status: ('A' for Active; 'I' for Inactive)
REMARK    1  A    between atoms: C_1  and  C_2
REMARK    2  A    between atoms: C_2  and  C_14
REMARK    3  A    between atoms: N_3  and  N_4
REMARK    4  A    between atoms: C_17  and  C_18
REMARK    5  A    between atoms: C_22  and  C_23
REMARK    6  A    between atoms: C_23  and  O_25
REMARK                            x       y       z     vdW  Elec       q    Type
REMARK                         _______ _______ _______ _____ _____    ______ ____
ROOT
ATOM      1  C   UNL     1       0.117  10.391  19.959  0.00  0.00    +0.000 A 
ATOM      2  C   UNL     1       0.552  11.266  18.982  0.00  0.00    +0.000 A 
ATOM      3  C   UNL     1      -0.535  12.117  18.680  0.00  0.00    +0.000 A 
ATOM      4  C   UNL     1      -1.598  11.699  19.458  0.00  0.00    +0.000 A 
ATOM      5  O   UNL     1      -1.188  10.678  20.267  0.00  0.00    +0.000 OA
ENDROOT
BRANCH   4   6
ATOM      6  C   UNL     1      -2.998  12.140  19.546  0.00  0.00    +0.000 A 
ATOM      7  C   UNL     1      -3.292  13.147  20.489  0.00  0.00    +0.000 A 
ATOM      8  C   UNL     1      -4.553  13.726  20.562  0.00  0.00    +0.000 A 
ATOM      9  C   UNL     1      -5.550  13.307  19.690  0.00  0.00    +0.000 A 
ATOM     10  C   UNL     1      -5.318  12.285  18.747  0.00  0.00    +0.000 A 
ATOM     11  C   UNL     1      -4.036  11.692  18.684  0.00  0.00    +0.000 A 
ATOM     12 CL   UNL     1      -3.698  10.440  17.521  0.00  0.00    +0.000 Cl
BRANCH  10  13
ATOM     13  C   UNL     1      -6.502  11.979  17.874  0.00  0.00    +0.000 C 
ATOM     14  O   UNL     1      -6.882  12.761  17.018  0.00  0.00    +0.000 OA
BRANCH  13  15
ATOM     15  O   UNL     1      -7.136  10.804  18.053  0.00  0.00    +0.000 OA
ATOM     16  H   UNL     1      -7.346  10.570  18.976  0.00  0.00    +0.000 HD
ENDBRANCH  13  15
ENDBRANCH  10  13
ENDBRANCH   4   6
BRANCH   1  18
ATOM     17  C   UNL     1       0.570   9.169  22.124  0.00  0.00    +0.000 C 
ATOM     18  C   UNL     1       0.794   9.298  20.634  0.00  0.00    +0.000 C 
ATOM     19  N   UNL     1       1.546   8.518  19.909  0.00  0.00    +0.000 NA
BRANCH  19  20
ATOM     20  N   UNL     1       2.163   7.445  20.492  0.00  0.00    +0.000 N 
ATOM     21  C   UNL     1       2.383   6.266  19.844  0.00  0.00    +0.000 A 
ATOM     22  N   UNL     1       2.482   5.129  20.497  0.00  0.00    +0.000 NA
ATOM     23  C   UNL     1       2.643   4.075  19.615  0.00  0.00    +0.000 A 
ATOM     24  C   UNL     1       2.716   2.709  19.961  0.00  0.00    +0.000 A 
ATOM     25  C   UNL     1       2.874   1.744  18.962  0.00  0.00    +0.000 A 
ATOM     26  C   UNL     1       2.979   2.123  17.628  0.00  0.00    +0.000 A 
ATOM     27  C   UNL     1       2.912   3.470  17.259  0.00  0.00    +0.000 A 
ATOM     28  C   UNL     1       2.729   4.430  18.269  0.00  0.00    +0.000 A 
ATOM     29  S   UNL     1       2.563   6.137  18.135  0.00  0.00    +0.000 S 
ATOM     30  H   UNL     1       2.029   7.297  21.491  0.00  0.00    +0.000 HD
ENDBRANCH  19  20
ENDBRANCH   1  18
TORSDOF 5
ENDMDL
MODEL 4
REMARK VINA RESULT:      -8.0      4.352      9.309
REMARK  Name = 
REMARK  6 active torsions:
REMARK  status: ('A' for Active; 'I' for Inactive)
REMARK    1  A    between atoms: C_1  and  C_2
REMARK    2  A    between atoms: C_2  and  C_14
REMARK    3  A    between atoms: N_3  and  N_4
REMARK    4  A    between atoms: C_17  and  C_18
REMARK    5  A    between atoms: C_22  and  C_23
REMARK    6  A    between atoms: C_23  and  O_25
REMARK                            x       y       z     vdW  Elec       q    Type
REMARK                         _______ _______ _______ _____ _____    ______ ____
ROOT
ATOM      1  C   UNL     1       2.427   8.436  17.789  0.00  0.00    +0.000 A 
ATOM      2  C   UNL     1       3.703   8.203  17.312  0.00  0.00    +0.000 A 
ATOM      3  C   UNL     1       3.940   6.816  17.437  0.00  0.00    +0.000 A 
ATOM      4  C   UNL     1       2.813   6.268  18.021  0.00  0.00    +0.000 A 
ATOM      5  O   UNL     1       1.877   7.248  18.194  0.00  0.00    +0.000 OA
ENDROOT
BRANCH   4   6
ATOM      6  C   UNL     1       2.484   4.904  18.458  0.00  0.00    +0.000 A 
ATOM      7  C   UNL     1       2.423   3.910  17.459  0.00  0.00    +0.000 A 
ATOM      8  C   UNL     1       2.251   2.569  17.780  0.00  0.00    +0.000 A 
ATOM      9  C   UNL     1       2.134   2.194  19.112  0.00  0.00    +0.000 A 
ATOM     10  C   UNL     1       2.161   3.148  20.149  0.00  0.00    +0.000 A 
ATOM     11  C   UNL     1       2.327   4.513  19.816  0.00  0.00    +0.000 A 
ATOM     12 CL   UNL     1       2.386   5.725  21.065  0.00  0.00    +0.000 Cl
BRANCH  10  13
ATOM     13  C   UNL     1       2.045   2.559  21.526  0.00  0.00    +0.000 C 
ATOM     14  O   UNL     1       3.017   2.110  22.111  0.00  0.00    +0.000 OA
BRANCH  13  15
ATOM     15  O   UNL     1       0.832   2.545  22.110  0.00  0.00    +0.000 OA
ATOM     16  H   UNL     1       0.068   2.501  21.505  0.00  0.00    +0.000 HD
ENDBRANCH  13  15
ENDBRANCH  10  13
ENDBRANCH   4   6
BRANCH   1  18
ATOM     17  C   UNL     1       2.442  10.962  17.877  0.00  0.00    +0.000 C 
ATOM     18  C   UNL     1       1.664   9.666  17.917  0.00  0.00    +0.000 C 
ATOM     19  N   UNL     1       0.373   9.559  18.063  0.00  0.00    +0.000 NA
BRANCH  19  20
ATOM     20  N   UNL     1      -0.392  10.691  18.136  0.00  0.00    +0.000 N 
ATOM     21  C   UNL     1      -0.912  11.168  19.302  0.00  0.00    +0.000 A 
ATOM     22  N   UNL     1      -2.008  11.895  19.321  0.00  0.00    +0.000 NA
ATOM     23  C   UNL     1      -2.362  12.203  20.623  0.00  0.00    +0.000 A 
ATOM     24  C   UNL     1      -3.516  12.911  21.022  0.00  0.00    +0.000 A 
ATOM     25  C   UNL     1      -3.755  13.148  22.379  0.00  0.00    +0.000 A 
ATOM     26  C   UNL     1      -2.852  12.707  23.340  0.00  0.00    +0.000 A 
ATOM     27  C   UNL     1      -1.699  12.006  22.971  0.00  0.00    +0.000 A 
ATOM     28  C   UNL     1      -1.481  11.753  21.606  0.00  0.00    +0.000 A 
ATOM     29  S   UNL     1      -0.202  10.888  20.848  0.00  0.00    +0.000 S 
ATOM     30  H   UNL     1      -0.992  10.919  17.345  0.00  0.00    +0.000 HD
ENDBRANCH  19  20
ENDBRANCH   1  18
TORSDOF 5
ENDMDL
MODEL 5
REMARK VINA RESULT:      -7.9      1.723      2.077
REMARK  Name = 
REMARK  6 active torsions:
REMARK  status: ('A' for Active; 'I' for Inactive)
REMARK    1  A    between atoms: C_1  and  C_2
REMARK    2  A    between atoms: C_2  and  C_14
REMARK    3  A    between atoms: N_3  and  N_4
REMARK    4  A    between atoms: C_17  and  C_18
REMARK    5  A    between atoms: C_22  and  C_23
REMARK    6  A    between atoms: C_23  and  O_25
REMARK                            x       y       z     vdW  Elec       q    Type
REMARK                         _______ _______ _______ _____ _____    ______ ____
ROOT
ATOM      1  C   UNL     1      -0.074  10.339  20.780  0.00  0.00    +0.000 A 
ATOM      2  C   UNL     1      -0.034  11.703  20.997  0.00  0.00    +0.000 A 
ATOM      3  C   UNL     1      -1.044  12.276  20.193  0.00  0.00    +0.000 A 
ATOM      4  C   UNL     1      -1.632  11.242  19.490  0.00  0.00    +0.000 A 
ATOM      5  O   UNL     1      -1.070  10.059  19.881  0.00  0.00    +0.000 OA
ENDROOT
BRANCH   4   6
ATOM      6  C   UNL     1      -2.682  11.209  18.462  0.00  0.00    +0.000 A 
ATOM      7  C   UNL     1      -3.856  11.946  18.726  0.00  0.00    +0.000 A 
ATOM      8  C   UNL     1      -4.852  12.089  17.767  0.00  0.00    +0.000 A 
ATOM      9  C   UNL     1      -4.694  11.495  16.521  0.00  0.00    +0.000 A 
ATOM     10  C   UNL     1      -3.553  10.725  16.215  0.00  0.00    +0.000 A 
ATOM     11  C   UNL     1      -2.547  10.575  17.198  0.00  0.00    +0.000 A 
ATOM     12 CL   UNL     1      -1.112   9.649  16.856  0.00  0.00    +0.000 Cl
BRANCH  10  13
ATOM     13  C   UNL     1      -3.542  10.180  14.815  0.00  0.00    +0.000 C 
ATOM     14  O   UNL     1      -2.503  10.064  14.185  0.00  0.00    +0.000 OA
BRANCH  13  15
ATOM     15  O   UNL     1      -4.716   9.809  14.269  0.00  0.00    +0.000 OA
ATOM     16  H   UNL     1      -4.833  10.024  13.325  0.00  0.00    +0.000 HD
ENDBRANCH  13  15
ENDBRANCH  10  13
ENDBRANCH   4   6
BRANCH   1  18
ATOM     17  C   UNL     1       0.935   9.240  22.819  0.00  0.00    +0.000 C 
ATOM     18  C   UNL     1       0.735   9.260  21.320  0.00  0.00    +0.000 C 
ATOM     19  N   UNL     1       1.229   8.399  20.476  0.00  0.00    +0.000 NA
BRANCH  19  20
ATOM     20  N   UNL     1       1.954   7.337  20.944  0.00  0.00    +0.000 N 
ATOM     21  C   UNL     1       2.243   6.239  20.190  0.00  0.00    +0.000 A 
ATOM     22  N   UNL     1       2.460   5.064  20.740  0.00  0.00    +0.000 NA
ATOM     23  C   UNL     1       2.671   4.104  19.765  0.00  0.00    +0.000 A 
ATOM     24  C   UNL     1       2.869   2.725  19.990  0.00  0.00    +0.000 A 
ATOM     25  C   UNL     1       3.065   1.863  18.907  0.00  0.00    +0.000 A 
ATOM     26  C   UNL     1       3.085   2.359  17.608  0.00  0.00    +0.000 A 
ATOM     27  C   UNL     1       2.894   3.722  17.358  0.00  0.00    +0.000 A 
ATOM     28  C   UNL     1       2.675   4.575  18.452  0.00  0.00    +0.000 A 
ATOM     29  S   UNL     1       2.364   6.268  18.471  0.00  0.00    +0.000 S 
ATOM     30  H   UNL     1       1.873   7.096  21.930  0.00  0.00    +0.000 HD
ENDBRANCH  19  20
ENDBRANCH   1  18
TORSDOF 5
ENDMDL
MODEL 6
REMARK VINA RESULT:      -7.9      3.533      4.770
REMARK  Name = 
REMARK  6 active torsions:
REMARK  status: ('A' for Active; 'I' for Inactive)
REMARK    1  A    between atoms: C_1  and  C_2
REMARK    2  A    between atoms: C_2  and  C_14
REMARK    3  A    between atoms: N_3  and  N_4
REMARK    4  A    between atoms: C_17  and  C_18
REMARK    5  A    between atoms: C_22  and  C_23
REMARK    6  A    between atoms: C_23  and  O_25
REMARK                            x       y       z     vdW  Elec       q    Type
REMARK                         _______ _______ _______ _____ _____    ______ ____
ROOT
ATOM      1  C   UNL     1       0.244  10.647  19.791  0.00  0.00    +0.000 A 
ATOM      2  C   UNL     1      -0.929  11.043  19.177  0.00  0.00    +0.000 A 
ATOM      3  C   UNL     1      -0.691  12.321  18.625  0.00  0.00    +0.000 A 
ATOM      4  C   UNL     1       0.604  12.667  18.959  0.00  0.00    +0.000 A 
ATOM      5  O   UNL     1       1.186  11.630  19.629  0.00  0.00    +0.000 OA
ENDROOT
BRANCH   4   6
ATOM      6  C   UNL     1       1.398  13.883  18.730  0.00  0.00    +0.000 A 
ATOM      7  C   UNL     1       2.699  13.708  18.213  0.00  0.00    +0.000 A 
ATOM      8  C   UNL     1       3.482  14.794  17.837  0.00  0.00    +0.000 A 
ATOM      9  C   UNL     1       2.977  16.081  17.973  0.00  0.00    +0.000 A 
ATOM     10  C   UNL     1       1.695  16.314  18.509  0.00  0.00    +0.000 A 
ATOM     11  C   UNL     1       0.906  15.206  18.899  0.00  0.00    +0.000 A 
ATOM     12 CL   UNL     1      -0.693  15.446  19.548  0.00  0.00    +0.000 Cl
BRANCH  10  13
ATOM     13  C   UNL     1       1.307  17.764  18.559  0.00  0.00    +0.000 C 
ATOM     14  O   UNL     1       1.843  18.541  19.333  0.00  0.00    +0.000 OA
BRANCH  13  15
ATOM     15  O   UNL     1       0.350  18.195  17.715  0.00  0.00    +0.000 OA
ATOM     16  H   UNL     1       0.651  18.442  16.820  0.00  0.00    +0.000 HD
ENDBRANCH  13  15
ENDBRANCH  10  13
ENDBRANCH   4   6
BRANCH   1  18
ATOM     17  C   UNL     1      -0.251   9.136  21.755  0.00  0.00    +0.000 C 
ATOM     18  C   UNL     1       0.578   9.441  20.527  0.00  0.00    +0.000 C 
ATOM     19  N   UNL     1       1.568   8.718  20.080  0.00  0.00    +0.000 NA
BRANCH  19  20
ATOM     20  N   UNL     1       1.885   7.547  20.712  0.00  0.00    +0.000 N 
ATOM     21  C   UNL     1       2.057   6.365  20.054  0.00  0.00    +0.000 A 
ATOM     22  N   UNL     1       1.849   5.210  20.646  0.00  0.00    +0.000 NA
ATOM     23  C   UNL     1       2.031   4.168  19.754  0.00  0.00    +0.000 A 
ATOM     24  C   UNL     1       1.828   2.799  20.028  0.00  0.00    +0.000 A 
ATOM     25  C   UNL     1       2.043   1.847  19.026  0.00  0.00    +0.000 A 
ATOM     26  C   UNL     1       2.475   2.240  17.764  0.00  0.00    +0.000 A 
ATOM     27  C   UNL     1       2.687   3.591  17.467  0.00  0.00    +0.000 A 
ATOM     28  C   UNL     1       2.444   4.540  18.475  0.00  0.00    +0.000 A 
ATOM     29  S   UNL     1       2.564   6.256  18.409  0.00  0.00    +0.000 S 
ATOM     30  H   UNL     1       1.528   7.395  21.653  0.00  0.00    +0.000 HD
ENDBRANCH  19  20
ENDBRANCH   1  18
TORSDOF 5
ENDMDL
MODEL 7
REMARK VINA RESULT:      -7.9      4.699      9.881
REMARK  Name = 
REMARK  6 active torsions:
REMARK  status: ('A' for Active; 'I' for Inactive)
REMARK    1  A    between atoms: C_1  and  C_2
REMARK    2  A    between atoms: C_2  and  C_14
REMARK    3  A    between atoms: N_3  and  N_4
REMARK    4  A    between atoms: C_17  and  C_18
REMARK    5  A    between atoms: C_22  and  C_23
REMARK    6  A    between atoms: C_23  and  O_25
REMARK                            x       y       z     vdW  Elec       q    Type
REMARK                         _______ _______ _______ _____ _____    ______ ____
ROOT
ATOM      1  C   UNL     1       2.480   8.415  17.977  0.00  0.00    +0.000 A 
ATOM      2  C   UNL     1       3.629   8.114  17.271  0.00  0.00    +0.000 A 
ATOM      3  C   UNL     1       3.952   6.771  17.569  0.00  0.00    +0.000 A 
ATOM      4  C   UNL     1       3.009   6.324  18.474  0.00  0.00    +0.000 A 
ATOM      5  O   UNL     1       2.089   7.310  18.687  0.00  0.00    +0.000 OA
ENDROOT
BRANCH   4   6
ATOM      6  C   UNL     1       2.849   5.053  19.196  0.00  0.00    +0.000 A 
ATOM      7  C   UNL     1       1.543   4.711  19.604  0.00  0.00    +0.000 A 
ATOM      8  C   UNL     1       1.262   3.475  20.175  0.00  0.00    +0.000 A 
ATOM      9  C   UNL     1       2.287   2.553  20.350  0.00  0.00    +0.000 A 
ATOM     10  C   UNL     1       3.615   2.854  19.985  0.00  0.00    +0.000 A 
ATOM     11  C   UNL     1       3.897   4.117  19.414  0.00  0.00    +0.000 A 
ATOM     12 CL   UNL     1       5.519   4.524  18.930  0.00  0.00    +0.000 Cl
BRANCH  10  13
ATOM     13  C   UNL     1       4.584   1.731  20.225  0.00  0.00    +0.000 C 
ATOM     14  O   UNL     1       5.235   1.661  21.255  0.00  0.00    +0.000 OA
BRANCH  13  15
ATOM     15  O   UNL     1       4.713   0.789  19.271  0.00  0.00    +0.000 OA
ATOM     16  H   UNL     1       4.141   0.894  18.488  0.00  0.00    +0.000 HD
ENDBRANCH  13  15
ENDBRANCH  10  13
ENDBRANCH   4   6
BRANCH   1  18
ATOM     17  C   UNL     1       2.468  10.942  17.936  0.00  0.00    +0.000 C 
ATOM     18  C   UNL     1       1.707   9.642  18.067  0.00  0.00    +0.000 C 
ATOM     19  N   UNL     1       0.422   9.529  18.258  0.00  0.00    +0.000 NA
BRANCH  19  20
ATOM     20  N   UNL     1      -0.354  10.656  18.297  0.00  0.00    +0.000 N 
ATOM     21  C   UNL     1      -0.895  11.151  19.446  0.00  0.00    +0.000 A 
ATOM     22  N   UNL     1      -1.997  11.868  19.435  0.00  0.00    +0.000 NA
ATOM     23  C   UNL     1      -2.374  12.199  20.725  0.00  0.00    +0.000 A 
ATOM     24  C   UNL     1      -3.539  12.904  21.092  0.00  0.00    +0.000 A 
ATOM     25  C   UNL     1      -3.801  13.166  22.440  0.00  0.00    +0.000 A 
ATOM     26  C   UNL     1      -2.909  12.751  23.423  0.00  0.00    +0.000 A 
ATOM     27  C   UNL     1      -1.744  12.053  23.086  0.00  0.00    +0.000 A 
ATOM     28  C   UNL     1      -1.504  11.775  21.729  0.00  0.00    +0.000 A 
ATOM     29  S   UNL     1      -0.206  10.907  21.007  0.00  0.00    +0.000 S 
ATOM     30  H   UNL     1      -0.943  10.863  17.493  0.00  0.00    +0.000 HD
ENDBRANCH  19  20
ENDBRANCH   1  18
TORSDOF 5
ENDMDL
MODEL 8
REMARK VINA RESULT:      -7.8      4.847     10.064
REMARK  Name = 
REMARK  6 active torsions:
REMARK  status: ('A' for Active; 'I' for Inactive)
REMARK    1  A    between atoms: C_1  and  C_2
REMARK    2  A    between atoms: C_2  and  C_14
REMARK    3  A    between atoms: N_3  and  N_4
REMARK    4  A    between atoms: C_17  and  C_18
REMARK    5  A    between atoms: C_22  and  C_23
REMARK    6  A    between atoms: C_23  and  O_25
REMARK                            x       y       z     vdW  Elec       q    Type
REMARK                         _______ _______ _______ _____ _____    ______ ____
ROOT
ATOM      1  C   UNL     1       0.302   9.544  20.147  0.00  0.00    +0.000 A 
ATOM      2  C   UNL     1       0.620   9.036  21.392  0.00  0.00    +0.000 A 
ATOM      3  C   UNL     1       1.583   8.022  21.187  0.00  0.00    +0.000 A 
ATOM      4  C   UNL     1       1.782   7.930  19.823  0.00  0.00    +0.000 A 
ATOM      5  O   UNL     1       1.035   8.886  19.195  0.00  0.00    +0.000 OA
ENDROOT
BRANCH   4   6
ATOM      6  C   UNL     1       2.603   7.032  18.997  0.00  0.00    +0.000 A 
ATOM      7  C   UNL     1       3.296   7.616  17.915  0.00  0.00    +0.000 A 
ATOM      8  C   UNL     1       4.200   6.884  17.155  0.00  0.00    +0.000 A 
ATOM      9  C   UNL     1       4.429   5.548  17.461  0.00  0.00    +0.000 A 
ATOM     10  C   UNL     1       3.744   4.909  18.514  0.00  0.00    +0.000 A 
ATOM     11  C   UNL     1       2.817   5.656  19.279  0.00  0.00    +0.000 A 
ATOM     12 CL   UNL     1       1.963   4.912  20.601  0.00  0.00    +0.000 Cl
BRANCH  10  13
ATOM     13  C   UNL     1       4.136   3.473  18.715  0.00  0.00    +0.000 C 
ATOM     14  O   UNL     1       3.384   2.559  18.416  0.00  0.00    +0.000 OA
BRANCH  13  15
ATOM     15  O   UNL     1       5.353   3.213  19.231  0.00  0.00    +0.000 OA
ATOM     16  H   UNL     1       5.362   2.807  20.118  0.00  0.00    +0.000 HD
ENDBRANCH  13  15
ENDBRANCH  10  13
ENDBRANCH   4   6
BRANCH   1  18
ATOM     17  C   UNL     1      -1.141  10.539  18.326  0.00  0.00    +0.000 C 
ATOM     18  C   UNL     1      -0.631  10.584  19.749  0.00  0.00    +0.000 C 
ATOM     19  N   UNL     1      -0.953  11.477  20.643  0.00  0.00    +0.000 NA
BRANCH  19  20
ATOM     20  N   UNL     1      -1.868  12.445  20.328  0.00  0.00    +0.000 N 
ATOM     21  C   UNL     1      -2.966  12.712  21.091  0.00  0.00    +0.000 A 
ATOM     22  N   UNL     1      -4.057  13.228  20.571  0.00  0.00    +0.000 NA
ATOM     23  C   UNL     1      -5.045  13.346  21.533  0.00  0.00    +0.000 A 
ATOM     24  C   UNL     1      -6.363  13.799  21.316  0.00  0.00    +0.000 A 
ATOM     25  C   UNL     1      -7.265  13.862  22.383  0.00  0.00    +0.000 A 
ATOM     26  C   UNL     1      -6.864  13.499  23.664  0.00  0.00    +0.000 A 
ATOM     27  C   UNL     1      -5.562  13.049  23.907  0.00  0.00    +0.000 A 
ATOM     28  C   UNL     1      -4.672  12.967  22.823  0.00  0.00    +0.000 A 
ATOM     29  S   UNL     1      -3.042  12.417  22.788  0.00  0.00    +0.000 S 
ATOM     30  H   UNL     1      -2.047  12.636  19.345  0.00  0.00    +0.000 HD
ENDBRANCH  19  20
ENDBRANCH   1  18
TORSDOF 5
ENDMDL
MODEL 9
REMARK VINA RESULT:      -7.8      5.026     10.035
REMARK  Name = 
REMARK  6 active torsions:
REMARK  status: ('A' for Active; 'I' for Inactive)
REMARK    1  A    between atoms: C_1  and  C_2
REMARK    2  A    between atoms: C_2  and  C_14
REMARK    3  A    between atoms: N_3  and  N_4
REMARK    4  A    between atoms: C_17  and  C_18
REMARK    5  A    between atoms: C_22  and  C_23
REMARK    6  A    between atoms: C_23  and  O_25
REMARK                            x       y       z     vdW  Elec       q    Type
REMARK                         _______ _______ _______ _____ _____    ______ ____
ROOT
ATOM      1  C   UNL     1       1.447   8.839  19.605  0.00  0.00    +0.000 A 
ATOM      2  C   UNL     1       1.762   9.489  18.427  0.00  0.00    +0.000 A 
ATOM      3  C   UNL     1       2.344   8.527  17.571  0.00  0.00    +0.000 A 
ATOM      4  C   UNL     1       2.395   7.341  18.278  0.00  0.00    +0.000 A 
ATOM      5  O   UNL     1       1.808   7.522  19.499  0.00  0.00    +0.000 OA
ENDROOT
BRANCH   4   6
ATOM      6  C   UNL     1       2.941   6.014  17.957  0.00  0.00    +0.000 A 
ATOM      7  C   UNL     1       2.062   4.917  18.073  0.00  0.00    +0.000 A 
ATOM      8  C   UNL     1       2.438   3.642  17.668  0.00  0.00    +0.000 A 
ATOM      9  C   UNL     1       3.705   3.438  17.137  0.00  0.00    +0.000 A 
ATOM     10  C   UNL     1       4.632   4.494  17.023  0.00  0.00    +0.000 A 
ATOM     11  C   UNL     1       4.248   5.788  17.446  0.00  0.00    +0.000 A 
ATOM     12 CL   UNL     1       5.354   7.126  17.306  0.00  0.00    +0.000 Cl
BRANCH  10  13
ATOM     13  C   UNL     1       5.941   4.094  16.406  0.00  0.00    +0.000 C 
ATOM     14  O   UNL     1       6.011   3.714  15.248  0.00  0.00    +0.000 OA
BRANCH  13  15
ATOM     15  O   UNL     1       7.051   4.172  17.165  0.00  0.00    +0.000 OA
ATOM     16  H   UNL     1       7.715   4.829  16.882  0.00  0.00    +0.000 HD
ENDBRANCH  13  15
ENDBRANCH  10  13
ENDBRANCH   4   6
BRANCH   1  18
ATOM     17  C   UNL     1       1.462   8.853  22.132  0.00  0.00    +0.000 C 
ATOM     18  C   UNL     1       0.847   9.327  20.834  0.00  0.00    +0.000 C 
ATOM     19  N   UNL     1      -0.176  10.129  20.727  0.00  0.00    +0.000 NA
BRANCH  19  20
ATOM     20  N   UNL     1      -0.741  10.654  21.857  0.00  0.00    +0.000 N 
ATOM     21  C   UNL     1      -0.993  11.984  22.019  0.00  0.00    +0.000 A 
ATOM     22  N   UNL     1      -1.036  12.537  23.211  0.00  0.00    +0.000 NA
ATOM     23  C   UNL     1      -1.245  13.901  23.105  0.00  0.00    +0.000 A 
ATOM     24  C   UNL     1      -1.280  14.818  24.177  0.00  0.00    +0.000 A 
ATOM     25  C   UNL     1      -1.495  16.177  23.925  0.00  0.00    +0.000 A 
ATOM     26  C   UNL     1      -1.693  16.629  22.625  0.00  0.00    +0.000 A 
ATOM     27  C   UNL     1      -1.665  15.739  21.545  0.00  0.00    +0.000 A 
ATOM     28  C   UNL     1      -1.425  14.380  21.808  0.00  0.00    +0.000 A 
ATOM     29  S   UNL     1      -1.285  13.065  20.708  0.00  0.00    +0.000 S 
ATOM     30  H   UNL     1      -0.539  10.206  22.749  0.00  0.00    +0.000 HD
ENDBRANCH  19  20
ENDBRANCH   1  18
TORSDOF 5
ENDMDL
