MODEL 1
REMARK VINA RESULT:      -4.9      0.000      0.000
REMARK  Name = 
REMARK  10 active torsions:
REMARK  status: ('A' for Active; 'I' for Inactive)
REMARK    1  A    between atoms: C_1  and  C_2
REMARK    2  A    between atoms: C_2  and  C_3
REMARK    3  A    between atoms: C_3  and  C_4
REMARK    4  A    between atoms: C_4  and  C_5
REMARK    5  A    between atoms: C_5  and  N_6
REMARK    6  A    between atoms: N_6  and  C_7
REMARK    7  A    between atoms: N_6  and  N_11
REMARK    8  A    between atoms: C_7  and  C_8
REMARK    9  A    between atoms: C_8  and  C_9
REMARK   10  A    between atoms: C_9  and  C_10
REMARK                            x       y       z     vdW  Elec       q    Type
REMARK                         _______ _______ _______ _____ _____    ______ ____
ROOT
ATOM      1  N   UNL     1       5.856   4.435  16.481  0.00  0.00    +0.000 N 
ENDROOT
BRANCH   1   2
ATOM      2  N   UNL     1       6.907   4.827  17.172  0.00  0.00    +0.000 NA
ATOM      3  O   UNL     1       7.921   4.236  16.777  0.00  0.00    +0.000 OA
ENDBRANCH   1   2
BRANCH   1   4
ATOM      4  C   UNL     1       6.188   3.648  15.295  0.00  0.00    +0.000 C 
BRANCH   4   5
ATOM      5  C   UNL     1       5.583   4.146  13.974  0.00  0.00    +0.000 C 
BRANCH   5   6
ATOM      6  C   UNL     1       6.351   3.730  12.709  0.00  0.00    +0.000 C 
BRANCH   6   8
ATOM      7  C   UNL     1       4.250   3.261  11.345  0.00  0.00    +0.000 C 
ATOM      8  C   UNL     1       5.543   2.698  11.914  0.00  0.00    +0.000 C 
ENDBRANCH   6   8
ENDBRANCH   5   6
ENDBRANCH   4   5
ENDBRANCH   1   4
BRANCH   1   9
ATOM      9  C   UNL     1       4.727   3.946  17.295  0.00  0.00    +0.000 C 
BRANCH   9  10
ATOM     10  C   UNL     1       3.423   4.759  17.423  0.00  0.00    +0.000 C 
BRANCH  10  11
ATOM     11  C   UNL     1       2.163   3.982  17.813  0.00  0.00    +0.000 C 
ATOM     12  C   UNL     1       2.400   2.479  17.668  0.00  0.00    +0.000 C 
ENDBRANCH  10  11
ENDBRANCH   9  10
ENDBRANCH   1   9
TORSDOF 8
ENDMDL
MODEL 2
REMARK VINA RESULT:      -4.8      1.381      1.885
REMARK  Name = 
REMARK  10 active torsions:
REMARK  status: ('A' for Active; 'I' for Inactive)
REMARK    1  A    between atoms: C_1  and  C_2
REMARK    2  A    between atoms: C_2  and  C_3
REMARK    3  A    between atoms: C_3  and  C_4
REMARK    4  A    between atoms: C_4  and  C_5
REMARK    5  A    between atoms: C_5  and  N_6
REMARK    6  A    between atoms: N_6  and  C_7
REMARK    7  A    between atoms: N_6  and  N_11
REMARK    8  A    between atoms: C_7  and  C_8
REMARK    9  A    between atoms: C_8  and  C_9
REMARK   10  A    between atoms: C_9  and  C_10
REMARK                            x       y       z     vdW  Elec       q    Type
REMARK                         _______ _______ _______ _____ _____    ______ ____
ROOT
ATOM      1  N   UNL     1       6.421   5.090  14.593  0.00  0.00    +0.000 N 
ENDROOT
BRANCH   1   2
ATOM      2  N   UNL     1       7.634   5.488  14.916  0.00  0.00    +0.000 NA
ATOM      3  O   UNL     1       7.691   5.745  16.126  0.00  0.00    +0.000 OA
ENDBRANCH   1   2
BRANCH   1   4
ATOM      4  C   UNL     1       6.382   3.785  13.936  0.00  0.00    +0.000 C 
BRANCH   4   5
ATOM      5  C   UNL     1       6.361   3.812  12.401  0.00  0.00    +0.000 C 
BRANCH   5   6
ATOM      6  C   UNL     1       5.469   2.746  11.743  0.00  0.00    +0.000 C 
BRANCH   6   8
ATOM      7  C   UNL     1       3.641   3.736  10.268  0.00  0.00    +0.000 C 
ATOM      8  C   UNL     1       4.022   3.248  11.657  0.00  0.00    +0.000 C 
ENDBRANCH   6   8
ENDBRANCH   5   6
ENDBRANCH   4   5
ENDBRANCH   1   4
BRANCH   1   9
ATOM      9  C   UNL     1       5.395   5.333  15.625  0.00  0.00    +0.000 C 
BRANCH   9  10
ATOM     10  C   UNL     1       4.752   4.168  16.403  0.00  0.00    +0.000 C 
BRANCH  10  11
ATOM     11  C   UNL     1       4.190   4.492  17.790  0.00  0.00    +0.000 C 
ATOM     12  C   UNL     1       2.668   4.615  17.730  0.00  0.00    +0.000 C 
ENDBRANCH  10  11
ENDBRANCH   9  10
ENDBRANCH   1   9
TORSDOF 8
ENDMDL
MODEL 3
REMARK VINA RESULT:      -4.8      3.275      5.957
REMARK  Name = 
REMARK  10 active torsions:
REMARK  status: ('A' for Active; 'I' for Inactive)
REMARK    1  A    between atoms: C_1  and  C_2
REMARK    2  A    between atoms: C_2  and  C_3
REMARK    3  A    between atoms: C_3  and  C_4
REMARK    4  A    between atoms: C_4  and  C_5
REMARK    5  A    between atoms: C_5  and  N_6
REMARK    6  A    between atoms: N_6  and  C_7
REMARK    7  A    between atoms: N_6  and  N_11
REMARK    8  A    between atoms: C_7  and  C_8
REMARK    9  A    between atoms: C_8  and  C_9
REMARK   10  A    between atoms: C_9  and  C_10
REMARK                            x       y       z     vdW  Elec       q    Type
REMARK                         _______ _______ _______ _____ _____    ______ ____
ROOT
ATOM      1  N   UNL     1       4.483   2.849  18.962  0.00  0.00    +0.000 N 
ENDROOT
BRANCH   1   2
ATOM      2  N   UNL     1       4.461   2.530  20.239  0.00  0.00    +0.000 NA
ATOM      3  O   UNL     1       5.230   1.583  20.455  0.00  0.00    +0.000 OA
ENDBRANCH   1   2
BRANCH   1   4
ATOM      4  C   UNL     1       3.413   2.233  18.179  0.00  0.00    +0.000 C 
BRANCH   4   5
ATOM      5  C   UNL     1       2.107   1.955  18.939  0.00  0.00    +0.000 C 
BRANCH   5   6
ATOM      6  C   UNL     1       1.078   3.097  18.902  0.00  0.00    +0.000 C 
BRANCH   6   8
ATOM      7  C   UNL     1       1.273   2.834  21.430  0.00  0.00    +0.000 C 
ATOM      8  C   UNL     1       0.998   3.781  20.273  0.00  0.00    +0.000 C 
ENDBRANCH   6   8
ENDBRANCH   5   6
ENDBRANCH   4   5
ENDBRANCH   1   4
BRANCH   1   9
ATOM      9  C   UNL     1       4.759   4.272  18.685  0.00  0.00    +0.000 C 
BRANCH   9  10
ATOM     10  C   UNL     1       3.993   5.036  17.587  0.00  0.00    +0.000 C 
BRANCH  10  11
ATOM     11  C   UNL     1       4.743   6.171  16.885  0.00  0.00    +0.000 C 
ATOM     12  C   UNL     1       5.427   5.652  15.620  0.00  0.00    +0.000 C 
ENDBRANCH  10  11
ENDBRANCH   9  10
ENDBRANCH   1   9
TORSDOF 8
ENDMDL
MODEL 4
REMARK VINA RESULT:      -4.8      1.915      4.847
REMARK  Name = 
REMARK  10 active torsions:
REMARK  status: ('A' for Active; 'I' for Inactive)
REMARK    1  A    between atoms: C_1  and  C_2
REMARK    2  A    between atoms: C_2  and  C_3
REMARK    3  A    between atoms: C_3  and  C_4
REMARK    4  A    between atoms: C_4  and  C_5
REMARK    5  A    between atoms: C_5  and  N_6
REMARK    6  A    between atoms: N_6  and  C_7
REMARK    7  A    between atoms: N_6  and  N_11
REMARK    8  A    between atoms: C_7  and  C_8
REMARK    9  A    between atoms: C_8  and  C_9
REMARK   10  A    between atoms: C_9  and  C_10
REMARK                            x       y       z     vdW  Elec       q    Type
REMARK                         _______ _______ _______ _____ _____    ______ ____
ROOT
ATOM      1  N   UNL     1       7.194   4.494  15.656  0.00  0.00    +0.000 N 
ENDROOT
BRANCH   1   2
ATOM      2  N   UNL     1       7.317   5.671  15.077  0.00  0.00    +0.000 NA
ATOM      3  O   UNL     1       8.163   5.617  14.175  0.00  0.00    +0.000 OA
ENDBRANCH   1   2
BRANCH   1   4
ATOM      4  C   UNL     1       7.349   4.530  17.109  0.00  0.00    +0.000 C 
BRANCH   4   5
ATOM      5  C   UNL     1       6.044   4.521  17.918  0.00  0.00    +0.000 C 
BRANCH   5   6
ATOM      6  C   UNL     1       5.435   5.907  18.185  0.00  0.00    +0.000 C 
BRANCH   6   8
ATOM      7  C   UNL     1       3.435   7.400  17.666  0.00  0.00    +0.000 C 
ATOM      8  C   UNL     1       4.104   6.054  17.436  0.00  0.00    +0.000 C 
ENDBRANCH   6   8
ENDBRANCH   5   6
ENDBRANCH   4   5
ENDBRANCH   1   4
BRANCH   1   9
ATOM      9  C   UNL     1       6.093   3.662  15.136  0.00  0.00    +0.000 C 
BRANCH   9  10
ATOM     10  C   UNL     1       5.325   4.059  13.860  0.00  0.00    +0.000 C 
BRANCH  10  11
ATOM     11  C   UNL     1       5.809   3.444  12.544  0.00  0.00    +0.000 C 
ATOM     12  C   UNL     1       4.627   3.200  11.606  0.00  0.00    +0.000 C 
ENDBRANCH  10  11
ENDBRANCH   9  10
ENDBRANCH   1   9
TORSDOF 8
ENDMDL
MODEL 5
REMARK VINA RESULT:      -4.8      1.159      1.259
REMARK  Name = 
REMARK  10 active torsions:
REMARK  status: ('A' for Active; 'I' for Inactive)
REMARK    1  A    between atoms: C_1  and  C_2
REMARK    2  A    between atoms: C_2  and  C_3
REMARK    3  A    between atoms: C_3  and  C_4
REMARK    4  A    between atoms: C_4  and  C_5
REMARK    5  A    between atoms: C_5  and  N_6
REMARK    6  A    between atoms: N_6  and  C_7
REMARK    7  A    between atoms: N_6  and  N_11
REMARK    8  A    between atoms: C_7  and  C_8
REMARK    9  A    between atoms: C_8  and  C_9
REMARK   10  A    between atoms: C_9  and  C_10
REMARK                            x       y       z     vdW  Elec       q    Type
REMARK                         _______ _______ _______ _____ _____    ______ ____
ROOT
ATOM      1  N   UNL     1       5.691   4.899  16.161  0.00  0.00    +0.000 N 
ENDROOT
BRANCH   1   2
ATOM      2  N   UNL     1       6.259   6.080  16.020  0.00  0.00    +0.000 NA
ATOM      3  O   UNL     1       7.489   5.975  16.113  0.00  0.00    +0.000 OA
ENDBRANCH   1   2
BRANCH   1   4
ATOM      4  C   UNL     1       6.106   3.921  15.157  0.00  0.00    +0.000 C 
BRANCH   4   5
ATOM      5  C   UNL     1       5.541   4.134  13.745  0.00  0.00    +0.000 C 
BRANCH   5   6
ATOM      6  C   UNL     1       6.395   3.549  12.608  0.00  0.00    +0.000 C 
BRANCH   6   8
ATOM      7  C   UNL     1       4.189   3.226  11.372  0.00  0.00    +0.000 C 
ATOM      8  C   UNL     1       5.542   2.629  11.726  0.00  0.00    +0.000 C 
ENDBRANCH   6   8
ENDBRANCH   5   6
ENDBRANCH   4   5
ENDBRANCH   1   4
BRANCH   1   9
ATOM      9  C   UNL     1       5.608   4.415  17.551  0.00  0.00    +0.000 C 
BRANCH   9  10
ATOM     10  C   UNL     1       4.248   4.136  18.220  0.00  0.00    +0.000 C 
BRANCH  10  11
ATOM     11  C   UNL     1       4.140   2.857  19.056  0.00  0.00    +0.000 C 
ATOM     12  C   UNL     1       3.453   1.754  18.251  0.00  0.00    +0.000 C 
ENDBRANCH  10  11
ENDBRANCH   9  10
ENDBRANCH   1   9
TORSDOF 8
ENDMDL
MODEL 6
REMARK VINA RESULT:      -4.7      3.392      5.977
REMARK  Name = 
REMARK  10 active torsions:
REMARK  status: ('A' for Active; 'I' for Inactive)
REMARK    1  A    between atoms: C_1  and  C_2
REMARK    2  A    between atoms: C_2  and  C_3
REMARK    3  A    between atoms: C_3  and  C_4
REMARK    4  A    between atoms: C_4  and  C_5
REMARK    5  A    between atoms: C_5  and  N_6
REMARK    6  A    between atoms: N_6  and  C_7
REMARK    7  A    between atoms: N_6  and  N_11
REMARK    8  A    between atoms: C_7  and  C_8
REMARK    9  A    between atoms: C_8  and  C_9
REMARK   10  A    between atoms: C_9  and  C_10
REMARK                            x       y       z     vdW  Elec       q    Type
REMARK                         _______ _______ _______ _____ _____    ______ ____
ROOT
ATOM      1  N   UNL     1       4.599   4.419  18.547  0.00  0.00    +0.000 N 
ENDROOT
BRANCH   1   2
ATOM      2  N   UNL     1       5.620   3.993  19.263  0.00  0.00    +0.000 NA
ATOM      3  O   UNL     1       6.178   4.949  19.820  0.00  0.00    +0.000 OA
ENDBRANCH   1   2
BRANCH   1   4
ATOM      4  C   UNL     1       3.851   5.508  19.172  0.00  0.00    +0.000 C 
BRANCH   4   5
ATOM      5  C   UNL     1       2.329   5.317  19.239  0.00  0.00    +0.000 C 
BRANCH   5   6
ATOM      6  C   UNL     1       1.772   5.023  20.642  0.00  0.00    +0.000 C 
BRANCH   6   8
ATOM      7  C   UNL     1       0.950   2.997  19.331  0.00  0.00    +0.000 C 
ATOM      8  C   UNL     1       1.223   3.591  20.704  0.00  0.00    +0.000 C 
ENDBRANCH   6   8
ENDBRANCH   5   6
ENDBRANCH   4   5
ENDBRANCH   1   4
BRANCH   1   9
ATOM      9  C   UNL     1       4.872   4.558  17.104  0.00  0.00    +0.000 C 
BRANCH   9  10
ATOM     10  C   UNL     1       5.468   5.856  16.524  0.00  0.00    +0.000 C 
BRANCH  10  11
ATOM     11  C   UNL     1       6.992   5.990  16.557  0.00  0.00    +0.000 C 
ATOM     12  C   UNL     1       7.403   7.170  17.437  0.00  0.00    +0.000 C 
ENDBRANCH  10  11
ENDBRANCH   9  10
ENDBRANCH   1   9
TORSDOF 8
ENDMDL
MODEL 7
REMARK VINA RESULT:      -4.7      2.282      5.685
REMARK  Name = 
REMARK  10 active torsions:
REMARK  status: ('A' for Active; 'I' for Inactive)
REMARK    1  A    between atoms: C_1  and  C_2
REMARK    2  A    between atoms: C_2  and  C_3
REMARK    3  A    between atoms: C_3  and  C_4
REMARK    4  A    between atoms: C_4  and  C_5
REMARK    5  A    between atoms: C_5  and  N_6
REMARK    6  A    between atoms: N_6  and  C_7
REMARK    7  A    between atoms: N_6  and  N_11
REMARK    8  A    between atoms: C_7  and  C_8
REMARK    9  A    between atoms: C_8  and  C_9
REMARK   10  A    between atoms: C_9  and  C_10
REMARK                            x       y       z     vdW  Elec       q    Type
REMARK                         _______ _______ _______ _____ _____    ______ ____
ROOT
ATOM      1  N   UNL     1       4.298   3.303  17.766  0.00  0.00    +0.000 N 
ENDROOT
BRANCH   1   2
ATOM      2  N   UNL     1       4.316   3.044  19.057  0.00  0.00    +0.000 NA
ATOM      3  O   UNL     1       5.310   3.564  19.582  0.00  0.00    +0.000 OA
ENDBRANCH   1   2
BRANCH   1   4
ATOM      4  C   UNL     1       2.954   3.466  17.214  0.00  0.00    +0.000 C 
BRANCH   4   5
ATOM      5  C   UNL     1       1.934   4.150  18.137  0.00  0.00    +0.000 C 
BRANCH   5   6
ATOM      6  C   UNL     1       1.009   3.192  18.906  0.00  0.00    +0.000 C 
BRANCH   6   8
ATOM      7  C   UNL     1       1.666   4.897  20.683  0.00  0.00    +0.000 C 
ATOM      8  C   UNL     1       0.948   3.590  20.386  0.00  0.00    +0.000 C 
ENDBRANCH   6   8
ENDBRANCH   5   6
ENDBRANCH   4   5
ENDBRANCH   1   4
BRANCH   1   9
ATOM      9  C   UNL     1       5.312   4.275  17.316  0.00  0.00    +0.000 C 
BRANCH   9  10
ATOM     10  C   UNL     1       4.949   5.417  16.346  0.00  0.00    +0.000 C 
BRANCH  10  11
ATOM     11  C   UNL     1       5.649   5.413  14.984  0.00  0.00    +0.000 C 
ATOM     12  C   UNL     1       6.050   3.989  14.598  0.00  0.00    +0.000 C 
ENDBRANCH  10  11
ENDBRANCH   9  10
ENDBRANCH   1   9
TORSDOF 8
ENDMDL
MODEL 8
REMARK VINA RESULT:      -4.7      1.631      4.945
REMARK  Name = 
REMARK  10 active torsions:
REMARK  status: ('A' for Active; 'I' for Inactive)
REMARK    1  A    between atoms: C_1  and  C_2
REMARK    2  A    between atoms: C_2  and  C_3
REMARK    3  A    between atoms: C_3  and  C_4
REMARK    4  A    between atoms: C_4  and  C_5
REMARK    5  A    between atoms: C_5  and  N_6
REMARK    6  A    between atoms: N_6  and  C_7
REMARK    7  A    between atoms: N_6  and  N_11
REMARK    8  A    between atoms: C_7  and  C_8
REMARK    9  A    between atoms: C_8  and  C_9
REMARK   10  A    between atoms: C_9  and  C_10
REMARK                            x       y       z     vdW  Elec       q    Type
REMARK                         _______ _______ _______ _____ _____    ______ ____
ROOT
ATOM      1  N   UNL     1       6.545   4.621  14.750  0.00  0.00    +0.000 N 
ENDROOT
BRANCH   1   2
ATOM      2  N   UNL     1       7.721   5.205  14.860  0.00  0.00    +0.000 NA
ATOM      3  O   UNL     1       8.066   5.676  13.767  0.00  0.00    +0.000 OA
ENDBRANCH   1   2
BRANCH   1   4
ATOM      4  C   UNL     1       5.423   5.472  15.140  0.00  0.00    +0.000 C 
BRANCH   4   5
ATOM      5  C   UNL     1       5.002   5.387  16.614  0.00  0.00    +0.000 C 
BRANCH   5   6
ATOM      6  C   UNL     1       4.143   4.163  16.975  0.00  0.00    +0.000 C 
BRANCH   6   8
ATOM      7  C   UNL     1       1.702   4.309  17.693  0.00  0.00    +0.000 C 
ATOM      8  C   UNL     1       3.154   4.522  18.091  0.00  0.00    +0.000 C 
ENDBRANCH   6   8
ENDBRANCH   5   6
ENDBRANCH   4   5
ENDBRANCH   1   4
BRANCH   1   9
ATOM      9  C   UNL     1       6.365   3.821  13.524  0.00  0.00    +0.000 C 
BRANCH   9  10
ATOM     10  C   UNL     1       5.109   3.979  12.645  0.00  0.00    +0.000 C 
BRANCH  10  11
ATOM     11  C   UNL     1       4.819   2.854  11.648  0.00  0.00    +0.000 C 
ATOM     12  C   UNL     1       6.054   1.970  11.471  0.00  0.00    +0.000 C 
ENDBRANCH  10  11
ENDBRANCH   9  10
ENDBRANCH   1   9
TORSDOF 8
ENDMDL
MODEL 9
REMARK VINA RESULT:      -4.7      2.761      5.894
REMARK  Name = 
REMARK  10 active torsions:
REMARK  status: ('A' for Active; 'I' for Inactive)
REMARK    1  A    between atoms: C_1  and  C_2
REMARK    2  A    between atoms: C_2  and  C_3
REMARK    3  A    between atoms: C_3  and  C_4
REMARK    4  A    between atoms: C_4  and  C_5
REMARK    5  A    between atoms: C_5  and  N_6
REMARK    6  A    between atoms: N_6  and  C_7
REMARK    7  A    between atoms: N_6  and  N_11
REMARK    8  A    between atoms: C_7  and  C_8
REMARK    9  A    between atoms: C_8  and  C_9
REMARK   10  A    between atoms: C_9  and  C_10
REMARK                            x       y       z     vdW  Elec       q    Type
REMARK                         _______ _______ _______ _____ _____    ______ ____
ROOT
ATOM      1  N   UNL     1       4.579   3.393  18.447  0.00  0.00    +0.000 N 
ENDROOT
BRANCH   1   2
ATOM      2  N   UNL     1       5.204   4.122  19.349  0.00  0.00    +0.000 NA
ATOM      3  O   UNL     1       6.393   4.263  19.034  0.00  0.00    +0.000 OA
ENDBRANCH   1   2
BRANCH   1   4
ATOM      4  C   UNL     1       3.641   2.426  19.014  0.00  0.00    +0.000 C 
BRANCH   4   5
ATOM      5  C   UNL     1       3.157   2.725  20.440  0.00  0.00    +0.000 C 
BRANCH   5   6
ATOM      6  C   UNL     1       1.634   2.646  20.639  0.00  0.00    +0.000 C 
BRANCH   6   8
ATOM      7  C   UNL     1       1.838   5.187  20.612  0.00  0.00    +0.000 C 
ATOM      8  C   UNL     1       0.981   3.981  20.260  0.00  0.00    +0.000 C 
ENDBRANCH   6   8
ENDBRANCH   5   6
ENDBRANCH   4   5
ENDBRANCH   1   4
BRANCH   1   9
ATOM      9  C   UNL     1       4.112   4.141  17.264  0.00  0.00    +0.000 C 
BRANCH   9  10
ATOM     10  C   UNL     1       4.945   4.189  15.969  0.00  0.00    +0.000 C 
BRANCH  10  11
ATOM     11  C   UNL     1       5.476   5.559  15.541  0.00  0.00    +0.000 C 
ATOM     12  C   UNL     1       5.063   6.628  16.553  0.00  0.00    +0.000 C 
ENDBRANCH  10  11
ENDBRANCH   9  10
ENDBRANCH   1   9
TORSDOF 8
ENDMDL
