MODEL 1
REMARK VINA RESULT:      -8.2      0.000      0.000
REMARK  Name = 
REMARK  8 active torsions:
REMARK  status: ('A' for Active; 'I' for Inactive)
REMARK    1  A    between atoms: C_2  and  O_3
REMARK    2  A    between atoms: C_2  and  C_4
REMARK    3  A    between atoms: C_4  and  C_5
REMARK    4  A    between atoms: C_4  and  N_12
REMARK    5  A    between atoms: C_5  and  C_6
REMARK    6  A    between atoms: N_12  and  C_13
REMARK    7  A    between atoms: C_13  and  C_14
REMARK    8  A    between atoms: C_21  and  C_23
REMARK                            x       y       z     vdW  Elec       q    Type
REMARK                         _______ _______ _______ _____ _____    ______ ____
ROOT
ATOM      1  N   UNL     1       4.868   4.526  17.783  0.00  0.00    +0.000 N 
ATOM      2  C   UNL     1       4.057   3.389  17.777  0.00  0.00    +0.000 C 
ATOM      3  O   UNL     1       4.334   2.370  17.125  0.00  0.00    +0.000 OA
ENDROOT
BRANCH   2   4
ATOM      4  C   UNL     1       2.846   3.239  18.618  0.00  0.00    +0.000 A 
ATOM      5  C   UNL     1       1.606   3.377  17.958  0.00  0.00    +0.000 A 
ATOM      6  C   UNL     1       0.416   3.211  18.657  0.00  0.00    +0.000 A 
ATOM      7  C   UNL     1       0.451   2.879  20.004  0.00  0.00    +0.000 A 
ATOM      8  C   UNL     1       1.675   2.765  20.660  0.00  0.00    +0.000 A 
ATOM      9 CL   UNL     1       1.715   2.296  22.317  0.00  0.00    +0.000 Cl
ATOM     10  C   UNL     1       2.868   3.002  19.988  0.00  0.00    +0.000 A 
ENDBRANCH   2   4
BRANCH   1  11
ATOM     11  C   UNL     1       6.029   4.613  16.808  0.00  0.00    +0.000 C 
BRANCH  11  13
ATOM     12  O   UNL     1       7.810   6.213  17.379  0.00  0.00    +0.000 OA
ATOM     13  C   UNL     1       7.386   5.067  17.403  0.00  0.00    +0.000 C 
BRANCH  13  14
ATOM     14  O   UNL     1       8.093   4.067  17.988  0.00  0.00    +0.000 OA
ATOM     15  H   UNL     1       7.716   3.169  17.914  0.00  0.00    +0.000 HD
ENDBRANCH  13  14
ENDBRANCH  11  13
BRANCH  11  16
ATOM     16  C   UNL     1       5.847   5.418  15.481  0.00  0.00    +0.000 C 
BRANCH  16  17
ATOM     17  C   UNL     1       6.221   4.800  14.144  0.00  0.00    +0.000 A 
ATOM     18  C   UNL     1       7.368   5.138  13.412  0.00  0.00    +0.000 A 
ATOM     19  C   UNL     1       7.644   4.522  12.188  0.00  0.00    +0.000 A 
ATOM     20  C   UNL     1       6.788   3.550  11.681  0.00  0.00    +0.000 A 
ATOM     21  C   UNL     1       5.634   3.214  12.384  0.00  0.00    +0.000 A 
ATOM     22  C   UNL     1       5.349   3.842  13.598  0.00  0.00    +0.000 A 
ENDBRANCH  16  17
ENDBRANCH  11  16
ENDBRANCH   1  11
BRANCH   1  23
ATOM     23  C   UNL     1       4.800   5.565  18.845  0.00  0.00    +0.000 C 
BRANCH  23  24
ATOM     24  C   UNL     1       3.657   6.574  18.741  0.00  0.00    +0.000 A 
ATOM     25  C   UNL     1       3.488   7.359  17.583  0.00  0.00    +0.000 A 
ATOM     26  C   UNL     1       2.536   8.390  17.542  0.00  0.00    +0.000 A 
ATOM     27  C   UNL     1       1.748   8.655  18.660  0.00  0.00    +0.000 A 
ATOM     28  C   UNL     1       1.872   7.848  19.786  0.00  0.00    +0.000 A 
ATOM     29 BR   UNL     1       0.814   8.199  21.314  0.00  0.00    +0.000 Br
ATOM     30  C   UNL     1       2.806   6.812  19.828  0.00  0.00    +0.000 A 
ENDBRANCH  23  24
ENDBRANCH   1  23
TORSDOF 8
ENDMDL
MODEL 2
REMARK VINA RESULT:      -8.2      0.169      1.077
REMARK  Name = 
REMARK  8 active torsions:
REMARK  status: ('A' for Active; 'I' for Inactive)
REMARK    1  A    between atoms: C_2  and  O_3
REMARK    2  A    between atoms: C_2  and  C_4
REMARK    3  A    between atoms: C_4  and  C_5
REMARK    4  A    between atoms: C_4  and  N_12
REMARK    5  A    between atoms: C_5  and  C_6
REMARK    6  A    between atoms: N_12  and  C_13
REMARK    7  A    between atoms: C_13  and  C_14
REMARK    8  A    between atoms: C_21  and  C_23
REMARK                            x       y       z     vdW  Elec       q    Type
REMARK                         _______ _______ _______ _____ _____    ______ ____
ROOT
ATOM      1  N   UNL     1       4.844   4.524  17.712  0.00  0.00    +0.000 N 
ATOM      2  C   UNL     1       4.031   3.387  17.727  0.00  0.00    +0.000 C 
ATOM      3  O   UNL     1       4.289   2.368  17.068  0.00  0.00    +0.000 OA
ENDROOT
BRANCH   2   4
ATOM      4  C   UNL     1       2.840   3.240  18.598  0.00  0.00    +0.000 A 
ATOM      5  C   UNL     1       1.585   3.383  17.969  0.00  0.00    +0.000 A 
ATOM      6  C   UNL     1       0.412   3.218  18.698  0.00  0.00    +0.000 A 
ATOM      7  C   UNL     1       0.480   2.884  20.043  0.00  0.00    +0.000 A 
ATOM      8  C   UNL     1       1.720   2.766  20.668  0.00  0.00    +0.000 A 
ATOM      9 CL   UNL     1       1.801   2.294  22.323  0.00  0.00    +0.000 Cl
ATOM     10  C   UNL     1       2.896   3.000  19.966  0.00  0.00    +0.000 A 
ENDBRANCH   2   4
BRANCH   1  11
ATOM     11  C   UNL     1       5.980   4.609  16.708  0.00  0.00    +0.000 C 
BRANCH  11  13
ATOM     12  O   UNL     1       8.081   4.502  17.985  0.00  0.00    +0.000 OA
ATOM     13  C   UNL     1       7.332   5.132  17.254  0.00  0.00    +0.000 C 
BRANCH  13  14
ATOM     14  O   UNL     1       7.646   6.386  16.838  0.00  0.00    +0.000 OA
ATOM     15  H   UNL     1       6.928   6.894  16.412  0.00  0.00    +0.000 HD
ENDBRANCH  13  14
ENDBRANCH  11  13
BRANCH  11  16
ATOM     16  C   UNL     1       5.742   5.352  15.355  0.00  0.00    +0.000 C 
BRANCH  16  17
ATOM     17  C   UNL     1       6.089   4.683  14.034  0.00  0.00    +0.000 A 
ATOM     18  C   UNL     1       5.294   3.714  13.409  0.00  0.00    +0.000 A 
ATOM     19  C   UNL     1       5.680   3.146  12.192  0.00  0.00    +0.000 A 
ATOM     20  C   UNL     1       6.860   3.546  11.573  0.00  0.00    +0.000 A 
ATOM     21  C   UNL     1       7.673   4.494  12.187  0.00  0.00    +0.000 A 
ATOM     22  C   UNL     1       7.295   5.048  13.412  0.00  0.00    +0.000 A 
ENDBRANCH  16  17
ENDBRANCH  11  16
ENDBRANCH   1  11
BRANCH   1  23
ATOM     23  C   UNL     1       4.803   5.562  18.776  0.00  0.00    +0.000 C 
BRANCH  23  24
ATOM     24  C   UNL     1       3.661   6.575  18.699  0.00  0.00    +0.000 A 
ATOM     25  C   UNL     1       3.481   7.378  17.555  0.00  0.00    +0.000 A 
ATOM     26  C   UNL     1       2.530   8.411  17.540  0.00  0.00    +0.000 A 
ATOM     27  C   UNL     1       1.755   8.660  18.670  0.00  0.00    +0.000 A 
ATOM     28  C   UNL     1       1.889   7.836  19.783  0.00  0.00    +0.000 A 
ATOM     29 BR   UNL     1       0.849   8.165  21.327  0.00  0.00    +0.000 Br
ATOM     30  C   UNL     1       2.822   6.798  19.799  0.00  0.00    +0.000 A 
ENDBRANCH  23  24
ENDBRANCH   1  23
TORSDOF 8
ENDMDL
MODEL 3
REMARK VINA RESULT:      -7.3      2.077      4.054
REMARK  Name = 
REMARK  8 active torsions:
REMARK  status: ('A' for Active; 'I' for Inactive)
REMARK    1  A    between atoms: C_2  and  O_3
REMARK    2  A    between atoms: C_2  and  C_4
REMARK    3  A    between atoms: C_4  and  C_5
REMARK    4  A    between atoms: C_4  and  N_12
REMARK    5  A    between atoms: C_5  and  C_6
REMARK    6  A    between atoms: N_12  and  C_13
REMARK    7  A    between atoms: C_13  and  C_14
REMARK    8  A    between atoms: C_21  and  C_23
REMARK                            x       y       z     vdW  Elec       q    Type
REMARK                         _______ _______ _______ _____ _____    ______ ____
ROOT
ATOM      1  N   UNL     1       4.593   5.395  17.247  0.00  0.00    +0.000 N 
ATOM      2  C   UNL     1       4.599   6.752  17.584  0.00  0.00    +0.000 C 
ATOM      3  O   UNL     1       5.562   7.498  17.345  0.00  0.00    +0.000 OA
ENDROOT
BRANCH   2   4
ATOM      4  C   UNL     1       3.434   7.460  18.165  0.00  0.00    +0.000 A 
ATOM      5  C   UNL     1       2.844   8.457  17.359  0.00  0.00    +0.000 A 
ATOM      6  C   UNL     1       1.720   9.145  17.804  0.00  0.00    +0.000 A 
ATOM      7  C   UNL     1       1.163   8.827  19.034  0.00  0.00    +0.000 A 
ATOM      8  C   UNL     1       1.759   7.858  19.839  0.00  0.00    +0.000 A 
ATOM      9 CL   UNL     1       1.030   7.426  21.338  0.00  0.00    +0.000 Cl
ATOM     10  C   UNL     1       2.925   7.218  19.436  0.00  0.00    +0.000 A 
ENDBRANCH   2   4
BRANCH   1  11
ATOM     11  C   UNL     1       5.874   4.748  16.752  0.00  0.00    +0.000 C 
BRANCH  11  13
ATOM     12  O   UNL     1       6.814   4.637  19.023  0.00  0.00    +0.000 OA
ATOM     13  C   UNL     1       6.971   4.508  17.818  0.00  0.00    +0.000 C 
BRANCH  13  14
ATOM     14  O   UNL     1       8.164   4.116  17.302  0.00  0.00    +0.000 OA
ATOM     15  H   UNL     1       8.773   3.659  17.916  0.00  0.00    +0.000 HD
ENDBRANCH  13  14
ENDBRANCH  11  13
BRANCH  11  16
ATOM     16  C   UNL     1       6.602   5.359  15.512  0.00  0.00    +0.000 C 
BRANCH  16  17
ATOM     17  C   UNL     1       6.513   4.684  14.152  0.00  0.00    +0.000 A 
ATOM     18  C   UNL     1       5.509   3.779  13.786  0.00  0.00    +0.000 A 
ATOM     19  C   UNL     1       5.494   3.200  12.514  0.00  0.00    +0.000 A 
ATOM     20  C   UNL     1       6.474   3.527  11.582  0.00  0.00    +0.000 A 
ATOM     21  C   UNL     1       7.491   4.410  11.933  0.00  0.00    +0.000 A 
ATOM     22  C   UNL     1       7.515   4.974  13.210  0.00  0.00    +0.000 A 
ENDBRANCH  16  17
ENDBRANCH  11  16
ENDBRANCH   1  11
BRANCH   1  23
ATOM     23  C   UNL     1       3.344   4.596  17.131  0.00  0.00    +0.000 C 
BRANCH  23  24
ATOM     24  C   UNL     1       2.891   3.849  18.384  0.00  0.00    +0.000 A 
ATOM     25  C   UNL     1       1.610   4.062  18.931  0.00  0.00    +0.000 A 
ATOM     26  C   UNL     1       1.246   3.495  20.163  0.00  0.00    +0.000 A 
ATOM     27  C   UNL     1       2.161   2.715  20.867  0.00  0.00    +0.000 A 
ATOM     28  C   UNL     1       3.408   2.456  20.307  0.00  0.00    +0.000 A 
ATOM     29 BR   UNL     1       4.663   1.405  21.253  0.00  0.00    +0.000 Br
ATOM     30  C   UNL     1       3.770   3.005  19.076  0.00  0.00    +0.000 A 
ENDBRANCH  23  24
ENDBRANCH   1  23
TORSDOF 8
ENDMDL
MODEL 4
REMARK VINA RESULT:      -7.3      2.527      5.816
REMARK  Name = 
REMARK  8 active torsions:
REMARK  status: ('A' for Active; 'I' for Inactive)
REMARK    1  A    between atoms: C_2  and  O_3
REMARK    2  A    between atoms: C_2  and  C_4
REMARK    3  A    between atoms: C_4  and  C_5
REMARK    4  A    between atoms: C_4  and  N_12
REMARK    5  A    between atoms: C_5  and  C_6
REMARK    6  A    between atoms: N_12  and  C_13
REMARK    7  A    between atoms: C_13  and  C_14
REMARK    8  A    between atoms: C_21  and  C_23
REMARK                            x       y       z     vdW  Elec       q    Type
REMARK                         _______ _______ _______ _____ _____    ______ ____
ROOT
ATOM      1  N   UNL     1       5.903   5.239  16.998  0.00  0.00    +0.000 N 
ATOM      2  C   UNL     1       6.933   4.651  16.260  0.00  0.00    +0.000 C 
ATOM      3  O   UNL     1       7.884   4.055  16.790  0.00  0.00    +0.000 OA
ENDROOT
BRANCH   2   4
ATOM      4  C   UNL     1       6.951   4.588  14.779  0.00  0.00    +0.000 A 
ATOM      5  C   UNL     1       7.831   5.477  14.126  0.00  0.00    +0.000 A 
ATOM      6  C   UNL     1       7.947   5.460  12.741  0.00  0.00    +0.000 A 
ATOM      7  C   UNL     1       7.212   4.544  12.001  0.00  0.00    +0.000 A 
ATOM      8  C   UNL     1       6.327   3.682  12.645  0.00  0.00    +0.000 A 
ATOM      9 CL   UNL     1       5.461   2.507  11.729  0.00  0.00    +0.000 Cl
ATOM     10  C   UNL     1       6.149   3.741  14.022  0.00  0.00    +0.000 A 
ENDBRANCH   2   4
BRANCH   1  11
ATOM     11  C   UNL     1       6.035   5.336  18.508  0.00  0.00    +0.000 C 
BRANCH  11  13
ATOM     12  O   UNL     1       7.924   6.914  18.484  0.00  0.00    +0.000 OA
ATOM     13  C   UNL     1       7.333   5.998  19.036  0.00  0.00    +0.000 C 
BRANCH  13  14
ATOM     14  O   UNL     1       7.779   5.478  20.208  0.00  0.00    +0.000 OA
ATOM     15  H   UNL     1       7.327   5.785  21.018  0.00  0.00    +0.000 HD
ENDBRANCH  13  14
ENDBRANCH  11  13
BRANCH  11  16
ATOM     16  C   UNL     1       5.821   4.052  19.372  0.00  0.00    +0.000 C 
BRANCH  16  17
ATOM     17  C   UNL     1       4.505   3.294  19.318  0.00  0.00    +0.000 A 
ATOM     18  C   UNL     1       3.638   3.141  20.407  0.00  0.00    +0.000 A 
ATOM     19  C   UNL     1       2.442   2.429  20.277  0.00  0.00    +0.000 A 
ATOM     20  C   UNL     1       2.086   1.871  19.054  0.00  0.00    +0.000 A 
ATOM     21  C   UNL     1       2.943   1.996  17.964  0.00  0.00    +0.000 A 
ATOM     22  C   UNL     1       4.146   2.691  18.100  0.00  0.00    +0.000 A 
ENDBRANCH  16  17
ENDBRANCH  11  16
ENDBRANCH   1  11
BRANCH   1  23
ATOM     23  C   UNL     1       4.578   5.575  16.414  0.00  0.00    +0.000 C 
BRANCH  23  24
ATOM     24  C   UNL     1       3.656   6.448  17.266  0.00  0.00    +0.000 A 
ATOM     25  C   UNL     1       3.572   7.838  17.048  0.00  0.00    +0.000 A 
ATOM     26  C   UNL     1       2.846   8.662  17.922  0.00  0.00    +0.000 A 
ATOM     27  C   UNL     1       2.203   8.110  19.028  0.00  0.00    +0.000 A 
ATOM     28  C   UNL     1       2.237   6.732  19.217  0.00  0.00    +0.000 A 
ATOM     29 BR   UNL     1       1.375   5.968  20.716  0.00  0.00    +0.000 Br
ATOM     30  C   UNL     1       2.945   5.905  18.344  0.00  0.00    +0.000 A 
ENDBRANCH  23  24
ENDBRANCH   1  23
TORSDOF 8
ENDMDL
MODEL 5
REMARK VINA RESULT:      -7.3      2.464      4.309
REMARK  Name = 
REMARK  8 active torsions:
REMARK  status: ('A' for Active; 'I' for Inactive)
REMARK    1  A    between atoms: C_2  and  O_3
REMARK    2  A    between atoms: C_2  and  C_4
REMARK    3  A    between atoms: C_4  and  C_5
REMARK    4  A    between atoms: C_4  and  N_12
REMARK    5  A    between atoms: C_5  and  C_6
REMARK    6  A    between atoms: N_12  and  C_13
REMARK    7  A    between atoms: C_13  and  C_14
REMARK    8  A    between atoms: C_21  and  C_23
REMARK                            x       y       z     vdW  Elec       q    Type
REMARK                         _______ _______ _______ _____ _____    ______ ____
ROOT
ATOM      1  N   UNL     1       4.439   5.313  17.244  0.00  0.00    +0.000 N 
ATOM      2  C   UNL     1       4.445   6.638  17.687  0.00  0.00    +0.000 C 
ATOM      3  O   UNL     1       5.397   7.409  17.487  0.00  0.00    +0.000 OA
ENDROOT
BRANCH   2   4
ATOM      4  C   UNL     1       3.290   7.289  18.349  0.00  0.00    +0.000 A 
ATOM      5  C   UNL     1       2.961   6.818  19.638  0.00  0.00    +0.000 A 
ATOM      6  C   UNL     1       1.919   7.398  20.353  0.00  0.00    +0.000 A 
ATOM      7  C   UNL     1       1.219   8.464  19.805  0.00  0.00    +0.000 A 
ATOM      8  C   UNL     1       1.530   8.913  18.523  0.00  0.00    +0.000 A 
ATOM      9 CL   UNL     1       0.698  10.274  17.871  0.00  0.00    +0.000 Cl
ATOM     10  C   UNL     1       2.520   8.293  17.771  0.00  0.00    +0.000 A 
ENDBRANCH   2   4
BRANCH   1  11
ATOM     11  C   UNL     1       5.713   4.718  16.669  0.00  0.00    +0.000 C 
BRANCH  11  13
ATOM     12  O   UNL     1       6.742   4.508  18.895  0.00  0.00    +0.000 OA
ATOM     13  C   UNL     1       6.858   4.457  17.679  0.00  0.00    +0.000 C 
BRANCH  13  14
ATOM     14  O   UNL     1       8.044   4.143  17.098  0.00  0.00    +0.000 OA
ATOM     15  H   UNL     1       8.254   3.192  17.027  0.00  0.00    +0.000 HD
ENDBRANCH  13  14
ENDBRANCH  11  13
BRANCH  11  16
ATOM     16  C   UNL     1       6.376   5.399  15.429  0.00  0.00    +0.000 C 
BRANCH  16  17
ATOM     17  C   UNL     1       6.393   4.699  14.080  0.00  0.00    +0.000 A 
ATOM     18  C   UNL     1       5.431   3.770  13.661  0.00  0.00    +0.000 A 
ATOM     19  C   UNL     1       5.515   3.169  12.402  0.00  0.00    +0.000 A 
ATOM     20  C   UNL     1       6.552   3.497  11.535  0.00  0.00    +0.000 A 
ATOM     21  C   UNL     1       7.528   4.403  11.939  0.00  0.00    +0.000 A 
ATOM     22  C   UNL     1       7.454   4.989  13.204  0.00  0.00    +0.000 A 
ENDBRANCH  16  17
ENDBRANCH  11  16
ENDBRANCH   1  11
BRANCH   1  23
ATOM     23  C   UNL     1       3.193   4.516  17.092  0.00  0.00    +0.000 C 
BRANCH  23  24
ATOM     24  C   UNL     1       2.744   3.711  18.310  0.00  0.00    +0.000 A 
ATOM     25  C   UNL     1       1.413   3.775  18.770  0.00  0.00    +0.000 A 
ATOM     26  C   UNL     1       1.035   3.158  19.973  0.00  0.00    +0.000 A 
ATOM     27  C   UNL     1       1.982   2.478  20.735  0.00  0.00    +0.000 A 
ATOM     28  C   UNL     1       3.284   2.364  20.259  0.00  0.00    +0.000 A 
ATOM     29 BR   UNL     1       4.583   1.450  21.285  0.00  0.00    +0.000 Br
ATOM     30  C   UNL     1       3.664   2.962  19.057  0.00  0.00    +0.000 A 
ENDBRANCH  23  24
ENDBRANCH   1  23
TORSDOF 8
ENDMDL
MODEL 6
REMARK VINA RESULT:      -7.2      2.404      4.149
REMARK  Name = 
REMARK  8 active torsions:
REMARK  status: ('A' for Active; 'I' for Inactive)
REMARK    1  A    between atoms: C_2  and  O_3
REMARK    2  A    between atoms: C_2  and  C_4
REMARK    3  A    between atoms: C_4  and  C_5
REMARK    4  A    between atoms: C_4  and  N_12
REMARK    5  A    between atoms: C_5  and  C_6
REMARK    6  A    between atoms: N_12  and  C_13
REMARK    7  A    between atoms: C_13  and  C_14
REMARK    8  A    between atoms: C_21  and  C_23
REMARK                            x       y       z     vdW  Elec       q    Type
REMARK                         _______ _______ _______ _____ _____    ______ ____
ROOT
ATOM      1  N   UNL     1       4.538   5.212  17.098  0.00  0.00    +0.000 N 
ATOM      2  C   UNL     1       4.556   6.513  17.608  0.00  0.00    +0.000 C 
ATOM      3  O   UNL     1       5.515   7.284  17.446  0.00  0.00    +0.000 OA
ENDROOT
BRANCH   2   4
ATOM      4  C   UNL     1       3.407   7.140  18.302  0.00  0.00    +0.000 A 
ATOM      5  C   UNL     1       3.072   6.606  19.565  0.00  0.00    +0.000 A 
ATOM      6  C   UNL     1       2.035   7.159  20.309  0.00  0.00    +0.000 A 
ATOM      7  C   UNL     1       1.346   8.258  19.816  0.00  0.00    +0.000 A 
ATOM      8  C   UNL     1       1.662   8.770  18.559  0.00  0.00    +0.000 A 
ATOM      9 CL   UNL     1       0.844  10.170  17.978  0.00  0.00    +0.000 Cl
ATOM     10  C   UNL     1       2.647   8.180  17.777  0.00  0.00    +0.000 A 
ENDBRANCH   2   4
BRANCH   1  11
ATOM     11  C   UNL     1       5.806   4.635  16.494  0.00  0.00    +0.000 C 
BRANCH  11  13
ATOM     12  O   UNL     1       8.137   4.261  17.187  0.00  0.00    +0.000 OA
ATOM     13  C   UNL     1       6.955   4.328  17.487  0.00  0.00    +0.000 C 
BRANCH  13  14
ATOM     14  O   UNL     1       6.541   4.144  18.766  0.00  0.00    +0.000 OA
ATOM     15  H   UNL     1       6.875   4.783  19.426  0.00  0.00    +0.000 HD
ENDBRANCH  13  14
ENDBRANCH  11  13
BRANCH  11  16
ATOM     16  C   UNL     1       6.466   5.362  15.279  0.00  0.00    +0.000 C 
BRANCH  16  17
ATOM     17  C   UNL     1       6.531   4.690  13.917  0.00  0.00    +0.000 A 
ATOM     18  C   UNL     1       7.513   4.953  12.954  0.00  0.00    +0.000 A 
ATOM     19  C   UNL     1       7.506   4.291  11.723  0.00  0.00    +0.000 A 
ATOM     20  C   UNL     1       6.525   3.346  11.439  0.00  0.00    +0.000 A 
ATOM     21  C   UNL     1       5.529   3.084  12.375  0.00  0.00    +0.000 A 
ATOM     22  C   UNL     1       5.527   3.759  13.597  0.00  0.00    +0.000 A 
ENDBRANCH  16  17
ENDBRANCH  11  16
ENDBRANCH   1  11
BRANCH   1  23
ATOM     23  C   UNL     1       3.285   4.435  16.907  0.00  0.00    +0.000 C 
BRANCH  23  24
ATOM     24  C   UNL     1       2.769   3.660  18.120  0.00  0.00    +0.000 A 
ATOM     25  C   UNL     1       1.413   3.726  18.498  0.00  0.00    +0.000 A 
ATOM     26  C   UNL     1       0.967   3.141  19.693  0.00  0.00    +0.000 A 
ATOM     27  C   UNL     1       1.872   2.491  20.530  0.00  0.00    +0.000 A 
ATOM     28  C   UNL     1       3.201   2.375  20.136  0.00  0.00    +0.000 A 
ATOM     29 BR   UNL     1       4.442   1.502  21.264  0.00  0.00    +0.000 Br
ATOM     30  C   UNL     1       3.648   2.942  18.942  0.00  0.00    +0.000 A 
ENDBRANCH  23  24
ENDBRANCH   1  23
TORSDOF 8
ENDMDL
MODEL 7
REMARK VINA RESULT:      -7.1      2.649      5.836
REMARK  Name = 
REMARK  8 active torsions:
REMARK  status: ('A' for Active; 'I' for Inactive)
REMARK    1  A    between atoms: C_2  and  O_3
REMARK    2  A    between atoms: C_2  and  C_4
REMARK    3  A    between atoms: C_4  and  C_5
REMARK    4  A    between atoms: C_4  and  N_12
REMARK    5  A    between atoms: C_5  and  C_6
REMARK    6  A    between atoms: N_12  and  C_13
REMARK    7  A    between atoms: C_13  and  C_14
REMARK    8  A    between atoms: C_21  and  C_23
REMARK                            x       y       z     vdW  Elec       q    Type
REMARK                         _______ _______ _______ _____ _____    ______ ____
ROOT
ATOM      1  N   UNL     1       6.087   5.558  16.814  0.00  0.00    +0.000 N 
ATOM      2  C   UNL     1       6.976   4.756  16.093  0.00  0.00    +0.000 C 
ATOM      3  O   UNL     1       7.802   4.009  16.640  0.00  0.00    +0.000 OA
ENDROOT
BRANCH   2   4
ATOM      4  C   UNL     1       6.961   4.636  14.616  0.00  0.00    +0.000 A 
ATOM      5  C   UNL     1       7.814   5.510  13.909  0.00  0.00    +0.000 A 
ATOM      6  C   UNL     1       7.899   5.440  12.523  0.00  0.00    +0.000 A 
ATOM      7  C   UNL     1       7.160   4.486  11.837  0.00  0.00    +0.000 A 
ATOM      8  C   UNL     1       6.301   3.639  12.533  0.00  0.00    +0.000 A 
ATOM      9 CL   UNL     1       5.431   2.418  11.684  0.00  0.00    +0.000 Cl
ATOM     10  C   UNL     1       6.154   3.750  13.911  0.00  0.00    +0.000 A 
ENDBRANCH   2   4
BRANCH   1  11
ATOM     11  C   UNL     1       6.257   5.684  18.318  0.00  0.00    +0.000 C 
BRANCH  11  13
ATOM     12  O   UNL     1       8.068   7.350  18.348  0.00  0.00    +0.000 OA
ATOM     13  C   UNL     1       7.582   6.325  18.802  0.00  0.00    +0.000 C 
BRANCH  13  14
ATOM     14  O   UNL     1       8.183   5.650  19.814  0.00  0.00    +0.000 OA
ATOM     15  H   UNL     1       7.875   5.858  20.718  0.00  0.00    +0.000 HD
ENDBRANCH  13  14
ENDBRANCH  11  13
BRANCH  11  16
ATOM     16  C   UNL     1       6.032   4.425  19.215  0.00  0.00    +0.000 C 
BRANCH  16  17
ATOM     17  C   UNL     1       4.777   3.581  19.062  0.00  0.00    +0.000 A 
ATOM     18  C   UNL     1       4.418   2.910  17.886  0.00  0.00    +0.000 A 
ATOM     19  C   UNL     1       3.246   2.150  17.824  0.00  0.00    +0.000 A 
ATOM     20  C   UNL     1       2.422   2.036  18.939  0.00  0.00    +0.000 A 
ATOM     21  C   UNL     1       2.752   2.710  20.111  0.00  0.00    +0.000 A 
ATOM     22  C   UNL     1       3.913   3.484  20.167  0.00  0.00    +0.000 A 
ENDBRANCH  16  17
ENDBRANCH  11  16
ENDBRANCH   1  11
BRANCH   1  23
ATOM     23  C   UNL     1       4.842   6.119  16.226  0.00  0.00    +0.000 C 
BRANCH  23  24
ATOM     24  C   UNL     1       3.824   6.701  17.206  0.00  0.00    +0.000 A 
ATOM     25  C   UNL     1       3.009   5.858  17.988  0.00  0.00    +0.000 A 
ATOM     26  C   UNL     1       1.972   6.383  18.775  0.00  0.00    +0.000 A 
ATOM     27  C   UNL     1       1.731   7.755  18.783  0.00  0.00    +0.000 A 
ATOM     28  C   UNL     1       2.567   8.597  18.057  0.00  0.00    +0.000 A 
ATOM     29 BR   UNL     1       2.249  10.461  18.054  0.00  0.00    +0.000 Br
ATOM     30  C   UNL     1       3.609   8.083  17.284  0.00  0.00    +0.000 A 
ENDBRANCH  23  24
ENDBRANCH   1  23
TORSDOF 8
ENDMDL
MODEL 8
REMARK VINA RESULT:      -7.0      2.885      6.261
REMARK  Name = 
REMARK  8 active torsions:
REMARK  status: ('A' for Active; 'I' for Inactive)
REMARK    1  A    between atoms: C_2  and  O_3
REMARK    2  A    between atoms: C_2  and  C_4
REMARK    3  A    between atoms: C_4  and  C_5
REMARK    4  A    between atoms: C_4  and  N_12
REMARK    5  A    between atoms: C_5  and  C_6
REMARK    6  A    between atoms: N_12  and  C_13
REMARK    7  A    between atoms: C_13  and  C_14
REMARK    8  A    between atoms: C_21  and  C_23
REMARK                            x       y       z     vdW  Elec       q    Type
REMARK                         _______ _______ _______ _____ _____    ______ ____
ROOT
ATOM      1  N   UNL     1       5.731   4.577  16.371  0.00  0.00    +0.000 N 
ATOM      2  C   UNL     1       6.216   4.907  15.103  0.00  0.00    +0.000 C 
ATOM      3  O   UNL     1       7.015   5.837  14.910  0.00  0.00    +0.000 OA
ENDROOT
BRANCH   2   4
ATOM      4  C   UNL     1       5.910   4.130  13.879  0.00  0.00    +0.000 A 
ATOM      5  C   UNL     1       4.566   4.140  13.451  0.00  0.00    +0.000 A 
ATOM      6  C   UNL     1       4.193   3.474  12.288  0.00  0.00    +0.000 A 
ATOM      7  C   UNL     1       5.157   2.821  11.533  0.00  0.00    +0.000 A 
ATOM      8  C   UNL     1       6.480   2.792  11.967  0.00  0.00    +0.000 A 
ATOM      9 CL   UNL     1       7.682   2.031  10.996  0.00  0.00    +0.000 Cl
ATOM     10  C   UNL     1       6.849   3.392  13.166  0.00  0.00    +0.000 A 
ENDBRANCH   2   4
BRANCH   1  11
ATOM     11  C   UNL     1       6.025   5.501  17.540  0.00  0.00    +0.000 C 
BRANCH  11  13
ATOM     12  O   UNL     1       8.047   6.325  18.677  0.00  0.00    +0.000 OA
ATOM     13  C   UNL     1       7.449   5.402  18.145  0.00  0.00    +0.000 C 
BRANCH  13  14
ATOM     14  O   UNL     1       8.002   4.166  18.049  0.00  0.00    +0.000 OA
ATOM     15  H   UNL     1       7.789   3.657  17.243  0.00  0.00    +0.000 HD
ENDBRANCH  13  14
ENDBRANCH  11  13
BRANCH  11  16
ATOM     16  C   UNL     1       5.041   5.527  18.753  0.00  0.00    +0.000 C 
BRANCH  16  17
ATOM     17  C   UNL     1       3.879   6.507  18.785  0.00  0.00    +0.000 A 
ATOM     18  C   UNL     1       2.978   6.626  19.851  0.00  0.00    +0.000 A 
ATOM     19  C   UNL     1       1.934   7.555  19.806  0.00  0.00    +0.000 A 
ATOM     20  C   UNL     1       1.781   8.388  18.703  0.00  0.00    +0.000 A 
ATOM     21  C   UNL     1       2.655   8.272  17.626  0.00  0.00    +0.000 A 
ATOM     22  C   UNL     1       3.687   7.332  17.663  0.00  0.00    +0.000 A 
ENDBRANCH  16  17
ENDBRANCH  11  16
ENDBRANCH   1  11
BRANCH   1  23
ATOM     23  C   UNL     1       5.133   3.254  16.691  0.00  0.00    +0.000 C 
BRANCH  23  24
ATOM     24  C   UNL     1       3.789   3.269  17.418  0.00  0.00    +0.000 A 
ATOM     25  C   UNL     1       2.642   3.814  16.808  0.00  0.00    +0.000 A 
ATOM     26  C   UNL     1       1.445   3.967  17.526  0.00  0.00    +0.000 A 
ATOM     27  C   UNL     1       1.383   3.586  18.865  0.00  0.00    +0.000 A 
ATOM     28  C   UNL     1       2.496   2.997  19.457  0.00  0.00    +0.000 A 
ATOM     29 BR   UNL     1       2.429   2.480  21.274  0.00  0.00    +0.000 Br
ATOM     30  C   UNL     1       3.684   2.828  18.744  0.00  0.00    +0.000 A 
ENDBRANCH  23  24
ENDBRANCH   1  23
TORSDOF 8
ENDMDL
MODEL 9
REMARK VINA RESULT:      -7.0      0.863      1.295
REMARK  Name = 
REMARK  8 active torsions:
REMARK  status: ('A' for Active; 'I' for Inactive)
REMARK    1  A    between atoms: C_2  and  O_3
REMARK    2  A    between atoms: C_2  and  C_4
REMARK    3  A    between atoms: C_4  and  C_5
REMARK    4  A    between atoms: C_4  and  N_12
REMARK    5  A    between atoms: C_5  and  C_6
REMARK    6  A    between atoms: N_12  and  C_13
REMARK    7  A    between atoms: C_13  and  C_14
REMARK    8  A    between atoms: C_21  and  C_23
REMARK                            x       y       z     vdW  Elec       q    Type
REMARK                         _______ _______ _______ _____ _____    ______ ____
ROOT
ATOM      1  N   UNL     1       5.026   4.266  17.896  0.00  0.00    +0.000 N 
ATOM      2  C   UNL     1       4.359   3.063  18.141  0.00  0.00    +0.000 C 
ATOM      3  O   UNL     1       4.634   2.009  17.546  0.00  0.00    +0.000 OA
ENDROOT
BRANCH   2   4
ATOM      4  C   UNL     1       3.331   2.894  19.196  0.00  0.00    +0.000 A 
ATOM      5  C   UNL     1       3.800   2.506  20.469  0.00  0.00    +0.000 A 
ATOM      6  C   UNL     1       2.913   2.364  21.531  0.00  0.00    +0.000 A 
ATOM      7  C   UNL     1       1.565   2.633  21.340  0.00  0.00    +0.000 A 
ATOM      8  C   UNL     1       1.100   2.993  20.078  0.00  0.00    +0.000 A 
ATOM      9 CL   UNL     1      -0.564   3.383  19.860  0.00  0.00    +0.000 Cl
ATOM     10  C   UNL     1       1.966   3.066  18.993  0.00  0.00    +0.000 A 
ENDBRANCH   2   4
BRANCH   1  11
ATOM     11  C   UNL     1       5.989   4.354  16.724  0.00  0.00    +0.000 C 
BRANCH  11  13
ATOM     12  O   UNL     1       7.743   6.079  16.786  0.00  0.00    +0.000 OA
ATOM     13  C   UNL     1       7.390   4.936  17.037  0.00  0.00    +0.000 C 
BRANCH  13  14
ATOM     14  O   UNL     1       8.227   4.059  17.645  0.00  0.00    +0.000 OA
ATOM     15  H   UNL     1       7.818   3.431  18.272  0.00  0.00    +0.000 HD
ENDBRANCH  13  14
ENDBRANCH  11  13
BRANCH  11  16
ATOM     16  C   UNL     1       5.517   5.046  15.405  0.00  0.00    +0.000 C 
BRANCH  16  17
ATOM     17  C   UNL     1       6.027   4.567  14.056  0.00  0.00    +0.000 A 
ATOM     18  C   UNL     1       7.198   5.035  13.445  0.00  0.00    +0.000 A 
ATOM     19  C   UNL     1       7.602   4.543  12.200  0.00  0.00    +0.000 A 
ATOM     20  C   UNL     1       6.853   3.566  11.553  0.00  0.00    +0.000 A 
ATOM     21  C   UNL     1       5.677   3.102  12.135  0.00  0.00    +0.000 A 
ATOM     22  C   UNL     1       5.263   3.607  13.369  0.00  0.00    +0.000 A 
ENDBRANCH  16  17
ENDBRANCH  11  16
ENDBRANCH   1  11
BRANCH   1  23
ATOM     23  C   UNL     1       5.022   5.404  18.853  0.00  0.00    +0.000 C 
BRANCH  23  24
ATOM     24  C   UNL     1       3.864   6.394  18.732  0.00  0.00    +0.000 A 
ATOM     25  C   UNL     1       3.711   7.193  17.581  0.00  0.00    +0.000 A 
ATOM     26  C   UNL     1       2.742   8.207  17.529  0.00  0.00    +0.000 A 
ATOM     27  C   UNL     1       1.919   8.441  18.629  0.00  0.00    +0.000 A 
ATOM     28  C   UNL     1       2.028   7.620  19.747  0.00  0.00    +0.000 A 
ATOM     29 BR   UNL     1       0.923   7.929  21.250  0.00  0.00    +0.000 Br
ATOM     30  C   UNL     1       2.979   6.601  19.799  0.00  0.00    +0.000 A 
ENDBRANCH  23  24
ENDBRANCH   1  23
TORSDOF 8
ENDMDL
