MODEL 1
REMARK VINA RESULT:      -8.6      0.000      0.000
REMARK  Name = 
REMARK  8 active torsions:
REMARK  status: ('A' for Active; 'I' for Inactive)
REMARK    1  A    between atoms: C_1  and  C_2
REMARK    2  A    between atoms: C_2  and  C_24
REMARK    3  A    between atoms: N_3  and  N_4
REMARK    4  A    between atoms: C_5  and  C_7
REMARK    5  A    between atoms: C_7  and  N_8
REMARK    6  A    between atoms: N_8  and  C_9
REMARK    7  A    between atoms: C_13  and  C_14
REMARK    8  A    between atoms: N_16  and  C_17
REMARK                            x       y       z     vdW  Elec       q    Type
REMARK                         _______ _______ _______ _____ _____    ______ ____
ROOT
ATOM      1  N   UNL     1       7.009   4.909  18.241  0.00  0.00    +0.000 N 
ATOM      2  H   UNL     1       7.448   4.017  18.473  0.00  0.00    +0.000 HD
ENDROOT
BRANCH   1   3
ATOM      3  C   UNL     1       5.608   4.781  18.219  0.00  0.00    +0.000 A 
ATOM      4  C   UNL     1       5.028   4.029  17.186  0.00  0.00    +0.000 A 
ATOM      5  C   UNL     1       3.646   3.956  17.037  0.00  0.00    +0.000 A 
ATOM      6  C   UNL     1       2.822   4.681  17.890  0.00  0.00    +0.000 A 
ATOM      7  C   UNL     1       3.368   5.480  18.908  0.00  0.00    +0.000 A 
ATOM      8  C   UNL     1       4.760   5.509  19.070  0.00  0.00    +0.000 A 
BRANCH   7   9
ATOM      9  C   UNL     1       2.409   6.260  19.749  0.00  0.00    +0.000 C 
ATOM     10  O   UNL     1       1.754   5.628  20.577  0.00  0.00    +0.000 OA
ATOM     11  N   UNL     1       2.276   7.619  19.502  0.00  0.00    +0.000 N 
ATOM     12  H   UNL     1       2.720   8.018  18.686  0.00  0.00    +0.000 HD
BRANCH  11  13
ATOM     13  C   UNL     1       1.424   8.503  20.208  0.00  0.00    +0.000 A 
ATOM     14  C   UNL     1       1.174   8.395  21.579  0.00  0.00    +0.000 A 
ATOM     15  C   UNL     1       0.280   9.258  22.215  0.00  0.00    +0.000 A 
ATOM     16  C   UNL     1      -0.364  10.252  21.488  0.00  0.00    +0.000 A 
ATOM     17  C   UNL     1      -0.097  10.398  20.128  0.00  0.00    +0.000 A 
ATOM     18  C   UNL     1       0.801   9.533  19.491  0.00  0.00    +0.000 A 
ENDBRANCH  11  13
ENDBRANCH   7   9
ENDBRANCH   1   3
BRANCH   1  19
ATOM     19  C   UNL     1       7.618   6.007  19.031  0.00  0.00    +0.000 C 
BRANCH  19  21
ATOM     20  N   UNL     1       8.506   8.270  18.938  0.00  0.00    +0.000 N 
ATOM     21  C   UNL     1       7.984   7.232  18.182  0.00  0.00    +0.000 C 
ATOM     22  O   UNL     1       7.830   7.242  16.962  0.00  0.00    +0.000 OA
ATOM     23  H   UNL     1       8.568   8.099  19.938  0.00  0.00    +0.000 HD
BRANCH  20  26
ATOM     24  C   UNL     1       9.262  10.471  20.610  0.00  0.00    +0.000 C 
ATOM     25  C   UNL     1       9.282  10.436  19.093  0.00  0.00    +0.000 C 
ATOM     26  N   UNL     1       8.946   9.413  18.359  0.00  0.00    +0.000 NA
BRANCH  25  27
ATOM     27  C   UNL     1       9.720  11.695  18.388  0.00  0.00    +0.000 A 
ATOM     28  C   UNL     1      10.912  11.753  17.663  0.00  0.00    +0.000 A 
ATOM     29  C   UNL     1      11.265  12.955  17.072  0.00  0.00    +0.000 A 
ATOM     30  N   UNL     1      10.522  14.076  17.151  0.00  0.00    +0.000 NA
ATOM     31  C   UNL     1       9.370  13.996  17.850  0.00  0.00    +0.000 A 
ATOM     32  C   UNL     1       8.930  12.843  18.476  0.00  0.00    +0.000 A 
ENDBRANCH  25  27
ENDBRANCH  20  26
ENDBRANCH  19  21
ENDBRANCH   1  19
TORSDOF 7
ENDMDL
MODEL 2
REMARK VINA RESULT:      -8.1      1.916      2.532
REMARK  Name = 
REMARK  8 active torsions:
REMARK  status: ('A' for Active; 'I' for Inactive)
REMARK    1  A    between atoms: C_1  and  C_2
REMARK    2  A    between atoms: C_2  and  C_24
REMARK    3  A    between atoms: N_3  and  N_4
REMARK    4  A    between atoms: C_5  and  C_7
REMARK    5  A    between atoms: C_7  and  N_8
REMARK    6  A    between atoms: N_8  and  C_9
REMARK    7  A    between atoms: C_13  and  C_14
REMARK    8  A    between atoms: N_16  and  C_17
REMARK                            x       y       z     vdW  Elec       q    Type
REMARK                         _______ _______ _______ _____ _____    ______ ____
ROOT
ATOM      1  N   UNL     1       5.837   4.091  18.851  0.00  0.00    +0.000 N 
ATOM      2  H   UNL     1       6.063   4.018  19.844  0.00  0.00    +0.000 HD
ENDROOT
BRANCH   1   3
ATOM      3  C   UNL     1       4.503   4.503  18.676  0.00  0.00    +0.000 A 
ATOM      4  C   UNL     1       3.663   3.708  17.882  0.00  0.00    +0.000 A 
ATOM      5  C   UNL     1       2.367   4.114  17.574  0.00  0.00    +0.000 A 
ATOM      6  C   UNL     1       1.910   5.351  18.011  0.00  0.00    +0.000 A 
ATOM      7  C   UNL     1       2.738   6.194  18.771  0.00  0.00    +0.000 A 
ATOM      8  C   UNL     1       4.026   5.751  19.108  0.00  0.00    +0.000 A 
BRANCH   7   9
ATOM      9  C   UNL     1       2.181   7.525  19.160  0.00  0.00    +0.000 C 
ATOM     10  O   UNL     1       1.971   7.711  20.359  0.00  0.00    +0.000 OA
ATOM     11  N   UNL     1       1.882   8.431  18.152  0.00  0.00    +0.000 N 
ATOM     12  H   UNL     1       1.919   8.127  17.189  0.00  0.00    +0.000 HD
BRANCH  11  13
ATOM     13  C   UNL     1       1.358   9.733  18.346  0.00  0.00    +0.000 A 
ATOM     14  C   UNL     1       0.007   9.986  18.597  0.00  0.00    +0.000 A 
ATOM     15  C   UNL     1      -0.466  11.294  18.724  0.00  0.00    +0.000 A 
ATOM     16  C   UNL     1       0.412  12.365  18.615  0.00  0.00    +0.000 A 
ATOM     17  C   UNL     1       1.769  12.128  18.402  0.00  0.00    +0.000 A 
ATOM     18  C   UNL     1       2.243  10.817  18.277  0.00  0.00    +0.000 A 
ENDBRANCH  11  13
ENDBRANCH   7   9
ENDBRANCH   1   3
BRANCH   1  19
ATOM     19  C   UNL     1       6.912   4.808  18.124  0.00  0.00    +0.000 C 
BRANCH  19  21
ATOM     20  N   UNL     1       8.058   6.946  18.315  0.00  0.00    +0.000 N 
ATOM     21  C   UNL     1       7.677   5.806  19.005  0.00  0.00    +0.000 C 
ATOM     22  O   UNL     1       7.892   5.583  20.195  0.00  0.00    +0.000 OA
ATOM     23  H   UNL     1       7.800   6.972  17.332  0.00  0.00    +0.000 HD
BRANCH  20  26
ATOM     24  C   UNL     1       7.635   9.618  17.371  0.00  0.00    +0.000 C 
ATOM     25  C   UNL     1       8.529   9.194  18.522  0.00  0.00    +0.000 C 
ATOM     26  N   UNL     1       8.690   7.969  18.938  0.00  0.00    +0.000 NA
BRANCH  25  27
ATOM     27  C   UNL     1       9.294  10.283  19.228  0.00  0.00    +0.000 A 
ATOM     28  C   UNL     1       9.116  10.542  20.590  0.00  0.00    +0.000 A 
ATOM     29  C   UNL     1       9.829  11.583  21.161  0.00  0.00    +0.000 A 
ATOM     30  N   UNL     1      10.692  12.363  20.480  0.00  0.00    +0.000 NA
ATOM     31  C   UNL     1      10.855  12.091  19.169  0.00  0.00    +0.000 A 
ATOM     32  C   UNL     1      10.190  11.074  18.506  0.00  0.00    +0.000 A 
ENDBRANCH  25  27
ENDBRANCH  20  26
ENDBRANCH  19  21
ENDBRANCH   1  19
TORSDOF 7
ENDMDL
MODEL 3
REMARK VINA RESULT:      -8.0      1.497      2.161
REMARK  Name = 
REMARK  8 active torsions:
REMARK  status: ('A' for Active; 'I' for Inactive)
REMARK    1  A    between atoms: C_1  and  C_2
REMARK    2  A    between atoms: C_2  and  C_24
REMARK    3  A    between atoms: N_3  and  N_4
REMARK    4  A    between atoms: C_5  and  C_7
REMARK    5  A    between atoms: C_7  and  N_8
REMARK    6  A    between atoms: N_8  and  C_9
REMARK    7  A    between atoms: C_13  and  C_14
REMARK    8  A    between atoms: N_16  and  C_17
REMARK                            x       y       z     vdW  Elec       q    Type
REMARK                         _______ _______ _______ _____ _____    ______ ____
ROOT
ATOM      1  N   UNL     1       6.237   3.997  18.476  0.00  0.00    +0.000 N 
ATOM      2  H   UNL     1       6.680   3.842  19.383  0.00  0.00    +0.000 HD
ENDROOT
BRANCH   1   3
ATOM      3  C   UNL     1       4.836   4.007  18.604  0.00  0.00    +0.000 A 
ATOM      4  C   UNL     1       4.092   3.122  17.809  0.00  0.00    +0.000 A 
ATOM      5  C   UNL     1       2.701   3.157  17.801  0.00  0.00    +0.000 A 
ATOM      6  C   UNL     1       2.031   4.117  18.550  0.00  0.00    +0.000 A 
ATOM      7  C   UNL     1       2.744   5.048  19.324  0.00  0.00    +0.000 A 
ATOM      8  C   UNL     1       4.144   4.972  19.354  0.00  0.00    +0.000 A 
BRANCH   7   9
ATOM      9  C   UNL     1       1.944   6.073  20.063  0.00  0.00    +0.000 C 
ATOM     10  O   UNL     1       1.177   5.660  20.932  0.00  0.00    +0.000 OA
ATOM     11  N   UNL     1       2.072   7.402  19.683  0.00  0.00    +0.000 N 
ATOM     12  H   UNL     1       2.588   7.628  18.844  0.00  0.00    +0.000 HD
BRANCH  11  13
ATOM     13  C   UNL     1       1.398   8.495  20.280  0.00  0.00    +0.000 A 
ATOM     14  C   UNL     1       0.942   9.602  19.557  0.00  0.00    +0.000 A 
ATOM     15  C   UNL     1       0.334  10.680  20.204  0.00  0.00    +0.000 A 
ATOM     16  C   UNL     1       0.161  10.657  21.582  0.00  0.00    +0.000 A 
ATOM     17  C   UNL     1       0.576   9.545  22.312  0.00  0.00    +0.000 A 
ATOM     18  C   UNL     1       1.184   8.463  21.664  0.00  0.00    +0.000 A 
ENDBRANCH  11  13
ENDBRANCH   7   9
ENDBRANCH   1   3
BRANCH   1  19
ATOM     19  C   UNL     1       6.901   5.113  17.759  0.00  0.00    +0.000 C 
BRANCH  19  21
ATOM     20  N   UNL     1       7.972   7.261  18.154  0.00  0.00    +0.000 N 
ATOM     21  C   UNL     1       7.765   5.993  18.673  0.00  0.00    +0.000 C 
ATOM     22  O   UNL     1       8.192   5.580  19.750  0.00  0.00    +0.000 OA
ATOM     23  H   UNL     1       7.547   7.442  17.249  0.00  0.00    +0.000 HD
BRANCH  20  26
ATOM     24  C   UNL     1       7.801   9.997  17.320  0.00  0.00    +0.000 C 
ATOM     25  C   UNL     1       8.613   9.452  18.481  0.00  0.00    +0.000 C 
ATOM     26  N   UNL     1       8.659   8.202  18.846  0.00  0.00    +0.000 NA
BRANCH  25  27
ATOM     27  C   UNL     1       9.434  10.444  19.263  0.00  0.00    +0.000 A 
ATOM     28  C   UNL     1       9.146  10.748  20.596  0.00  0.00    +0.000 A 
ATOM     29  C   UNL     1       9.924  11.697  21.239  0.00  0.00    +0.000 A 
ATOM     30  N   UNL     1      10.951  12.346  20.654  0.00  0.00    +0.000 NA
ATOM     31  C   UNL     1      11.217  12.031  19.369  0.00  0.00    +0.000 A 
ATOM     32  C   UNL     1      10.500  11.099  18.640  0.00  0.00    +0.000 A 
ENDBRANCH  25  27
ENDBRANCH  20  26
ENDBRANCH  19  21
ENDBRANCH   1  19
TORSDOF 7
ENDMDL
MODEL 4
REMARK VINA RESULT:      -7.9      1.841      7.602
REMARK  Name = 
REMARK  8 active torsions:
REMARK  status: ('A' for Active; 'I' for Inactive)
REMARK    1  A    between atoms: C_1  and  C_2
REMARK    2  A    between atoms: C_2  and  C_24
REMARK    3  A    between atoms: N_3  and  N_4
REMARK    4  A    between atoms: C_5  and  C_7
REMARK    5  A    between atoms: C_7  and  N_8
REMARK    6  A    between atoms: N_8  and  C_9
REMARK    7  A    between atoms: C_13  and  C_14
REMARK    8  A    between atoms: N_16  and  C_17
REMARK                            x       y       z     vdW  Elec       q    Type
REMARK                         _______ _______ _______ _____ _____    ______ ____
ROOT
ATOM      1  N   UNL     1       4.774   3.367  18.090  0.00  0.00    +0.000 N 
ATOM      2  H   UNL     1       4.151   2.901  17.429  0.00  0.00    +0.000 HD
ENDROOT
BRANCH   1   3
ATOM      3  C   UNL     1       5.296   4.548  17.530  0.00  0.00    +0.000 A 
ATOM      4  C   UNL     1       5.041   4.807  16.174  0.00  0.00    +0.000 A 
ATOM      5  C   UNL     1       5.620   5.895  15.528  0.00  0.00    +0.000 A 
ATOM      6  C   UNL     1       6.508   6.714  16.217  0.00  0.00    +0.000 A 
ATOM      7  C   UNL     1       6.820   6.460  17.562  0.00  0.00    +0.000 A 
ATOM      8  C   UNL     1       6.196   5.384  18.210  0.00  0.00    +0.000 A 
BRANCH   7   9
ATOM      9  C   UNL     1       7.819   7.364  18.211  0.00  0.00    +0.000 C 
ATOM     10  O   UNL     1       8.535   6.868  19.080  0.00  0.00    +0.000 OA
ATOM     11  N   UNL     1       7.832   8.701  17.839  0.00  0.00    +0.000 N 
ATOM     12  H   UNL     1       7.091   9.056  17.250  0.00  0.00    +0.000 HD
BRANCH  11  13
ATOM     13  C   UNL     1       8.714   9.686  18.345  0.00  0.00    +0.000 A 
ATOM     14  C   UNL     1       9.013   9.823  19.704  0.00  0.00    +0.000 A 
ATOM     15  C   UNL     1       9.845  10.848  20.156  0.00  0.00    +0.000 A 
ATOM     16  C   UNL     1      10.402  11.743  19.250  0.00  0.00    +0.000 A 
ATOM     17  C   UNL     1      10.144  11.598  17.888  0.00  0.00    +0.000 A 
ATOM     18  C   UNL     1       9.311  10.569  17.435  0.00  0.00    +0.000 A 
ENDBRANCH  11  13
ENDBRANCH   7   9
ENDBRANCH   1   3
BRANCH   1  19
ATOM     19  C   UNL     1       4.155   3.423  19.436  0.00  0.00    +0.000 C 
BRANCH  19  21
ATOM     20  N   UNL     1       3.293   5.612  20.053  0.00  0.00    +0.000 N 
ATOM     21  C   UNL     1       2.958   4.380  19.513  0.00  0.00    +0.000 C 
ATOM     22  O   UNL     1       1.843   4.053  19.112  0.00  0.00    +0.000 OA
ATOM     23  H   UNL     1       4.263   5.721  20.335  0.00  0.00    +0.000 HD
BRANCH  20  26
ATOM     24  C   UNL     1       3.200   7.602  17.992  0.00  0.00    +0.000 C 
ATOM     25  C   UNL     1       2.327   7.540  19.233  0.00  0.00    +0.000 C 
ATOM     26  N   UNL     1       2.383   6.612  20.146  0.00  0.00    +0.000 NA
BRANCH  25  27
ATOM     27  C   UNL     1       1.324   8.649  19.416  0.00  0.00    +0.000 A 
ATOM     28  C   UNL     1       1.007   9.531  18.380  0.00  0.00    +0.000 A 
ATOM     29  C   UNL     1       0.102  10.549  18.635  0.00  0.00    +0.000 A 
ATOM     30  N   UNL     1      -0.498  10.737  19.828  0.00  0.00    +0.000 NA
ATOM     31  C   UNL     1      -0.184   9.869  20.812  0.00  0.00    +0.000 A 
ATOM     32  C   UNL     1       0.708   8.821  20.658  0.00  0.00    +0.000 A 
ENDBRANCH  25  27
ENDBRANCH  20  26
ENDBRANCH  19  21
ENDBRANCH   1  19
TORSDOF 7
ENDMDL
MODEL 5
REMARK VINA RESULT:      -7.8      1.847      7.496
REMARK  Name = 
REMARK  8 active torsions:
REMARK  status: ('A' for Active; 'I' for Inactive)
REMARK    1  A    between atoms: C_1  and  C_2
REMARK    2  A    between atoms: C_2  and  C_24
REMARK    3  A    between atoms: N_3  and  N_4
REMARK    4  A    between atoms: C_5  and  C_7
REMARK    5  A    between atoms: C_7  and  N_8
REMARK    6  A    between atoms: N_8  and  C_9
REMARK    7  A    between atoms: C_13  and  C_14
REMARK    8  A    between atoms: N_16  and  C_17
REMARK                            x       y       z     vdW  Elec       q    Type
REMARK                         _______ _______ _______ _____ _____    ______ ____
ROOT
ATOM      1  N   UNL     1       5.319   3.464  18.884  0.00  0.00    +0.000 N 
ATOM      2  H   UNL     1       5.986   2.692  18.940  0.00  0.00    +0.000 HD
ENDROOT
BRANCH   1   3
ATOM      3  C   UNL     1       5.838   4.509  18.098  0.00  0.00    +0.000 A 
ATOM      4  C   UNL     1       5.782   4.379  16.702  0.00  0.00    +0.000 A 
ATOM      5  C   UNL     1       6.377   5.320  15.866  0.00  0.00    +0.000 A 
ATOM      6  C   UNL     1       7.086   6.380  16.418  0.00  0.00    +0.000 A 
ATOM      7  C   UNL     1       7.201   6.519  17.810  0.00  0.00    +0.000 A 
ATOM      8  C   UNL     1       6.560   5.586  18.638  0.00  0.00    +0.000 A 
BRANCH   7   9
ATOM      9  C   UNL     1       8.020   7.664  18.315  0.00  0.00    +0.000 C 
ATOM     10  O   UNL     1       8.843   7.414  19.195  0.00  0.00    +0.000 OA
ATOM     11  N   UNL     1       7.759   8.930  17.809  0.00  0.00    +0.000 N 
ATOM     12  H   UNL     1       6.947   9.069  17.223  0.00  0.00    +0.000 HD
BRANCH  11  13
ATOM     13  C   UNL     1       8.444  10.116  18.169  0.00  0.00    +0.000 A 
ATOM     14  C   UNL     1       9.384  10.175  19.203  0.00  0.00    +0.000 A 
ATOM     15  C   UNL     1       9.988  11.383  19.555  0.00  0.00    +0.000 A 
ATOM     16  C   UNL     1       9.669  12.547  18.866  0.00  0.00    +0.000 A 
ATOM     17  C   UNL     1       8.762  12.499  17.809  0.00  0.00    +0.000 A 
ATOM     18  C   UNL     1       8.158  11.287  17.455  0.00  0.00    +0.000 A 
ENDBRANCH  11  13
ENDBRANCH   7   9
ENDBRANCH   1   3
BRANCH   1  19
ATOM     19  C   UNL     1       3.958   2.953  18.593  0.00  0.00    +0.000 C 
BRANCH  19  21
ATOM     20  N   UNL     1       3.269   5.087  19.537  0.00  0.00    +0.000 N 
ATOM     21  C   UNL     1       2.864   4.019  18.752  0.00  0.00    +0.000 C 
ATOM     22  O   UNL     1       1.768   3.904  18.208  0.00  0.00    +0.000 OA
ATOM     23  H   UNL     1       4.212   5.026  19.912  0.00  0.00    +0.000 HD
BRANCH  20  26
ATOM     24  C   UNL     1       3.439   7.318  17.747  0.00  0.00    +0.000 C 
ATOM     25  C   UNL     1       2.528   7.192  18.955  0.00  0.00    +0.000 C 
ATOM     26  N   UNL     1       2.463   6.156  19.743  0.00  0.00    +0.000 NA
BRANCH  25  27
ATOM     27  C   UNL     1       1.638   8.368  19.263  0.00  0.00    +0.000 A 
ATOM     28  C   UNL     1       1.155   8.606  20.552  0.00  0.00    +0.000 A 
ATOM     29  C   UNL     1       0.312   9.688  20.750  0.00  0.00    +0.000 A 
ATOM     30  N   UNL     1      -0.068  10.531  19.770  0.00  0.00    +0.000 NA
ATOM     31  C   UNL     1       0.416  10.288  18.535  0.00  0.00    +0.000 A 
ATOM     32  C   UNL     1       1.263   9.235  18.234  0.00  0.00    +0.000 A 
ENDBRANCH  25  27
ENDBRANCH  20  26
ENDBRANCH  19  21
ENDBRANCH   1  19
TORSDOF 7
ENDMDL
MODEL 6
REMARK VINA RESULT:      -7.8      1.977      7.452
REMARK  Name = 
REMARK  8 active torsions:
REMARK  status: ('A' for Active; 'I' for Inactive)
REMARK    1  A    between atoms: C_1  and  C_2
REMARK    2  A    between atoms: C_2  and  C_24
REMARK    3  A    between atoms: N_3  and  N_4
REMARK    4  A    between atoms: C_5  and  C_7
REMARK    5  A    between atoms: C_7  and  N_8
REMARK    6  A    between atoms: N_8  and  C_9
REMARK    7  A    between atoms: C_13  and  C_14
REMARK    8  A    between atoms: N_16  and  C_17
REMARK                            x       y       z     vdW  Elec       q    Type
REMARK                         _______ _______ _______ _____ _____    ______ ____
ROOT
ATOM      1  N   UNL     1       4.774   2.981  17.562  0.00  0.00    +0.000 N 
ATOM      2  H   UNL     1       4.149   2.525  16.895  0.00  0.00    +0.000 HD
ENDROOT
BRANCH   1   3
ATOM      3  C   UNL     1       5.369   4.117  16.985  0.00  0.00    +0.000 A 
ATOM      4  C   UNL     1       5.410   4.205  15.586  0.00  0.00    +0.000 A 
ATOM      5  C   UNL     1       6.084   5.244  14.948  0.00  0.00    +0.000 A 
ATOM      6  C   UNL     1       6.774   6.184  15.705  0.00  0.00    +0.000 A 
ATOM      7  C   UNL     1       6.792   6.102  17.107  0.00  0.00    +0.000 A 
ATOM      8  C   UNL     1       6.074   5.074  17.734  0.00  0.00    +0.000 A 
BRANCH   7   9
ATOM      9  C   UNL     1       7.598   7.129  17.837  0.00  0.00    +0.000 C 
ATOM     10  O   UNL     1       8.227   6.744  18.822  0.00  0.00    +0.000 OA
ATOM     11  N   UNL     1       7.535   8.445  17.399  0.00  0.00    +0.000 N 
ATOM     12  H   UNL     1       6.855   8.698  16.696  0.00  0.00    +0.000 HD
BRANCH  11  13
ATOM     13  C   UNL     1       8.238   9.534  17.969  0.00  0.00    +0.000 A 
ATOM     14  C   UNL     1       8.252  10.814  17.408  0.00  0.00    +0.000 A 
ATOM     15  C   UNL     1       9.009  11.840  17.979  0.00  0.00    +0.000 A 
ATOM     16  C   UNL     1       9.750  11.599  19.130  0.00  0.00    +0.000 A 
ATOM     17  C   UNL     1       9.717  10.338  19.723  0.00  0.00    +0.000 A 
ATOM     18  C   UNL     1       8.957   9.311  19.151  0.00  0.00    +0.000 A 
ENDBRANCH  11  13
ENDBRANCH   7   9
ENDBRANCH   1   3
BRANCH   1  19
ATOM     19  C   UNL     1       4.117   3.107  18.885  0.00  0.00    +0.000 C 
BRANCH  19  21
ATOM     20  N   UNL     1       3.304   5.236  19.736  0.00  0.00    +0.000 N 
ATOM     21  C   UNL     1       3.004   4.164  18.911  0.00  0.00    +0.000 C 
ATOM     22  O   UNL     1       1.980   4.040  18.242  0.00  0.00    +0.000 OA
ATOM     23  H   UNL     1       4.197   5.184  20.220  0.00  0.00    +0.000 HD
BRANCH  20  26
ATOM     24  C   UNL     1       3.445   7.312  17.766  0.00  0.00    +0.000 C 
ATOM     25  C   UNL     1       2.523   7.266  18.970  0.00  0.00    +0.000 C 
ATOM     26  N   UNL     1       2.471   6.300  19.842  0.00  0.00    +0.000 NA
BRANCH  25  27
ATOM     27  C   UNL     1       1.602   8.443  19.168  0.00  0.00    +0.000 A 
ATOM     28  C   UNL     1       1.140   8.809  20.435  0.00  0.00    +0.000 A 
ATOM     29  C   UNL     1       0.268   9.880  20.534  0.00  0.00    +0.000 A 
ATOM     30  N   UNL     1      -0.162  10.597  19.476  0.00  0.00    +0.000 NA
ATOM     31  C   UNL     1       0.302  10.232  18.263  0.00  0.00    +0.000 A 
ATOM     32  C   UNL     1       1.176   9.177  18.060  0.00  0.00    +0.000 A 
ENDBRANCH  25  27
ENDBRANCH  20  26
ENDBRANCH  19  21
ENDBRANCH   1  19
TORSDOF 7
ENDMDL
MODEL 7
REMARK VINA RESULT:      -7.8      3.321      4.026
REMARK  Name = 
REMARK  8 active torsions:
REMARK  status: ('A' for Active; 'I' for Inactive)
REMARK    1  A    between atoms: C_1  and  C_2
REMARK    2  A    between atoms: C_2  and  C_24
REMARK    3  A    between atoms: N_3  and  N_4
REMARK    4  A    between atoms: C_5  and  C_7
REMARK    5  A    between atoms: C_7  and  N_8
REMARK    6  A    between atoms: N_8  and  C_9
REMARK    7  A    between atoms: C_13  and  C_14
REMARK    8  A    between atoms: N_16  and  C_17
REMARK                            x       y       z     vdW  Elec       q    Type
REMARK                         _______ _______ _______ _____ _____    ______ ____
ROOT
ATOM      1  N   UNL     1       7.869   6.917  16.583  0.00  0.00    +0.000 N 
ATOM      2  H   UNL     1       8.732   6.649  17.058  0.00  0.00    +0.000 HD
ENDROOT
BRANCH   1   3
ATOM      3  C   UNL     1       7.104   5.779  16.269  0.00  0.00    +0.000 A 
ATOM      4  C   UNL     1       7.122   5.312  14.946  0.00  0.00    +0.000 A 
ATOM      5  C   UNL     1       6.302   4.263  14.541  0.00  0.00    +0.000 A 
ATOM      6  C   UNL     1       5.408   3.699  15.443  0.00  0.00    +0.000 A 
ATOM      7  C   UNL     1       5.331   4.169  16.764  0.00  0.00    +0.000 A 
ATOM      8  C   UNL     1       6.193   5.198  17.168  0.00  0.00    +0.000 A 
BRANCH   7   9
ATOM      9  C   UNL     1       4.310   3.534  17.654  0.00  0.00    +0.000 C 
ATOM     10  O   UNL     1       3.782   2.500  17.244  0.00  0.00    +0.000 OA
ATOM     11  N   UNL     1       3.984   4.176  18.840  0.00  0.00    +0.000 N 
ATOM     12  H   UNL     1       4.336   5.108  19.009  0.00  0.00    +0.000 HD
BRANCH  11  13
ATOM     13  C   UNL     1       3.049   3.709  19.797  0.00  0.00    +0.000 A 
ATOM     14  C   UNL     1       3.385   2.830  20.830  0.00  0.00    +0.000 A 
ATOM     15  C   UNL     1       2.412   2.356  21.713  0.00  0.00    +0.000 A 
ATOM     16  C   UNL     1       1.092   2.768  21.580  0.00  0.00    +0.000 A 
ATOM     17  C   UNL     1       0.748   3.674  20.578  0.00  0.00    +0.000 A 
ATOM     18  C   UNL     1       1.723   4.150  19.694  0.00  0.00    +0.000 A 
ENDBRANCH  11  13
ENDBRANCH   7   9
ENDBRANCH   1   3
BRANCH   1  19
ATOM     19  C   UNL     1       7.219   8.049  17.287  0.00  0.00    +0.000 C 
BRANCH  19  21
ATOM     20  N   UNL     1       8.267  10.228  17.551  0.00  0.00    +0.000 N 
ATOM     21  C   UNL     1       8.210   8.937  18.052  0.00  0.00    +0.000 C 
ATOM     22  O   UNL     1       8.852   8.511  19.010  0.00  0.00    +0.000 OA
ATOM     23  H   UNL     1       7.669  10.418  16.752  0.00  0.00    +0.000 HD
BRANCH  20  26
ATOM     24  C   UNL     1       7.590  12.988  17.183  0.00  0.00    +0.000 C 
ATOM     25  C   UNL     1       8.766  12.440  17.972  0.00  0.00    +0.000 C 
ATOM     26  N   UNL     1       9.040  11.177  18.133  0.00  0.00    +0.000 NA
BRANCH  25  27
ATOM     27  C   UNL     1       9.689  13.447  18.608  0.00  0.00    +0.000 A 
ATOM     28  C   UNL     1       9.980  14.667  17.992  0.00  0.00    +0.000 A 
ATOM     29  C   UNL     1      10.866  15.527  18.620  0.00  0.00    +0.000 A 
ATOM     30  N   UNL     1      11.464  15.258  19.798  0.00  0.00    +0.000 NA
ATOM     31  C   UNL     1      11.162  14.079  20.380  0.00  0.00    +0.000 A 
ATOM     32  C   UNL     1      10.291  13.152  19.833  0.00  0.00    +0.000 A 
ENDBRANCH  25  27
ENDBRANCH  20  26
ENDBRANCH  19  21
ENDBRANCH   1  19
TORSDOF 7
ENDMDL
MODEL 8
REMARK VINA RESULT:      -7.6      5.054      6.542
REMARK  Name = 
REMARK  8 active torsions:
REMARK  status: ('A' for Active; 'I' for Inactive)
REMARK    1  A    between atoms: C_1  and  C_2
REMARK    2  A    between atoms: C_2  and  C_24
REMARK    3  A    between atoms: N_3  and  N_4
REMARK    4  A    between atoms: C_5  and  C_7
REMARK    5  A    between atoms: C_7  and  N_8
REMARK    6  A    between atoms: N_8  and  C_9
REMARK    7  A    between atoms: C_13  and  C_14
REMARK    8  A    between atoms: N_16  and  C_17
REMARK                            x       y       z     vdW  Elec       q    Type
REMARK                         _______ _______ _______ _____ _____    ______ ____
ROOT
ATOM      1  N   UNL     1       3.461   5.932  20.078  0.00  0.00    +0.000 N 
ATOM      2  H   UNL     1       4.428   6.202  19.890  0.00  0.00    +0.000 HD
ENDROOT
BRANCH   1   3
ATOM      3  C   UNL     1       2.579   6.970  19.727  0.00  0.00    +0.000 A 
ATOM      4  C   UNL     1       2.627   7.465  18.416  0.00  0.00    +0.000 A 
ATOM      5  C   UNL     1       1.865   8.565  18.032  0.00  0.00    +0.000 A 
ATOM      6  C   UNL     1       1.081   9.222  18.974  0.00  0.00    +0.000 A 
ATOM      7  C   UNL     1       1.041   8.781  20.306  0.00  0.00    +0.000 A 
ATOM      8  C   UNL     1       1.782   7.646  20.666  0.00  0.00    +0.000 A 
BRANCH   7   9
ATOM      9  C   UNL     1       0.206   9.574  21.261  0.00  0.00    +0.000 C 
ATOM     10  O   UNL     1      -0.433   8.940  22.099  0.00  0.00    +0.000 OA
ATOM     11  N   UNL     1       0.159  10.952  21.102  0.00  0.00    +0.000 N 
ATOM     12  H   UNL     1       0.573  11.368  20.279  0.00  0.00    +0.000 HD
BRANCH  11  13
ATOM     13  C   UNL     1      -0.571  11.848  21.920  0.00  0.00    +0.000 A 
ATOM     14  C   UNL     1      -1.687  11.467  22.669  0.00  0.00    +0.000 A 
ATOM     15  C   UNL     1      -2.406  12.404  23.414  0.00  0.00    +0.000 A 
ATOM     16  C   UNL     1      -2.006  13.735  23.430  0.00  0.00    +0.000 A 
ATOM     17  C   UNL     1      -0.873  14.125  22.718  0.00  0.00    +0.000 A 
ATOM     18  C   UNL     1      -0.151  13.185  21.973  0.00  0.00    +0.000 A 
ENDBRANCH  11  13
ENDBRANCH   7   9
ENDBRANCH   1   3
BRANCH   1  19
ATOM     19  C   UNL     1       3.198   4.563  19.572  0.00  0.00    +0.000 C 
BRANCH  19  21
ATOM     20  N   UNL     1       3.733   4.333  17.210  0.00  0.00    +0.000 N 
ATOM     21  C   UNL     1       4.197   4.111  18.497  0.00  0.00    +0.000 C 
ATOM     22  O   UNL     1       5.287   3.626  18.792  0.00  0.00    +0.000 OA
ATOM     23  H   UNL     1       2.806   4.744  17.140  0.00  0.00    +0.000 HD
BRANCH  20  26
ATOM     24  C   UNL     1       5.207   6.456  15.973  0.00  0.00    +0.000 C 
ATOM     25  C   UNL     1       5.168   5.003  15.534  0.00  0.00    +0.000 C 
ATOM     26  N   UNL     1       4.498   4.056  16.127  0.00  0.00    +0.000 NA
BRANCH  25  27
ATOM     27  C   UNL     1       5.965   4.641  14.308  0.00  0.00    +0.000 A 
ATOM     28  C   UNL     1       7.202   5.231  14.035  0.00  0.00    +0.000 A 
ATOM     29  C   UNL     1       7.860   4.873  12.869  0.00  0.00    +0.000 A 
ATOM     30  N   UNL     1       7.378   3.981  11.980  0.00  0.00    +0.000 NA
ATOM     31  C   UNL     1       6.186   3.418  12.267  0.00  0.00    +0.000 A 
ATOM     32  C   UNL     1       5.452   3.708  13.404  0.00  0.00    +0.000 A 
ENDBRANCH  25  27
ENDBRANCH  20  26
ENDBRANCH  19  21
ENDBRANCH   1  19
TORSDOF 7
ENDMDL
MODEL 9
REMARK VINA RESULT:      -7.6      5.818     10.049
REMARK  Name = 
REMARK  8 active torsions:
REMARK  status: ('A' for Active; 'I' for Inactive)
REMARK    1  A    between atoms: C_1  and  C_2
REMARK    2  A    between atoms: C_2  and  C_24
REMARK    3  A    between atoms: N_3  and  N_4
REMARK    4  A    between atoms: C_5  and  C_7
REMARK    5  A    between atoms: C_7  and  N_8
REMARK    6  A    between atoms: N_8  and  C_9
REMARK    7  A    between atoms: C_13  and  C_14
REMARK    8  A    between atoms: N_16  and  C_17
REMARK                            x       y       z     vdW  Elec       q    Type
REMARK                         _______ _______ _______ _____ _____    ______ ____
ROOT
ATOM      1  N   UNL     1      -0.282  10.484  22.594  0.00  0.00    +0.000 N 
ATOM      2  H   UNL     1      -0.106  10.446  23.599  0.00  0.00    +0.000 HD
ENDROOT
BRANCH   1   3
ATOM      3  C   UNL     1      -0.799  11.741  22.230  0.00  0.00    +0.000 A 
ATOM      4  C   UNL     1      -1.958  12.194  22.878  0.00  0.00    +0.000 A 
ATOM      5  C   UNL     1      -2.587  13.373  22.488  0.00  0.00    +0.000 A 
ATOM      6  C   UNL     1      -2.094  14.091  21.405  0.00  0.00    +0.000 A 
ATOM      7  C   UNL     1      -0.962  13.645  20.704  0.00  0.00    +0.000 A 
ATOM      8  C   UNL     1      -0.316  12.478  21.136  0.00  0.00    +0.000 A 
BRANCH   7   9
ATOM      9  C   UNL     1      -0.529  14.456  19.524  0.00  0.00    +0.000 C 
ATOM     10  O   UNL     1      -0.293  13.841  18.484  0.00  0.00    +0.000 OA
ATOM     11  N   UNL     1      -0.364  15.823  19.693  0.00  0.00    +0.000 N 
ATOM     12  H   UNL     1      -0.407  16.214  20.625  0.00  0.00    +0.000 HD
BRANCH  11  13
ATOM     13  C   UNL     1       0.031  16.734  18.683  0.00  0.00    +0.000 A 
ATOM     14  C   UNL     1      -0.867  17.571  18.013  0.00  0.00    +0.000 A 
ATOM     15  C   UNL     1      -0.433  18.410  16.984  0.00  0.00    +0.000 A 
ATOM     16  C   UNL     1       0.908  18.432  16.623  0.00  0.00    +0.000 A 
ATOM     17  C   UNL     1       1.822  17.632  17.307  0.00  0.00    +0.000 A 
ATOM     18  C   UNL     1       1.388  16.792  18.339  0.00  0.00    +0.000 A 
ENDBRANCH  11  13
ENDBRANCH   7   9
ENDBRANCH   1   3
BRANCH   1  19
ATOM     19  C   UNL     1       0.874   9.937  21.844  0.00  0.00    +0.000 C 
BRANCH  19  21
ATOM     20  N   UNL     1       1.819   7.911  20.885  0.00  0.00    +0.000 N 
ATOM     21  C   UNL     1       0.658   8.494  21.366  0.00  0.00    +0.000 C 
ATOM     22  O   UNL     1      -0.442   7.948  21.438  0.00  0.00    +0.000 OA
ATOM     23  H   UNL     1       2.646   8.502  20.896  0.00  0.00    +0.000 HD
BRANCH  20  26
ATOM     24  C   UNL     1       2.636   7.320  18.203  0.00  0.00    +0.000 C 
ATOM     25  C   UNL     1       2.196   6.321  19.257  0.00  0.00    +0.000 C 
ATOM     26  N   UNL     1       1.843   6.620  20.475  0.00  0.00    +0.000 NA
BRANCH  25  27
ATOM     27  C   UNL     1       2.158   4.871  18.848  0.00  0.00    +0.000 A 
ATOM     28  C   UNL     1       2.907   4.393  17.770  0.00  0.00    +0.000 A 
ATOM     29  C   UNL     1       2.793   3.054  17.431  0.00  0.00    +0.000 A 
ATOM     30  N   UNL     1       2.004   2.180  18.086  0.00  0.00    +0.000 NA
ATOM     31  C   UNL     1       1.296   2.661  19.130  0.00  0.00    +0.000 A 
ATOM     32  C   UNL     1       1.340   3.980  19.546  0.00  0.00    +0.000 A 
ENDBRANCH  25  27
ENDBRANCH  20  26
ENDBRANCH  19  21
ENDBRANCH   1  19
TORSDOF 7
ENDMDL
