MODEL 1
REMARK VINA RESULT:      -7.4      0.000      0.000
REMARK  Name = 
REMARK  9 active torsions:
REMARK  status: ('A' for Active; 'I' for Inactive)
REMARK    1  A    between atoms: C_1  and  O_2
REMARK    2  A    between atoms: O_2  and  C_3
REMARK    3  A    between atoms: C_5  and  C_6
REMARK    4  A    between atoms: C_9  and  C_10
REMARK    5  A    between atoms: C_10  and  N_11
REMARK    6  A    between atoms: N_14  and  C_15
REMARK    7  A    between atoms: C_15  and  C_16
REMARK    8  A    between atoms: C_15  and  C_22
REMARK    9  A    between atoms: C_19  and  C_20
REMARK                            x       y       z     vdW  Elec       q    Type
REMARK                         _______ _______ _______ _____ _____    ______ ____
ROOT
ATOM      1  N   UNL     1       8.181   9.066  18.036  0.00  0.00    +0.000 N 
ATOM      2  C   UNL     1       7.798   7.751  18.031  0.00  0.00    +0.000 C 
ATOM      3  O   UNL     1       8.198   6.926  18.841  0.00  0.00    +0.000 OA
ATOM      4  N   UNL     1       6.917   7.458  17.031  0.00  0.00    +0.000 N 
ATOM      5  H   UNL     1       8.171   9.531  17.139  0.00  0.00    +0.000 HD
ATOM      6  H   UNL     1       6.472   8.200  16.512  0.00  0.00    +0.000 HD
ENDROOT
BRANCH   1   7
ATOM      7  C   UNL     1       9.207   9.490  18.974  0.00  0.00    +0.000 C 
BRANCH   7  14
ATOM      8  C   UNL     1       9.435  11.812  19.917  0.00  0.00    +0.000 A 
ATOM      9  N   UNL     1       9.734  13.131  19.878  0.00  0.00    +0.000 NA
ATOM     10  C   UNL     1      10.170  13.640  18.706  0.00  0.00    +0.000 A 
ATOM     11  C   UNL     1      10.459  15.109  18.664  0.00  0.00    +0.000 C 
ATOM     12  C   UNL     1      10.302  12.862  17.560  0.00  0.00    +0.000 A 
ATOM     13  C   UNL     1      10.020  11.499  17.636  0.00  0.00    +0.000 A 
ATOM     14  C   UNL     1       9.605  10.936  18.846  0.00  0.00    +0.000 A 
BRANCH   8  16
ATOM     15  C   UNL     1       8.905  12.251  22.144  0.00  0.00    +0.000 C 
ATOM     16  O   UNL     1       8.899  11.300  21.083  0.00  0.00    +0.000 OA
ENDBRANCH   8  16
ENDBRANCH   7  14
ENDBRANCH   1   7
BRANCH   4  17
ATOM     17  C   UNL     1       6.331   6.128  16.915  0.00  0.00    +0.000 C 
BRANCH  17  18
ATOM     18  C   UNL     1       5.022   6.120  17.684  0.00  0.00    +0.000 A 
ATOM     19  N   UNL     1       3.994   6.915  17.439  0.00  0.00    +0.000 NA
ATOM     20  C   UNL     1       2.980   6.659  18.344  0.00  0.00    +0.000 A 
ATOM     21  C   UNL     1       3.245   5.687  19.286  0.00  0.00    +0.000 A 
ATOM     22  C   UNL     1       2.402   5.200  20.410  0.00  0.00    +0.000 C 
ATOM     23  S   UNL     1       4.805   5.037  19.009  0.00  0.00    +0.000 S 
ENDBRANCH  17  18
BRANCH  17  24
ATOM     24  C   UNL     1       6.193   5.814  15.441  0.00  0.00    +0.000 C 
ATOM     25  C   UNL     1       6.962   4.655  14.845  0.00  0.00    +0.000 C 
ATOM     26  C   UNL     1       5.469   4.571  14.976  0.00  0.00    +0.000 C 
ENDBRANCH  17  24
ENDBRANCH   4  17
TORSDOF 6
ENDMDL
MODEL 2
REMARK VINA RESULT:      -7.3      1.456      1.668
REMARK  Name = 
REMARK  9 active torsions:
REMARK  status: ('A' for Active; 'I' for Inactive)
REMARK    1  A    between atoms: C_1  and  O_2
REMARK    2  A    between atoms: O_2  and  C_3
REMARK    3  A    between atoms: C_5  and  C_6
REMARK    4  A    between atoms: C_9  and  C_10
REMARK    5  A    between atoms: C_10  and  N_11
REMARK    6  A    between atoms: N_14  and  C_15
REMARK    7  A    between atoms: C_15  and  C_16
REMARK    8  A    between atoms: C_15  and  C_22
REMARK    9  A    between atoms: C_19  and  C_20
REMARK                            x       y       z     vdW  Elec       q    Type
REMARK                         _______ _______ _______ _____ _____    ______ ____
ROOT
ATOM      1  N   UNL     1       8.178   9.297  17.883  0.00  0.00    +0.000 N 
ATOM      2  C   UNL     1       7.867   7.964  17.934  0.00  0.00    +0.000 C 
ATOM      3  O   UNL     1       8.215   7.222  18.843  0.00  0.00    +0.000 OA
ATOM      4  N   UNL     1       7.123   7.551  16.868  0.00  0.00    +0.000 N 
ATOM      5  H   UNL     1       8.246   9.699  16.959  0.00  0.00    +0.000 HD
ATOM      6  H   UNL     1       6.702   8.228  16.249  0.00  0.00    +0.000 HD
ENDROOT
BRANCH   1   7
ATOM      7  C   UNL     1       9.067   9.846  18.895  0.00  0.00    +0.000 C 
BRANCH   7  14
ATOM      8  C   UNL     1       9.205  12.107  17.799  0.00  0.00    +0.000 A 
ATOM      9  N   UNL     1       9.833  13.212  17.334  0.00  0.00    +0.000 NA
ATOM     10  C   UNL     1      11.176  13.266  17.454  0.00  0.00    +0.000 A 
ATOM     11  C   UNL     1      11.865  14.475  16.900  0.00  0.00    +0.000 C 
ATOM     12  C   UNL     1      11.916  12.230  18.017  0.00  0.00    +0.000 A 
ATOM     13  C   UNL     1      11.242  11.118  18.520  0.00  0.00    +0.000 A 
ATOM     14  C   UNL     1       9.847  11.052  18.446  0.00  0.00    +0.000 A 
BRANCH   8  16
ATOM     15  C   UNL     1       7.221  13.269  17.413  0.00  0.00    +0.000 C 
ATOM     16  O   UNL     1       7.843  11.999  17.598  0.00  0.00    +0.000 OA
ENDBRANCH   8  16
ENDBRANCH   7  14
ENDBRANCH   1   7
BRANCH   4  17
ATOM     17  C   UNL     1       6.624   6.184  16.787  0.00  0.00    +0.000 C 
BRANCH  17  18
ATOM     18  C   UNL     1       5.331   6.105  17.581  0.00  0.00    +0.000 A 
ATOM     19  N   UNL     1       4.288   6.900  17.409  0.00  0.00    +0.000 NA
ATOM     20  C   UNL     1       3.297   6.568  18.315  0.00  0.00    +0.000 A 
ATOM     21  C   UNL     1       3.594   5.539  19.184  0.00  0.00    +0.000 A 
ATOM     22  C   UNL     1       2.781   4.966  20.289  0.00  0.00    +0.000 C 
ATOM     23  S   UNL     1       5.157   4.932  18.833  0.00  0.00    +0.000 S 
ENDBRANCH  17  18
BRANCH  17  24
ATOM     24  C   UNL     1       6.483   5.832  15.323  0.00  0.00    +0.000 C 
ATOM     25  C   UNL     1       7.040   4.523  14.808  0.00  0.00    +0.000 C 
ATOM     26  C   UNL     1       5.554   4.725  14.875  0.00  0.00    +0.000 C 
ENDBRANCH  17  24
ENDBRANCH   4  17
TORSDOF 6
ENDMDL
MODEL 3
REMARK VINA RESULT:      -7.2      0.945      1.059
REMARK  Name = 
REMARK  9 active torsions:
REMARK  status: ('A' for Active; 'I' for Inactive)
REMARK    1  A    between atoms: C_1  and  O_2
REMARK    2  A    between atoms: O_2  and  C_3
REMARK    3  A    between atoms: C_5  and  C_6
REMARK    4  A    between atoms: C_9  and  C_10
REMARK    5  A    between atoms: C_10  and  N_11
REMARK    6  A    between atoms: N_14  and  C_15
REMARK    7  A    between atoms: C_15  and  C_16
REMARK    8  A    between atoms: C_15  and  C_22
REMARK    9  A    between atoms: C_19  and  C_20
REMARK                            x       y       z     vdW  Elec       q    Type
REMARK                         _______ _______ _______ _____ _____    ______ ____
ROOT
ATOM      1  N   UNL     1       8.135   8.878  18.090  0.00  0.00    +0.000 N 
ATOM      2  C   UNL     1       7.901   7.530  18.020  0.00  0.00    +0.000 C 
ATOM      3  O   UNL     1       8.295   6.730  18.859  0.00  0.00    +0.000 OA
ATOM      4  N   UNL     1       7.176   7.173  16.922  0.00  0.00    +0.000 N 
ATOM      5  H   UNL     1       8.176   9.364  17.205  0.00  0.00    +0.000 HD
ATOM      6  H   UNL     1       6.715   7.877  16.366  0.00  0.00    +0.000 HD
ENDROOT
BRANCH   1   7
ATOM      7  C   UNL     1       8.997   9.383  19.147  0.00  0.00    +0.000 C 
BRANCH   7  14
ATOM      8  C   UNL     1       9.416  11.741  19.920  0.00  0.00    +0.000 A 
ATOM      9  N   UNL     1       9.820  13.025  19.786  0.00  0.00    +0.000 NA
ATOM     10  C   UNL     1      10.288  13.412  18.581  0.00  0.00    +0.000 A 
ATOM     11  C   UNL     1      10.695  14.846  18.433  0.00  0.00    +0.000 C 
ATOM     12  C   UNL     1      10.350  12.546  17.494  0.00  0.00    +0.000 A 
ATOM     13  C   UNL     1       9.960  11.219  17.667  0.00  0.00    +0.000 A 
ATOM     14  C   UNL     1       9.508  10.779  18.915  0.00  0.00    +0.000 A 
BRANCH   8  16
ATOM     15  C   UNL     1       9.056  12.323  22.149  0.00  0.00    +0.000 C 
ATOM     16  O   UNL     1       8.849  11.358  21.120  0.00  0.00    +0.000 OA
ENDBRANCH   8  16
ENDBRANCH   7  14
ENDBRANCH   1   7
BRANCH   4  17
ATOM     17  C   UNL     1       6.755   5.792  16.718  0.00  0.00    +0.000 C 
BRANCH  17  18
ATOM     18  C   UNL     1       5.728   5.449  17.783  0.00  0.00    +0.000 A 
ATOM     19  N   UNL     1       5.846   4.467  18.660  0.00  0.00    +0.000 NA
ATOM     20  C   UNL     1       4.719   4.421  19.461  0.00  0.00    +0.000 A 
ATOM     21  C   UNL     1       3.741   5.351  19.180  0.00  0.00    +0.000 A 
ATOM     22  C   UNL     1       2.410   5.550  19.812  0.00  0.00    +0.000 C 
ATOM     23  S   UNL     1       4.262   6.351  17.890  0.00  0.00    +0.000 S 
ENDBRANCH  17  18
BRANCH  17  24
ATOM     24  C   UNL     1       6.250   5.670  15.297  0.00  0.00    +0.000 C 
ATOM     25  C   UNL     1       6.938   4.730  14.333  0.00  0.00    +0.000 C 
ATOM     26  C   UNL     1       5.556   4.413  14.824  0.00  0.00    +0.000 C 
ENDBRANCH  17  24
ENDBRANCH   4  17
TORSDOF 6
ENDMDL
MODEL 4
REMARK VINA RESULT:      -7.1      4.907      7.269
REMARK  Name = 
REMARK  9 active torsions:
REMARK  status: ('A' for Active; 'I' for Inactive)
REMARK    1  A    between atoms: C_1  and  O_2
REMARK    2  A    between atoms: O_2  and  C_3
REMARK    3  A    between atoms: C_5  and  C_6
REMARK    4  A    between atoms: C_9  and  C_10
REMARK    5  A    between atoms: C_10  and  N_11
REMARK    6  A    between atoms: N_14  and  C_15
REMARK    7  A    between atoms: C_15  and  C_16
REMARK    8  A    between atoms: C_15  and  C_22
REMARK    9  A    between atoms: C_19  and  C_20
REMARK                            x       y       z     vdW  Elec       q    Type
REMARK                         _______ _______ _______ _____ _____    ______ ____
ROOT
ATOM      1  N   UNL     1       3.988   4.150  17.144  0.00  0.00    +0.000 N 
ATOM      2  C   UNL     1       3.810   4.423  18.474  0.00  0.00    +0.000 C 
ATOM      3  O   UNL     1       4.599   4.083  19.347  0.00  0.00    +0.000 OA
ATOM      4  N   UNL     1       2.665   5.120  18.725  0.00  0.00    +0.000 N 
ATOM      5  H   UNL     1       3.145   4.064  16.595  0.00  0.00    +0.000 HD
ATOM      6  H   UNL     1       2.149   5.540  17.966  0.00  0.00    +0.000 HD
ENDROOT
BRANCH   1   7
ATOM      7  C   UNL     1       5.108   3.311  16.747  0.00  0.00    +0.000 C 
BRANCH   7  14
ATOM      8  C   UNL     1       6.905   4.855  15.899  0.00  0.00    +0.000 A 
ATOM      9  N   UNL     1       7.676   5.442  14.955  0.00  0.00    +0.000 NA
ATOM     10  C   UNL     1       7.459   5.102  13.668  0.00  0.00    +0.000 A 
ATOM     11  C   UNL     1       8.291   5.788  12.629  0.00  0.00    +0.000 C 
ATOM     12  C   UNL     1       6.473   4.194  13.294  0.00  0.00    +0.000 A 
ATOM     13  C   UNL     1       5.715   3.577  14.288  0.00  0.00    +0.000 A 
ATOM     14  C   UNL     1       5.945   3.879  15.634  0.00  0.00    +0.000 A 
BRANCH   8  16
ATOM     15  C   UNL     1       7.232   6.674  17.320  0.00  0.00    +0.000 C 
ATOM     16  O   UNL     1       7.054   5.264  17.210  0.00  0.00    +0.000 OA
ENDBRANCH   8  16
ENDBRANCH   7  14
ENDBRANCH   1   7
BRANCH   4  17
ATOM     17  C   UNL     1       2.344   5.576  20.072  0.00  0.00    +0.000 C 
BRANCH  17  18
ATOM     18  C   UNL     1       1.934   7.036  19.992  0.00  0.00    +0.000 A 
ATOM     19  N   UNL     1       1.332   7.707  20.958  0.00  0.00    +0.000 NA
ATOM     20  C   UNL     1       1.080   9.001  20.540  0.00  0.00    +0.000 A 
ATOM     21  C   UNL     1       1.472   9.305  19.253  0.00  0.00    +0.000 A 
ATOM     22  C   UNL     1       1.318  10.571  18.488  0.00  0.00    +0.000 C 
ATOM     23  S   UNL     1       2.220   7.935  18.548  0.00  0.00    +0.000 S 
ENDBRANCH  17  18
BRANCH  17  24
ATOM     24  C   UNL     1       1.280   4.656  20.628  0.00  0.00    +0.000 C 
ATOM     25  C   UNL     1       0.984   3.344  19.934  0.00  0.00    +0.000 C 
ATOM     26  C   UNL     1       1.651   3.342  21.279  0.00  0.00    +0.000 C 
ENDBRANCH  17  24
ENDBRANCH   4  17
TORSDOF 6
ENDMDL
MODEL 5
REMARK VINA RESULT:      -7.1      4.964      7.232
REMARK  Name = 
REMARK  9 active torsions:
REMARK  status: ('A' for Active; 'I' for Inactive)
REMARK    1  A    between atoms: C_1  and  O_2
REMARK    2  A    between atoms: O_2  and  C_3
REMARK    3  A    between atoms: C_5  and  C_6
REMARK    4  A    between atoms: C_9  and  C_10
REMARK    5  A    between atoms: C_10  and  N_11
REMARK    6  A    between atoms: N_14  and  C_15
REMARK    7  A    between atoms: C_15  and  C_16
REMARK    8  A    between atoms: C_15  and  C_22
REMARK    9  A    between atoms: C_19  and  C_20
REMARK                            x       y       z     vdW  Elec       q    Type
REMARK                         _______ _______ _______ _____ _____    ______ ____
ROOT
ATOM      1  N   UNL     1       4.076   4.271  17.185  0.00  0.00    +0.000 N 
ATOM      2  C   UNL     1       3.990   4.808  18.442  0.00  0.00    +0.000 C 
ATOM      3  O   UNL     1       4.889   4.738  19.270  0.00  0.00    +0.000 OA
ATOM      4  N   UNL     1       2.801   5.435  18.672  0.00  0.00    +0.000 N 
ATOM      5  H   UNL     1       3.201   3.991  16.765  0.00  0.00    +0.000 HD
ATOM      6  H   UNL     1       2.173   5.632  17.907  0.00  0.00    +0.000 HD
ENDROOT
BRANCH   1   7
ATOM      7  C   UNL     1       5.242   3.472  16.845  0.00  0.00    +0.000 C 
BRANCH   7  14
ATOM      8  C   UNL     1       7.035   4.885  15.785  0.00  0.00    +0.000 A 
ATOM      9  N   UNL     1       7.745   5.402  14.756  0.00  0.00    +0.000 NA
ATOM     10  C   UNL     1       7.387   5.043  13.506  0.00  0.00    +0.000 A 
ATOM     11  C   UNL     1       8.154   5.654  12.373  0.00  0.00    +0.000 C 
ATOM     12  C   UNL     1       6.320   4.188  13.254  0.00  0.00    +0.000 A 
ATOM     13  C   UNL     1       5.626   3.641  14.332  0.00  0.00    +0.000 A 
ATOM     14  C   UNL     1       6.000   3.962  15.641  0.00  0.00    +0.000 A 
BRANCH   8  16
ATOM     15  C   UNL     1       7.073   6.706  17.240  0.00  0.00    +0.000 C 
ATOM     16  O   UNL     1       7.332   5.316  17.064  0.00  0.00    +0.000 OA
ENDBRANCH   8  16
ENDBRANCH   7  14
ENDBRANCH   1   7
BRANCH   4  17
ATOM     17  C   UNL     1       2.555   6.140  19.924  0.00  0.00    +0.000 C 
BRANCH  17  18
ATOM     18  C   UNL     1       2.027   7.524  19.591  0.00  0.00    +0.000 A 
ATOM     19  N   UNL     1       2.156   8.122  18.419  0.00  0.00    +0.000 NA
ATOM     20  C   UNL     1       1.584   9.380  18.472  0.00  0.00    +0.000 A 
ATOM     21  C   UNL     1       1.040   9.744  19.686  0.00  0.00    +0.000 A 
ATOM     22  C   UNL     1       0.391  11.019  20.092  0.00  0.00    +0.000 C 
ATOM     23  S   UNL     1       1.212   8.451  20.796  0.00  0.00    +0.000 S 
ENDBRANCH  17  18
BRANCH  17  24
ATOM     24  C   UNL     1       1.615   5.292  20.753  0.00  0.00    +0.000 C 
ATOM     25  C   UNL     1       1.070   4.000  20.184  0.00  0.00    +0.000 C 
ATOM     26  C   UNL     1       2.059   3.960  21.313  0.00  0.00    +0.000 C 
ENDBRANCH  17  24
ENDBRANCH   4  17
TORSDOF 6
ENDMDL
MODEL 6
REMARK VINA RESULT:      -7.0      1.113      1.981
REMARK  Name = 
REMARK  9 active torsions:
REMARK  status: ('A' for Active; 'I' for Inactive)
REMARK    1  A    between atoms: C_1  and  O_2
REMARK    2  A    between atoms: O_2  and  C_3
REMARK    3  A    between atoms: C_5  and  C_6
REMARK    4  A    between atoms: C_9  and  C_10
REMARK    5  A    between atoms: C_10  and  N_11
REMARK    6  A    between atoms: N_14  and  C_15
REMARK    7  A    between atoms: C_15  and  C_16
REMARK    8  A    between atoms: C_15  and  C_22
REMARK    9  A    between atoms: C_19  and  C_20
REMARK                            x       y       z     vdW  Elec       q    Type
REMARK                         _______ _______ _______ _____ _____    ______ ____
ROOT
ATOM      1  N   UNL     1       8.173   9.250  17.989  0.00  0.00    +0.000 N 
ATOM      2  C   UNL     1       7.803   7.931  18.000  0.00  0.00    +0.000 C 
ATOM      3  O   UNL     1       8.361   7.077  18.677  0.00  0.00    +0.000 OA
ATOM      4  N   UNL     1       6.742   7.670  17.184  0.00  0.00    +0.000 N 
ATOM      5  H   UNL     1       7.983   9.754  17.134  0.00  0.00    +0.000 HD
ATOM      6  H   UNL     1       6.200   8.428  16.797  0.00  0.00    +0.000 HD
ENDROOT
BRANCH   1   7
ATOM      7  C   UNL     1       9.364   9.647  18.723  0.00  0.00    +0.000 C 
BRANCH   7  14
ATOM      8  C   UNL     1       9.269  12.153  18.937  0.00  0.00    +0.000 A 
ATOM      9  N   UNL     1       9.165  13.327  19.601  0.00  0.00    +0.000 NA
ATOM     10  C   UNL     1       9.044  13.278  20.944  0.00  0.00    +0.000 A 
ATOM     11  C   UNL     1       8.970  14.585  21.673  0.00  0.00    +0.000 C 
ATOM     12  C   UNL     1       9.039  12.078  21.648  0.00  0.00    +0.000 A 
ATOM     13  C   UNL     1       9.113  10.880  20.937  0.00  0.00    +0.000 A 
ATOM     14  C   UNL     1       9.199  10.898  19.542  0.00  0.00    +0.000 A 
BRANCH   8  16
ATOM     15  C   UNL     1      10.567  13.055  17.223  0.00  0.00    +0.000 C 
ATOM     16  O   UNL     1       9.487  12.192  17.573  0.00  0.00    +0.000 OA
ENDBRANCH   8  16
ENDBRANCH   7  14
ENDBRANCH   1   7
BRANCH   4  17
ATOM     17  C   UNL     1       6.151   6.339  17.126  0.00  0.00    +0.000 C 
BRANCH  17  18
ATOM     18  C   UNL     1       4.803   6.390  17.824  0.00  0.00    +0.000 A 
ATOM     19  N   UNL     1       3.839   7.251  17.546  0.00  0.00    +0.000 NA
ATOM     20  C   UNL     1       2.764   7.033  18.389  0.00  0.00    +0.000 A 
ATOM     21  C   UNL     1       2.919   6.024  19.317  0.00  0.00    +0.000 A 
ATOM     22  C   UNL     1       1.989   5.561  20.381  0.00  0.00    +0.000 C 
ATOM     23  S   UNL     1       4.452   5.290  19.105  0.00  0.00    +0.000 S 
ENDBRANCH  17  18
BRANCH  17  24
ATOM     24  C   UNL     1       6.087   5.927  15.671  0.00  0.00    +0.000 C 
ATOM     25  C   UNL     1       6.949   4.786  15.175  0.00  0.00    +0.000 C 
ATOM     26  C   UNL     1       5.460   4.613  15.262  0.00  0.00    +0.000 C 
ENDBRANCH  17  24
ENDBRANCH   4  17
TORSDOF 6
ENDMDL
MODEL 7
REMARK VINA RESULT:      -6.9      5.368      8.472
REMARK  Name = 
REMARK  9 active torsions:
REMARK  status: ('A' for Active; 'I' for Inactive)
REMARK    1  A    between atoms: C_1  and  O_2
REMARK    2  A    between atoms: O_2  and  C_3
REMARK    3  A    between atoms: C_5  and  C_6
REMARK    4  A    between atoms: C_9  and  C_10
REMARK    5  A    between atoms: C_10  and  N_11
REMARK    6  A    between atoms: N_14  and  C_15
REMARK    7  A    between atoms: C_15  and  C_16
REMARK    8  A    between atoms: C_15  and  C_22
REMARK    9  A    between atoms: C_19  and  C_20
REMARK                            x       y       z     vdW  Elec       q    Type
REMARK                         _______ _______ _______ _____ _____    ______ ____
ROOT
ATOM      1  N   UNL     1       1.031   9.357  17.937  0.00  0.00    +0.000 N 
ATOM      2  C   UNL     1       1.911   8.486  18.522  0.00  0.00    +0.000 C 
ATOM      3  O   UNL     1       2.021   8.346  19.733  0.00  0.00    +0.000 OA
ATOM      4  N   UNL     1       2.646   7.783  17.613  0.00  0.00    +0.000 N 
ATOM      5  H   UNL     1       1.303   9.718  17.033  0.00  0.00    +0.000 HD
ATOM      6  H   UNL     1       2.391   7.791  16.637  0.00  0.00    +0.000 HD
ENDROOT
BRANCH   1   7
ATOM      7  C   UNL     1       0.268  10.255  18.789  0.00  0.00    +0.000 C 
BRANCH   7  14
ATOM      8  C   UNL     1      -1.934  11.461  18.967  0.00  0.00    +0.000 A 
ATOM      9  N   UNL     1      -3.199  11.770  18.602  0.00  0.00    +0.000 NA
ATOM     10  C   UNL     1      -3.720  11.122  17.539  0.00  0.00    +0.000 A 
ATOM     11  C   UNL     1      -5.136  11.443  17.168  0.00  0.00    +0.000 C 
ATOM     12  C   UNL     1      -3.010  10.155  16.836  0.00  0.00    +0.000 A 
ATOM     13  C   UNL     1      -1.695   9.879  17.210  0.00  0.00    +0.000 A 
ATOM     14  C   UNL     1      -1.115  10.564  18.283  0.00  0.00    +0.000 A 
BRANCH   8  16
ATOM     15  C   UNL     1      -1.482  13.472  20.056  0.00  0.00    +0.000 C 
ATOM     16  O   UNL     1      -1.423  12.049  20.108  0.00  0.00    +0.000 OA
ENDBRANCH   8  16
ENDBRANCH   7  14
ENDBRANCH   1   7
BRANCH   4  17
ATOM     17  C   UNL     1       3.577   6.746  18.042  0.00  0.00    +0.000 C 
BRANCH  17  18
ATOM     18  C   UNL     1       2.768   5.533  18.467  0.00  0.00    +0.000 A 
ATOM     19  N   UNL     1       1.933   4.869  17.687  0.00  0.00    +0.000 NA
ATOM     20  C   UNL     1       1.347   3.839  18.401  0.00  0.00    +0.000 A 
ATOM     21  C   UNL     1       1.722   3.735  19.725  0.00  0.00    +0.000 A 
ATOM     22  C   UNL     1       1.261   2.782  20.769  0.00  0.00    +0.000 C 
ATOM     23  S   UNL     1       2.880   4.944  20.085  0.00  0.00    +0.000 S 
ENDBRANCH  17  18
BRANCH  17  24
ATOM     24  C   UNL     1       4.538   6.491  16.902  0.00  0.00    +0.000 C 
ATOM     25  C   UNL     1       6.022   6.703  17.109  0.00  0.00    +0.000 C 
ATOM     26  C   UNL     1       5.485   5.312  16.934  0.00  0.00    +0.000 C 
ENDBRANCH  17  24
ENDBRANCH   4  17
TORSDOF 6
ENDMDL
MODEL 8
REMARK VINA RESULT:      -6.7      5.691      8.126
REMARK  Name = 
REMARK  9 active torsions:
REMARK  status: ('A' for Active; 'I' for Inactive)
REMARK    1  A    between atoms: C_1  and  O_2
REMARK    2  A    between atoms: O_2  and  C_3
REMARK    3  A    between atoms: C_5  and  C_6
REMARK    4  A    between atoms: C_9  and  C_10
REMARK    5  A    between atoms: C_10  and  N_11
REMARK    6  A    between atoms: N_14  and  C_15
REMARK    7  A    between atoms: C_15  and  C_16
REMARK    8  A    between atoms: C_15  and  C_22
REMARK    9  A    between atoms: C_19  and  C_20
REMARK                            x       y       z     vdW  Elec       q    Type
REMARK                         _______ _______ _______ _____ _____    ______ ____
ROOT
ATOM      1  N   UNL     1       1.928   7.887  20.635  0.00  0.00    +0.000 N 
ATOM      2  C   UNL     1       2.133   6.860  19.753  0.00  0.00    +0.000 C 
ATOM      3  O   UNL     1       2.001   6.972  18.541  0.00  0.00    +0.000 OA
ATOM      4  N   UNL     1       2.505   5.700  20.366  0.00  0.00    +0.000 N 
ATOM      5  H   UNL     1       1.630   7.620  21.562  0.00  0.00    +0.000 HD
ATOM      6  H   UNL     1       2.784   5.703  21.336  0.00  0.00    +0.000 HD
ENDROOT
BRANCH   1   7
ATOM      7  C   UNL     1       1.413   9.149  20.129  0.00  0.00    +0.000 C 
BRANCH   7  14
ATOM      8  C   UNL     1      -0.286  10.946  20.597  0.00  0.00    +0.000 A 
ATOM      9  N   UNL     1      -1.190  11.618  21.347  0.00  0.00    +0.000 NA
ATOM     10  C   UNL     1      -1.399  11.189  22.609  0.00  0.00    +0.000 A 
ATOM     11  C   UNL     1      -2.372  11.965  23.443  0.00  0.00    +0.000 C 
ATOM     12  C   UNL     1      -0.712  10.107  23.151  0.00  0.00    +0.000 A 
ATOM     13  C   UNL     1       0.188   9.410  22.347  0.00  0.00    +0.000 A 
ATOM     14  C   UNL     1       0.396   9.807  21.022  0.00  0.00    +0.000 A 
BRANCH   8  16
ATOM     15  C   UNL     1       0.814  12.604  19.382  0.00  0.00    +0.000 C 
ATOM     16  O   UNL     1       0.005  11.431  19.337  0.00  0.00    +0.000 OA
ENDBRANCH   8  16
ENDBRANCH   7  14
ENDBRANCH   1   7
BRANCH   4  17
ATOM     17  C   UNL     1       2.849   4.517  19.586  0.00  0.00    +0.000 C 
BRANCH  17  18
ATOM     18  C   UNL     1       4.268   4.686  19.071  0.00  0.00    +0.000 A 
ATOM     19  N   UNL     1       5.241   5.298  19.723  0.00  0.00    +0.000 NA
ATOM     20  C   UNL     1       6.391   5.294  18.954  0.00  0.00    +0.000 A 
ATOM     21  C   UNL     1       6.285   4.699  17.714  0.00  0.00    +0.000 A 
ATOM     22  C   UNL     1       7.302   4.559  16.638  0.00  0.00    +0.000 C 
ATOM     23  S   UNL     1       4.699   4.084  17.514  0.00  0.00    +0.000 S 
ENDBRANCH  17  18
BRANCH  17  24
ATOM     24  C   UNL     1       2.644   3.307  20.471  0.00  0.00    +0.000 C 
ATOM     25  C   UNL     1       1.268   3.003  21.021  0.00  0.00    +0.000 C 
ATOM     26  C   UNL     1       1.869   2.105  19.979  0.00  0.00    +0.000 C 
ENDBRANCH  17  24
ENDBRANCH   4  17
TORSDOF 6
ENDMDL
MODEL 9
REMARK VINA RESULT:      -6.7      5.541      7.875
REMARK  Name = 
REMARK  9 active torsions:
REMARK  status: ('A' for Active; 'I' for Inactive)
REMARK    1  A    between atoms: C_1  and  O_2
REMARK    2  A    between atoms: O_2  and  C_3
REMARK    3  A    between atoms: C_5  and  C_6
REMARK    4  A    between atoms: C_9  and  C_10
REMARK    5  A    between atoms: C_10  and  N_11
REMARK    6  A    between atoms: N_14  and  C_15
REMARK    7  A    between atoms: C_15  and  C_16
REMARK    8  A    between atoms: C_15  and  C_22
REMARK    9  A    between atoms: C_19  and  C_20
REMARK                            x       y       z     vdW  Elec       q    Type
REMARK                         _______ _______ _______ _____ _____    ______ ____
ROOT
ATOM      1  N   UNL     1       1.996   8.814  19.357  0.00  0.00    +0.000 N 
ATOM      2  C   UNL     1       2.150   7.537  18.884  0.00  0.00    +0.000 C 
ATOM      3  O   UNL     1       2.123   7.248  17.695  0.00  0.00    +0.000 OA
ATOM      4  N   UNL     1       2.344   6.623  19.877  0.00  0.00    +0.000 N 
ATOM      5  H   UNL     1       1.601   8.896  20.283  0.00  0.00    +0.000 HD
ATOM      6  H   UNL     1       2.547   6.928  20.817  0.00  0.00    +0.000 HD
ENDROOT
BRANCH   1   7
ATOM      7  C   UNL     1       1.664   9.871  18.415  0.00  0.00    +0.000 C 
BRANCH   7  14
ATOM      8  C   UNL     1       0.209  11.473  19.700  0.00  0.00    +0.000 A 
ATOM      9  N   UNL     1      -0.949  12.095  20.022  0.00  0.00    +0.000 NA
ATOM     10  C   UNL     1      -2.060  11.741  19.342  0.00  0.00    +0.000 A 
ATOM     11  C   UNL     1      -3.343  12.407  19.735  0.00  0.00    +0.000 C 
ATOM     12  C   UNL     1      -2.047  10.765  18.352  0.00  0.00    +0.000 A 
ATOM     13  C   UNL     1      -0.835  10.164  18.015  0.00  0.00    +0.000 A 
ATOM     14  C   UNL     1       0.340  10.538  18.674  0.00  0.00    +0.000 A 
BRANCH   8  16
ATOM     15  C   UNL     1       1.513  13.160  20.643  0.00  0.00    +0.000 C 
ATOM     16  O   UNL     1       1.333  11.759  20.451  0.00  0.00    +0.000 OA
ENDBRANCH   8  16
ENDBRANCH   7  14
ENDBRANCH   1   7
BRANCH   4  17
ATOM     17  C   UNL     1       2.611   5.224  19.566  0.00  0.00    +0.000 C 
BRANCH  17  18
ATOM     18  C   UNL     1       4.038   5.117  19.059  0.00  0.00    +0.000 A 
ATOM     19  N   UNL     1       5.115   5.450  19.751  0.00  0.00    +0.000 NA
ATOM     20  C   UNL     1       6.245   5.253  18.978  0.00  0.00    +0.000 A 
ATOM     21  C   UNL     1       6.025   4.791  17.697  0.00  0.00    +0.000 A 
ATOM     22  C   UNL     1       7.000   4.513  16.608  0.00  0.00    +0.000 C 
ATOM     23  S   UNL     1       4.346   4.554  17.458  0.00  0.00    +0.000 S 
ENDBRANCH  17  18
BRANCH  17  24
ATOM     24  C   UNL     1       2.327   4.414  20.812  0.00  0.00    +0.000 C 
ATOM     25  C   UNL     1       1.231   3.370  20.796  0.00  0.00    +0.000 C 
ATOM     26  C   UNL     1       2.667   2.942  20.876  0.00  0.00    +0.000 C 
ENDBRANCH  17  24
ENDBRANCH   4  17
TORSDOF 6
ENDMDL
