MODEL 1
REMARK VINA RESULT:      -8.1      0.000      0.000
REMARK  Name = 
REMARK  8 active torsions:
REMARK  status: ('A' for Active; 'I' for Inactive)
REMARK    1  A    between atoms: C_1  and  O_2
REMARK    2  A    between atoms: O_2  and  C_3
REMARK    3  A    between atoms: C_6  and  C_7
REMARK    4  A    between atoms: C_7  and  C_8
REMARK    5  A    between atoms: N_10  and  N_11
REMARK    6  A    between atoms: N_11  and  S_12
REMARK    7  A    between atoms: S_12  and  C_15
REMARK    8  A    between atoms: C_20  and  N_21
REMARK                            x       y       z     vdW  Elec       q    Type
REMARK                         _______ _______ _______ _____ _____    ______ ____
ROOT
ATOM      1  N   UNL     1       7.764   6.878  17.974  0.00  0.00    +0.000 NA
ATOM      2  H   UNL     1       8.072   6.888  16.996  0.00  0.00    +0.000 HD
ENDROOT
BRANCH   1   5
ATOM      3  C   UNL     1       8.463   9.168  18.457  0.00  0.00    +0.000 C 
ATOM      4  O   UNL     1       7.724   9.562  17.554  0.00  0.00    +0.000 OA
ATOM      5  N   UNL     1       8.522   7.832  18.810  0.00  0.00    +0.000 N 
ATOM      6  H   UNL     1       9.245   7.448  19.417  0.00  0.00    +0.000 HD
BRANCH   3   7
ATOM      7  C   UNL     1       9.367  10.081  19.272  0.00  0.00    +0.000 C 
BRANCH   7  11
ATOM      8  C   UNL     1      10.738  13.710  17.319  0.00  0.00    +0.000 A 
ATOM      9  C   UNL     1      11.589  12.610  17.412  0.00  0.00    +0.000 A 
ATOM     10  C   UNL     1      11.168  11.426  18.027  0.00  0.00    +0.000 A 
ATOM     11  C   UNL     1       9.885  11.323  18.578  0.00  0.00    +0.000 A 
ATOM     12  C   UNL     1       9.040  12.444  18.491  0.00  0.00    +0.000 A 
ATOM     13  C   UNL     1       9.462  13.626  17.870  0.00  0.00    +0.000 A 
BRANCH   8  15
ATOM     14  C   UNL     1      10.832  16.069  17.208  0.00  0.00    +0.000 C 
ATOM     15  O   UNL     1      11.271  14.811  16.709  0.00  0.00    +0.000 OA
ENDBRANCH   8  15
ENDBRANCH   7  11
ENDBRANCH   3   7
ENDBRANCH   1   5
BRANCH   1  16
ATOM     16  S   UNL     1       7.428   5.376  18.694  0.00  0.00    +0.000 S 
ATOM     17  O   UNL     1       8.211   4.421  17.941  0.00  0.00    +0.000 OA
ATOM     18  O   UNL     1       7.590   5.548  20.118  0.00  0.00    +0.000 OA
BRANCH  16  19
ATOM     19  C   UNL     1       5.723   5.023  18.397  0.00  0.00    +0.000 A 
ATOM     20  C   UNL     1       4.808   4.863  19.445  0.00  0.00    +0.000 A 
ATOM     21  C   UNL     1       3.469   4.553  19.166  0.00  0.00    +0.000 A 
ATOM     22  C   UNL     1       3.035   4.389  17.851  0.00  0.00    +0.000 A 
ATOM     23  C   UNL     1       3.937   4.525  16.801  0.00  0.00    +0.000 A 
ATOM     24  C   UNL     1       5.277   4.840  17.082  0.00  0.00    +0.000 A 
BRANCH  24  25
ATOM     25  N   UNL     1       6.169   4.953  15.943  0.00  0.00    +0.000 N 
ATOM     26  O   UNL     1       6.616   3.905  15.470  0.00  0.00    +0.000 OA
ATOM     27  O   UNL     1       6.480   6.098  15.592  0.00  0.00    +0.000 OA
ENDBRANCH  24  25
ENDBRANCH  16  19
ENDBRANCH   1  16
TORSDOF 7
ENDMDL
MODEL 2
REMARK VINA RESULT:      -8.1      0.445      1.057
REMARK  Name = 
REMARK  8 active torsions:
REMARK  status: ('A' for Active; 'I' for Inactive)
REMARK    1  A    between atoms: C_1  and  O_2
REMARK    2  A    between atoms: O_2  and  C_3
REMARK    3  A    between atoms: C_6  and  C_7
REMARK    4  A    between atoms: C_7  and  C_8
REMARK    5  A    between atoms: N_10  and  N_11
REMARK    6  A    between atoms: N_11  and  S_12
REMARK    7  A    between atoms: S_12  and  C_15
REMARK    8  A    between atoms: C_20  and  N_21
REMARK                            x       y       z     vdW  Elec       q    Type
REMARK                         _______ _______ _______ _____ _____    ______ ____
ROOT
ATOM      1  N   UNL     1       7.591   6.682  17.707  0.00  0.00    +0.000 NA
ATOM      2  H   UNL     1       7.822   6.837  16.720  0.00  0.00    +0.000 HD
ENDROOT
BRANCH   1   5
ATOM      3  C   UNL     1       8.351   8.944  18.225  0.00  0.00    +0.000 C 
ATOM      4  O   UNL     1       7.730   9.355  17.243  0.00  0.00    +0.000 OA
ATOM      5  N   UNL     1       8.305   7.615  18.603  0.00  0.00    +0.000 N 
ATOM      6  H   UNL     1       8.941   7.208  19.289  0.00  0.00    +0.000 HD
BRANCH   3   7
ATOM      7  C   UNL     1       9.210   9.829  19.117  0.00  0.00    +0.000 C 
BRANCH   7  11
ATOM      8  C   UNL     1      10.703  13.520  17.379  0.00  0.00    +0.000 A 
ATOM      9  C   UNL     1       9.369  13.431  17.775  0.00  0.00    +0.000 A 
ATOM     10  C   UNL     1       8.866  12.257  18.347  0.00  0.00    +0.000 A 
ATOM     11  C   UNL     1       9.688  11.137  18.521  0.00  0.00    +0.000 A 
ATOM     12  C   UNL     1      11.028  11.234  18.105  0.00  0.00    +0.000 A 
ATOM     13  C   UNL     1      11.531  12.412  17.539  0.00  0.00    +0.000 A 
BRANCH   8  15
ATOM     14  C   UNL     1      10.427  15.867  17.353  0.00  0.00    +0.000 C 
ATOM     15  O   UNL     1      11.068  14.713  16.822  0.00  0.00    +0.000 OA
ENDBRANCH   8  15
ENDBRANCH   7  11
ENDBRANCH   3   7
ENDBRANCH   1   5
BRANCH   1  16
ATOM     16  S   UNL     1       7.469   5.080  18.261  0.00  0.00    +0.000 S 
ATOM     17  O   UNL     1       8.196   4.295  17.288  0.00  0.00    +0.000 OA
ATOM     18  O   UNL     1       7.826   5.092  19.660  0.00  0.00    +0.000 OA
BRANCH  16  19
ATOM     19  C   UNL     1       5.767   4.619  18.156  0.00  0.00    +0.000 A 
ATOM     20  C   UNL     1       5.020   4.286  19.294  0.00  0.00    +0.000 A 
ATOM     21  C   UNL     1       3.680   3.896  19.163  0.00  0.00    +0.000 A 
ATOM     22  C   UNL     1       3.078   3.822  17.907  0.00  0.00    +0.000 A 
ATOM     23  C   UNL     1       3.813   4.131  16.768  0.00  0.00    +0.000 A 
ATOM     24  C   UNL     1       5.154   4.526  16.900  0.00  0.00    +0.000 A 
BRANCH  24  25
ATOM     25  N   UNL     1       5.868   4.819  15.671  0.00  0.00    +0.000 N 
ATOM     26  O   UNL     1       6.340   3.862  15.051  0.00  0.00    +0.000 OA
ATOM     27  O   UNL     1       6.025   6.013  15.390  0.00  0.00    +0.000 OA
ENDBRANCH  24  25
ENDBRANCH  16  19
ENDBRANCH   1  16
TORSDOF 7
ENDMDL
MODEL 3
REMARK VINA RESULT:      -7.7      5.768      8.034
REMARK  Name = 
REMARK  8 active torsions:
REMARK  status: ('A' for Active; 'I' for Inactive)
REMARK    1  A    between atoms: C_1  and  O_2
REMARK    2  A    between atoms: O_2  and  C_3
REMARK    3  A    between atoms: C_6  and  C_7
REMARK    4  A    between atoms: C_7  and  C_8
REMARK    5  A    between atoms: N_10  and  N_11
REMARK    6  A    between atoms: N_11  and  S_12
REMARK    7  A    between atoms: S_12  and  C_15
REMARK    8  A    between atoms: C_20  and  N_21
REMARK                            x       y       z     vdW  Elec       q    Type
REMARK                         _______ _______ _______ _____ _____    ______ ____
ROOT
ATOM      1  N   UNL     1       5.985   3.992  18.921  0.00  0.00    +0.000 NA
ATOM      2  H   UNL     1       6.427   4.590  19.627  0.00  0.00    +0.000 HD
ENDROOT
BRANCH   1   5
ATOM      3  C   UNL     1       7.232   4.724  16.953  0.00  0.00    +0.000 C 
ATOM      4  O   UNL     1       8.253   4.242  17.446  0.00  0.00    +0.000 OA
ATOM      5  N   UNL     1       6.004   4.605  17.576  0.00  0.00    +0.000 N 
ATOM      6  H   UNL     1       5.182   5.140  17.297  0.00  0.00    +0.000 HD
BRANCH   3   7
ATOM      7  C   UNL     1       7.204   5.480  15.633  0.00  0.00    +0.000 C 
BRANCH   7  11
ATOM      8  C   UNL     1       5.902   3.319  12.097  0.00  0.00    +0.000 A 
ATOM      9  C   UNL     1       5.102   3.324  13.239  0.00  0.00    +0.000 A 
ATOM     10  C   UNL     1       5.494   4.021  14.387  0.00  0.00    +0.000 A 
ATOM     11  C   UNL     1       6.708   4.718  14.422  0.00  0.00    +0.000 A 
ATOM     12  C   UNL     1       7.513   4.695  13.269  0.00  0.00    +0.000 A 
ATOM     13  C   UNL     1       7.115   4.001  12.119  0.00  0.00    +0.000 A 
BRANCH   8  15
ATOM     14  C   UNL     1       5.835   1.232  10.990  0.00  0.00    +0.000 C 
ATOM     15  O   UNL     1       5.416   2.591  11.047  0.00  0.00    +0.000 OA
ENDBRANCH   8  15
ENDBRANCH   7  11
ENDBRANCH   3   7
ENDBRANCH   1   5
BRANCH   1  16
ATOM     16  S   UNL     1       4.550   3.183  19.340  0.00  0.00    +0.000 S 
ATOM     17  O   UNL     1       4.122   2.532  18.122  0.00  0.00    +0.000 OA
ATOM     18  O   UNL     1       4.824   2.443  20.549  0.00  0.00    +0.000 OA
BRANCH  16  19
ATOM     19  C   UNL     1       3.352   4.417  19.738  0.00  0.00    +0.000 A 
ATOM     20  C   UNL     1       3.567   5.773  19.458  0.00  0.00    +0.000 A 
ATOM     21  C   UNL     1       2.603   6.725  19.819  0.00  0.00    +0.000 A 
ATOM     22  C   UNL     1       1.429   6.341  20.469  0.00  0.00    +0.000 A 
ATOM     23  C   UNL     1       1.212   5.000  20.770  0.00  0.00    +0.000 A 
ATOM     24  C   UNL     1       2.177   4.048  20.404  0.00  0.00    +0.000 A 
BRANCH  24  25
ATOM     25  N   UNL     1       1.895   2.670  20.762  0.00  0.00    +0.000 N 
ATOM     26  O   UNL     1       1.514   1.919  19.859  0.00  0.00    +0.000 OA
ATOM     27  O   UNL     1       1.974   2.380  21.961  0.00  0.00    +0.000 OA
ENDBRANCH  24  25
ENDBRANCH  16  19
ENDBRANCH   1  16
TORSDOF 7
ENDMDL
MODEL 4
REMARK VINA RESULT:      -7.6      6.071      8.107
REMARK  Name = 
REMARK  8 active torsions:
REMARK  status: ('A' for Active; 'I' for Inactive)
REMARK    1  A    between atoms: C_1  and  O_2
REMARK    2  A    between atoms: O_2  and  C_3
REMARK    3  A    between atoms: C_6  and  C_7
REMARK    4  A    between atoms: C_7  and  C_8
REMARK    5  A    between atoms: N_10  and  N_11
REMARK    6  A    between atoms: N_11  and  S_12
REMARK    7  A    between atoms: S_12  and  C_15
REMARK    8  A    between atoms: C_20  and  N_21
REMARK                            x       y       z     vdW  Elec       q    Type
REMARK                         _______ _______ _______ _____ _____    ______ ____
ROOT
ATOM      1  N   UNL     1       5.460   3.591  17.862  0.00  0.00    +0.000 NA
ATOM      2  H   UNL     1       6.076   2.860  18.233  0.00  0.00    +0.000 HD
ENDROOT
BRANCH   1   5
ATOM      3  C   UNL     1       7.092   4.408  16.239  0.00  0.00    +0.000 C 
ATOM      4  O   UNL     1       7.949   4.392  17.125  0.00  0.00    +0.000 OA
ATOM      5  N   UNL     1       5.804   3.963  16.474  0.00  0.00    +0.000 N 
ATOM      6  H   UNL     1       5.031   4.130  15.831  0.00  0.00    +0.000 HD
BRANCH   3   7
ATOM      7  C   UNL     1       7.346   4.899  14.822  0.00  0.00    +0.000 C 
BRANCH   7  11
ATOM      8  C   UNL     1       5.016   3.100  11.628  0.00  0.00    +0.000 A 
ATOM      9  C   UNL     1       4.367   3.757  12.673  0.00  0.00    +0.000 A 
ATOM     10  C   UNL     1       5.095   4.353  13.708  0.00  0.00    +0.000 A 
ATOM     11  C   UNL     1       6.494   4.291  13.727  0.00  0.00    +0.000 A 
ATOM     12  C   UNL     1       7.136   3.614  12.675  0.00  0.00    +0.000 A 
ATOM     13  C   UNL     1       6.405   3.023  11.637  0.00  0.00    +0.000 A 
BRANCH   8  15
ATOM     14  C   UNL     1       3.204   3.412  10.143  0.00  0.00    +0.000 C 
ATOM     15  O   UNL     1       4.194   2.547  10.686  0.00  0.00    +0.000 OA
ENDBRANCH   8  15
ENDBRANCH   7  11
ENDBRANCH   3   7
ENDBRANCH   1   5
BRANCH   1  16
ATOM     16  S   UNL     1       5.041   4.882  18.887  0.00  0.00    +0.000 S 
ATOM     17  O   UNL     1       6.051   4.877  19.921  0.00  0.00    +0.000 OA
ATOM     18  O   UNL     1       4.813   6.030  18.041  0.00  0.00    +0.000 OA
BRANCH  16  19
ATOM     19  C   UNL     1       3.498   4.469  19.642  0.00  0.00    +0.000 A 
ATOM     20  C   UNL     1       2.563   5.450  19.997  0.00  0.00    +0.000 A 
ATOM     21  C   UNL     1       1.364   5.082  20.622  0.00  0.00    +0.000 A 
ATOM     22  C   UNL     1       1.091   3.745  20.910  0.00  0.00    +0.000 A 
ATOM     23  C   UNL     1       2.019   2.763  20.581  0.00  0.00    +0.000 A 
ATOM     24  C   UNL     1       3.218   3.132  19.950  0.00  0.00    +0.000 A 
BRANCH  24  25
ATOM     25  N   UNL     1       4.149   2.061  19.648  0.00  0.00    +0.000 N 
ATOM     26  O   UNL     1       3.914   1.373  18.651  0.00  0.00    +0.000 OA
ATOM     27  O   UNL     1       5.056   1.865  20.466  0.00  0.00    +0.000 OA
ENDBRANCH  24  25
ENDBRANCH  16  19
ENDBRANCH   1  16
TORSDOF 7
ENDMDL
MODEL 5
REMARK VINA RESULT:      -7.5      0.968      1.440
REMARK  Name = 
REMARK  8 active torsions:
REMARK  status: ('A' for Active; 'I' for Inactive)
REMARK    1  A    between atoms: C_1  and  O_2
REMARK    2  A    between atoms: O_2  and  C_3
REMARK    3  A    between atoms: C_6  and  C_7
REMARK    4  A    between atoms: C_7  and  C_8
REMARK    5  A    between atoms: N_10  and  N_11
REMARK    6  A    between atoms: N_11  and  S_12
REMARK    7  A    between atoms: S_12  and  C_15
REMARK    8  A    between atoms: C_20  and  N_21
REMARK                            x       y       z     vdW  Elec       q    Type
REMARK                         _______ _______ _______ _____ _____    ______ ____
ROOT
ATOM      1  N   UNL     1       7.819   6.768  17.361  0.00  0.00    +0.000 NA
ATOM      2  H   UNL     1       8.268   6.873  16.444  0.00  0.00    +0.000 HD
ENDROOT
BRANCH   1   5
ATOM      3  C   UNL     1       8.272   8.994  18.256  0.00  0.00    +0.000 C 
ATOM      4  O   UNL     1       7.547   9.470  17.381  0.00  0.00    +0.000 OA
ATOM      5  N   UNL     1       8.439   7.628  18.390  0.00  0.00    +0.000 N 
ATOM      6  H   UNL     1       9.162   7.210  18.974  0.00  0.00    +0.000 HD
BRANCH   3   7
ATOM      7  C   UNL     1       9.040   9.830  19.269  0.00  0.00    +0.000 C 
BRANCH   7  11
ATOM      8  C   UNL     1      10.536  13.640  17.813  0.00  0.00    +0.000 A 
ATOM      9  C   UNL     1       9.647  13.610  18.887  0.00  0.00    +0.000 A 
ATOM     10  C   UNL     1       9.159  12.395  19.381  0.00  0.00    +0.000 A 
ATOM     11  C   UNL     1       9.540  11.181  18.798  0.00  0.00    +0.000 A 
ATOM     12  C   UNL     1      10.426  11.224  17.707  0.00  0.00    +0.000 A 
ATOM     13  C   UNL     1      10.918  12.441  17.218  0.00  0.00    +0.000 A 
BRANCH   8  15
ATOM     14  C   UNL     1      12.332  15.091  17.311  0.00  0.00    +0.000 C 
ATOM     15  O   UNL     1      10.928  14.887  17.415  0.00  0.00    +0.000 OA
ENDBRANCH   8  15
ENDBRANCH   7  11
ENDBRANCH   3   7
ENDBRANCH   1   5
BRANCH   1  16
ATOM     16  S   UNL     1       7.394   5.202  17.870  0.00  0.00    +0.000 S 
ATOM     17  O   UNL     1       7.597   4.367  16.708  0.00  0.00    +0.000 OA
ATOM     18  O   UNL     1       8.084   4.966  19.116  0.00  0.00    +0.000 OA
BRANCH  16  19
ATOM     19  C   UNL     1       5.664   5.220  18.222  0.00  0.00    +0.000 A 
ATOM     20  C   UNL     1       5.164   4.903  19.491  0.00  0.00    +0.000 A 
ATOM     21  C   UNL     1       3.781   4.898  19.720  0.00  0.00    +0.000 A 
ATOM     22  C   UNL     1       2.887   5.196  18.691  0.00  0.00    +0.000 A 
ATOM     23  C   UNL     1       3.369   5.493  17.420  0.00  0.00    +0.000 A 
ATOM     24  C   UNL     1       4.755   5.502  17.194  0.00  0.00    +0.000 A 
BRANCH  24  25
ATOM     25  N   UNL     1       5.189   5.805  15.843  0.00  0.00    +0.000 N 
ATOM     26  O   UNL     1       5.278   6.996  15.533  0.00  0.00    +0.000 OA
ATOM     27  O   UNL     1       5.349   4.843  15.082  0.00  0.00    +0.000 OA
ENDBRANCH  24  25
ENDBRANCH  16  19
ENDBRANCH   1  16
TORSDOF 7
ENDMDL
MODEL 6
REMARK VINA RESULT:      -7.5      5.722      8.018
REMARK  Name = 
REMARK  8 active torsions:
REMARK  status: ('A' for Active; 'I' for Inactive)
REMARK    1  A    between atoms: C_1  and  O_2
REMARK    2  A    between atoms: O_2  and  C_3
REMARK    3  A    between atoms: C_6  and  C_7
REMARK    4  A    between atoms: C_7  and  C_8
REMARK    5  A    between atoms: N_10  and  N_11
REMARK    6  A    between atoms: N_11  and  S_12
REMARK    7  A    between atoms: S_12  and  C_15
REMARK    8  A    between atoms: C_20  and  N_21
REMARK                            x       y       z     vdW  Elec       q    Type
REMARK                         _______ _______ _______ _____ _____    ______ ____
ROOT
ATOM      1  N   UNL     1       5.881   3.610  18.787  0.00  0.00    +0.000 NA
ATOM      2  H   UNL     1       6.438   4.142  19.464  0.00  0.00    +0.000 HD
ENDROOT
BRANCH   1   5
ATOM      3  C   UNL     1       7.024   4.841  17.015  0.00  0.00    +0.000 C 
ATOM      4  O   UNL     1       8.074   4.741  17.652  0.00  0.00    +0.000 OA
ATOM      5  N   UNL     1       5.854   4.252  17.456  0.00  0.00    +0.000 N 
ATOM      6  H   UNL     1       4.939   4.463  17.059  0.00  0.00    +0.000 HD
BRANCH   3   7
ATOM      7  C   UNL     1       6.898   5.598  15.701  0.00  0.00    +0.000 C 
BRANCH   7  11
ATOM      8  C   UNL     1       5.851   3.226  12.216  0.00  0.00    +0.000 A 
ATOM      9  C   UNL     1       7.099   3.844  12.283  0.00  0.00    +0.000 A 
ATOM     10  C   UNL     1       7.464   4.605  13.399  0.00  0.00    +0.000 A 
ATOM     11  C   UNL     1       6.578   4.776  14.469  0.00  0.00    +0.000 A 
ATOM     12  C   UNL     1       5.317   4.159  14.385  0.00  0.00    +0.000 A 
ATOM     13  C   UNL     1       4.956   3.393  13.269  0.00  0.00    +0.000 A 
BRANCH   8  15
ATOM     14  C   UNL     1       6.111   1.193  11.038  0.00  0.00    +0.000 C 
ATOM     15  O   UNL     1       5.608   2.523  11.068  0.00  0.00    +0.000 OA
ENDBRANCH   8  15
ENDBRANCH   7  11
ENDBRANCH   3   7
ENDBRANCH   1   5
BRANCH   1  16
ATOM     16  S   UNL     1       4.408   2.940  19.309  0.00  0.00    +0.000 S 
ATOM     17  O   UNL     1       3.868   2.277  18.144  0.00  0.00    +0.000 OA
ATOM     18  O   UNL     1       4.683   2.232  20.538  0.00  0.00    +0.000 OA
BRANCH  16  19
ATOM     19  C   UNL     1       3.335   4.285  19.706  0.00  0.00    +0.000 A 
ATOM     20  C   UNL     1       3.663   5.610  19.391  0.00  0.00    +0.000 A 
ATOM     21  C   UNL     1       2.796   6.652  19.752  0.00  0.00    +0.000 A 
ATOM     22  C   UNL     1       1.610   6.388  20.436  0.00  0.00    +0.000 A 
ATOM     23  C   UNL     1       1.282   5.079  20.774  0.00  0.00    +0.000 A 
ATOM     24  C   UNL     1       2.148   4.036  20.407  0.00  0.00    +0.000 A 
BRANCH  24  25
ATOM     25  N   UNL     1       1.754   2.697  20.803  0.00  0.00    +0.000 N 
ATOM     26  O   UNL     1       1.957   2.372  21.976  0.00  0.00    +0.000 OA
ATOM     27  O   UNL     1       1.328   1.956  19.909  0.00  0.00    +0.000 OA
ENDBRANCH  24  25
ENDBRANCH  16  19
ENDBRANCH   1  16
TORSDOF 7
ENDMDL
MODEL 7
REMARK VINA RESULT:      -7.4      5.561      7.912
REMARK  Name = 
REMARK  8 active torsions:
REMARK  status: ('A' for Active; 'I' for Inactive)
REMARK    1  A    between atoms: C_1  and  O_2
REMARK    2  A    between atoms: O_2  and  C_3
REMARK    3  A    between atoms: C_6  and  C_7
REMARK    4  A    between atoms: C_7  and  C_8
REMARK    5  A    between atoms: N_10  and  N_11
REMARK    6  A    between atoms: N_11  and  S_12
REMARK    7  A    between atoms: S_12  and  C_15
REMARK    8  A    between atoms: C_20  and  N_21
REMARK                            x       y       z     vdW  Elec       q    Type
REMARK                         _______ _______ _______ _____ _____    ______ ____
ROOT
ATOM      1  N   UNL     1       6.150   4.449  18.805  0.00  0.00    +0.000 NA
ATOM      2  H   UNL     1       6.128   5.422  19.131  0.00  0.00    +0.000 HD
ENDROOT
BRANCH   1   5
ATOM      3  C   UNL     1       6.928   5.391  16.690  0.00  0.00    +0.000 C 
ATOM      4  O   UNL     1       6.446   6.476  17.020  0.00  0.00    +0.000 OA
ATOM      5  N   UNL     1       6.899   4.300  17.539  0.00  0.00    +0.000 N 
ATOM      6  H   UNL     1       7.119   3.352  17.237  0.00  0.00    +0.000 HD
BRANCH   3   7
ATOM      7  C   UNL     1       7.599   5.135  15.349  0.00  0.00    +0.000 C 
BRANCH   7  11
ATOM      8  C   UNL     1       5.256   3.338  12.164  0.00  0.00    +0.000 A 
ATOM      9  C   UNL     1       4.665   3.588  13.402  0.00  0.00    +0.000 A 
ATOM     10  C   UNL     1       5.395   4.175  14.441  0.00  0.00    +0.000 A 
ATOM     11  C   UNL     1       6.743   4.512  14.266  0.00  0.00    +0.000 A 
ATOM     12  C   UNL     1       7.332   4.243  13.018  0.00  0.00    +0.000 A 
ATOM     13  C   UNL     1       6.597   3.660  11.977  0.00  0.00    +0.000 A 
BRANCH   8  15
ATOM     14  C   UNL     1       3.579   3.625  10.523  0.00  0.00    +0.000 C 
ATOM     15  O   UNL     1       4.442   2.748  11.237  0.00  0.00    +0.000 OA
ENDBRANCH   8  15
ENDBRANCH   7  11
ENDBRANCH   3   7
ENDBRANCH   1   5
BRANCH   1  16
ATOM     16  S   UNL     1       4.727   3.528  18.930  0.00  0.00    +0.000 S 
ATOM     17  O   UNL     1       4.417   3.139  17.573  0.00  0.00    +0.000 OA
ATOM     18  O   UNL     1       4.948   2.557  19.976  0.00  0.00    +0.000 OA
BRANCH  16  19
ATOM     19  C   UNL     1       3.449   4.615  19.482  0.00  0.00    +0.000 A 
ATOM     20  C   UNL     1       3.505   5.997  19.257  0.00  0.00    +0.000 A 
ATOM     21  C   UNL     1       2.484   6.827  19.740  0.00  0.00    +0.000 A 
ATOM     22  C   UNL     1       1.411   6.297  20.456  0.00  0.00    +0.000 A 
ATOM     23  C   UNL     1       1.353   4.929  20.703  0.00  0.00    +0.000 A 
ATOM     24  C   UNL     1       2.374   4.098  20.215  0.00  0.00    +0.000 A 
BRANCH  24  25
ATOM     25  N   UNL     1       2.260   2.684  20.522  0.00  0.00    +0.000 N 
ATOM     26  O   UNL     1       1.907   1.935  19.607  0.00  0.00    +0.000 OA
ATOM     27  O   UNL     1       2.440   2.354  21.700  0.00  0.00    +0.000 OA
ENDBRANCH  24  25
ENDBRANCH  16  19
ENDBRANCH   1  16
TORSDOF 7
ENDMDL
MODEL 8
REMARK VINA RESULT:      -7.4      1.722      1.973
REMARK  Name = 
REMARK  8 active torsions:
REMARK  status: ('A' for Active; 'I' for Inactive)
REMARK    1  A    between atoms: C_1  and  O_2
REMARK    2  A    between atoms: O_2  and  C_3
REMARK    3  A    between atoms: C_6  and  C_7
REMARK    4  A    between atoms: C_7  and  C_8
REMARK    5  A    between atoms: N_10  and  N_11
REMARK    6  A    between atoms: N_11  and  S_12
REMARK    7  A    between atoms: S_12  and  C_15
REMARK    8  A    between atoms: C_20  and  N_21
REMARK                            x       y       z     vdW  Elec       q    Type
REMARK                         _______ _______ _______ _____ _____    ______ ____
ROOT
ATOM      1  N   UNL     1       7.456   7.102  17.098  0.00  0.00    +0.000 NA
ATOM      2  H   UNL     1       7.929   7.163  16.189  0.00  0.00    +0.000 HD
ENDROOT
BRANCH   1   5
ATOM      3  C   UNL     1       8.308   9.134  18.150  0.00  0.00    +0.000 C 
ATOM      4  O   UNL     1       7.673   9.800  17.330  0.00  0.00    +0.000 OA
ATOM      5  N   UNL     1       8.228   7.754  18.176  0.00  0.00    +0.000 N 
ATOM      6  H   UNL     1       8.869   7.168  18.710  0.00  0.00    +0.000 HD
BRANCH   3   7
ATOM      7  C   UNL     1       9.222   9.737  19.206  0.00  0.00    +0.000 C 
BRANCH   7  11
ATOM      8  C   UNL     1      10.892  13.671  18.430  0.00  0.00    +0.000 A 
ATOM      9  C   UNL     1      11.199  12.609  17.580  0.00  0.00    +0.000 A 
ATOM     10  C   UNL     1      10.665  11.335  17.803  0.00  0.00    +0.000 A 
ATOM     11  C   UNL     1       9.822  11.092  18.894  0.00  0.00    +0.000 A 
ATOM     12  C   UNL     1       9.532  12.168  19.752  0.00  0.00    +0.000 A 
ATOM     13  C   UNL     1      10.063  13.444  19.524  0.00  0.00    +0.000 A 
BRANCH   8  15
ATOM     14  C   UNL     1      10.900  15.581  17.038  0.00  0.00    +0.000 C 
ATOM     15  O   UNL     1      11.487  14.861  18.115  0.00  0.00    +0.000 OA
ENDBRANCH   8  15
ENDBRANCH   7  11
ENDBRANCH   3   7
ENDBRANCH   1   5
BRANCH   1  16
ATOM     16  S   UNL     1       6.707   5.634  17.514  0.00  0.00    +0.000 S 
ATOM     17  O   UNL     1       6.832   4.806  16.336  0.00  0.00    +0.000 OA
ATOM     18  O   UNL     1       7.248   5.236  18.793  0.00  0.00    +0.000 OA
BRANCH  16  19
ATOM     19  C   UNL     1       4.990   5.973  17.752  0.00  0.00    +0.000 A 
ATOM     20  C   UNL     1       4.468   7.267  17.625  0.00  0.00    +0.000 A 
ATOM     21  C   UNL     1       3.104   7.498  17.852  0.00  0.00    +0.000 A 
ATOM     22  C   UNL     1       2.255   6.453  18.218  0.00  0.00    +0.000 A 
ATOM     23  C   UNL     1       2.764   5.167  18.368  0.00  0.00    +0.000 A 
ATOM     24  C   UNL     1       4.130   4.937  18.135  0.00  0.00    +0.000 A 
BRANCH  24  25
ATOM     25  N   UNL     1       4.598   3.576  18.323  0.00  0.00    +0.000 N 
ATOM     26  O   UNL     1       4.453   2.794  17.380  0.00  0.00    +0.000 OA
ATOM     27  O   UNL     1       5.025   3.286  19.447  0.00  0.00    +0.000 OA
ENDBRANCH  24  25
ENDBRANCH  16  19
ENDBRANCH   1  16
TORSDOF 7
ENDMDL
MODEL 9
REMARK VINA RESULT:      -7.3      5.446      6.909
REMARK  Name = 
REMARK  8 active torsions:
REMARK  status: ('A' for Active; 'I' for Inactive)
REMARK    1  A    between atoms: C_1  and  O_2
REMARK    2  A    between atoms: O_2  and  C_3
REMARK    3  A    between atoms: C_6  and  C_7
REMARK    4  A    between atoms: C_7  and  C_8
REMARK    5  A    between atoms: N_10  and  N_11
REMARK    6  A    between atoms: N_11  and  S_12
REMARK    7  A    between atoms: S_12  and  C_15
REMARK    8  A    between atoms: C_20  and  N_21
REMARK                            x       y       z     vdW  Elec       q    Type
REMARK                         _______ _______ _______ _____ _____    ______ ____
ROOT
ATOM      1  N   UNL     1       4.128   5.592  19.170  0.00  0.00    +0.000 NA
ATOM      2  H   UNL     1       3.613   5.643  20.056  0.00  0.00    +0.000 HD
ENDROOT
BRANCH   1   5
ATOM      3  C   UNL     1       2.695   7.491  18.619  0.00  0.00    +0.000 C 
ATOM      4  O   UNL     1       2.232   7.446  19.760  0.00  0.00    +0.000 OA
ATOM      5  N   UNL     1       3.711   6.643  18.218  0.00  0.00    +0.000 N 
ATOM      6  H   UNL     1       3.989   6.527  17.245  0.00  0.00    +0.000 HD
BRANCH   3   7
ATOM      7  C   UNL     1       2.221   8.464  17.549  0.00  0.00    +0.000 C 
BRANCH   7  11
ATOM      8  C   UNL     1       0.074  11.975  18.938  0.00  0.00    +0.000 A 
ATOM      9  C   UNL     1       1.457  12.031  18.772  0.00  0.00    +0.000 A 
ATOM     10  C   UNL     1       2.171  10.917  18.317  0.00  0.00    +0.000 A 
ATOM     11  C   UNL     1       1.513   9.714  18.030  0.00  0.00    +0.000 A 
ATOM     12  C   UNL     1       0.120   9.666  18.215  0.00  0.00    +0.000 A 
ATOM     13  C   UNL     1      -0.593  10.784  18.665  0.00  0.00    +0.000 A 
BRANCH   8  15
ATOM     14  C   UNL     1      -0.152  14.317  18.713  0.00  0.00    +0.000 C 
ATOM     15  O   UNL     1      -0.505  13.124  19.402  0.00  0.00    +0.000 OA
ENDBRANCH   8  15
ENDBRANCH   7  11
ENDBRANCH   3   7
ENDBRANCH   1   5
BRANCH   1  16
ATOM     16  S   UNL     1       4.412   4.059  18.494  0.00  0.00    +0.000 S 
ATOM     17  O   UNL     1       5.319   3.410  19.414  0.00  0.00    +0.000 OA
ATOM     18  O   UNL     1       3.121   3.501  18.166  0.00  0.00    +0.000 OA
BRANCH  16  19
ATOM     19  C   UNL     1       5.278   4.310  16.976  0.00  0.00    +0.000 A 
ATOM     20  C   UNL     1       4.732   3.932  15.742  0.00  0.00    +0.000 A 
ATOM     21  C   UNL     1       5.467   4.121  14.563  0.00  0.00    +0.000 A 
ATOM     22  C   UNL     1       6.747   4.673  14.601  0.00  0.00    +0.000 A 
ATOM     23  C   UNL     1       7.309   5.034  15.821  0.00  0.00    +0.000 A 
ATOM     24  C   UNL     1       6.570   4.849  17.001  0.00  0.00    +0.000 A 
BRANCH  24  25
ATOM     25  N   UNL     1       7.221   5.233  18.240  0.00  0.00    +0.000 N 
ATOM     26  O   UNL     1       6.901   6.318  18.733  0.00  0.00    +0.000 OA
ATOM     27  O   UNL     1       8.111   4.481  18.656  0.00  0.00    +0.000 OA
ENDBRANCH  24  25
ENDBRANCH  16  19
ENDBRANCH   1  16
TORSDOF 7
ENDMDL
