MODEL 1
REMARK VINA RESULT:      -8.3      0.000      0.000
REMARK  Name = 
REMARK  5 active torsions:
REMARK  status: ('A' for Active; 'I' for Inactive)
REMARK    1  A    between atoms: C_1  and  C_2
REMARK    2  A    between atoms: N_11  and  O_12
REMARK    3  A    between atoms: O_12  and  C_13
REMARK    4  A    between atoms: C_13  and  C_14
REMARK    5  A    between atoms: C_20  and  N_21
REMARK                            x       y       z     vdW  Elec       q    Type
REMARK                         _______ _______ _______ _____ _____    ______ ____
ROOT
ATOM      1  C   UNL     1       1.907   3.962  21.396  0.00  0.00    +0.000 C 
ATOM      2  C   UNL     1       1.963   4.940  20.219  0.00  0.00    +0.000 C 
ATOM      3  O   UNL     1       1.785   6.236  20.807  0.00  0.00    +0.000 OA
ATOM      4  C   UNL     1       1.834   7.254  19.902  0.00  0.00    +0.000 A 
ATOM      5  C   UNL     1       1.245   8.452  20.314  0.00  0.00    +0.000 A 
ATOM      6  C   UNL     1       1.271   9.566  19.477  0.00  0.00    +0.000 A 
ATOM      7  C   UNL     1       1.888   9.485  18.230  0.00  0.00    +0.000 A 
ATOM      8  C   UNL     1       2.482   8.287  17.818  0.00  0.00    +0.000 A 
ATOM      9  C   UNL     1       2.461   7.165  18.657  0.00  0.00    +0.000 A 
ATOM     10  C   UNL     1       3.173   5.904  18.281  0.00  0.00    +0.000 C 
ATOM     11  N   UNL     1       3.688   5.852  17.086  0.00  0.00    +0.000 NA
ATOM     12  C   UNL     1       3.279   4.880  19.415  0.00  0.00    +0.000 C 
ENDROOT
BRANCH  12  13
ATOM     13  N   UNL     1       3.576   3.500  19.044  0.00  0.00    +0.000 N 
ATOM     14  C   UNL     1       2.809   2.656  18.286  0.00  0.00    +0.000 A 
ATOM     15  C   UNL     1       3.369   1.412  18.461  0.00  0.00    +0.000 A 
ATOM     16  N   UNL     1       4.459   1.479  19.287  0.00  0.00    +0.000 NA
ATOM     17  C   UNL     1       4.574   2.748  19.610  0.00  0.00    +0.000 A 
ENDBRANCH  12  13
BRANCH  11  18
ATOM     18  O   UNL     1       4.469   4.714  16.866  0.00  0.00    +0.000 OA
BRANCH  18  19
ATOM     19  C   UNL     1       5.671   5.069  16.179  0.00  0.00    +0.000 C 
BRANCH  19  20
ATOM     20  C   UNL     1       6.605   5.807  17.104  0.00  0.00    +0.000 A 
ATOM     21  C   UNL     1       7.104   5.190  18.261  0.00  0.00    +0.000 A 
ATOM     22  C   UNL     1       7.955   5.887  19.121  0.00  0.00    +0.000 A 
ATOM     23  C   UNL     1       8.309   7.205  18.837  0.00  0.00    +0.000 A 
ATOM     24  C   UNL     1       7.808   7.832  17.698  0.00  0.00    +0.000 A 
ATOM     25  C   UNL     1       6.957   7.137  16.837  0.00  0.00    +0.000 A 
ENDBRANCH  19  20
ENDBRANCH  18  19
ENDBRANCH  11  18
TORSDOF 4
ENDMDL
MODEL 2
REMARK VINA RESULT:      -7.8      1.485      2.572
REMARK  Name = 
REMARK  5 active torsions:
REMARK  status: ('A' for Active; 'I' for Inactive)
REMARK    1  A    between atoms: C_1  and  C_2
REMARK    2  A    between atoms: N_11  and  O_12
REMARK    3  A    between atoms: O_12  and  C_13
REMARK    4  A    between atoms: C_13  and  C_14
REMARK    5  A    between atoms: C_20  and  N_21
REMARK                            x       y       z     vdW  Elec       q    Type
REMARK                         _______ _______ _______ _____ _____    ______ ____
ROOT
ATOM      1  C   UNL     1       1.814   4.057  21.248  0.00  0.00    +0.000 C 
ATOM      2  C   UNL     1       1.959   5.023  20.069  0.00  0.00    +0.000 C 
ATOM      3  O   UNL     1       1.748   6.325  20.632  0.00  0.00    +0.000 OA
ATOM      4  C   UNL     1       1.867   7.335  19.722  0.00  0.00    +0.000 A 
ATOM      5  C   UNL     1       1.259   8.539  20.080  0.00  0.00    +0.000 A 
ATOM      6  C   UNL     1       1.351   9.645  19.237  0.00  0.00    +0.000 A 
ATOM      7  C   UNL     1       2.054   9.549  18.038  0.00  0.00    +0.000 A 
ATOM      8  C   UNL     1       2.669   8.343  17.680  0.00  0.00    +0.000 A 
ATOM      9  C   UNL     1       2.582   7.230  18.527  0.00  0.00    +0.000 A 
ATOM     10  C   UNL     1       3.310   5.962  18.214  0.00  0.00    +0.000 C 
ATOM     11  N   UNL     1       3.909   5.895  17.059  0.00  0.00    +0.000 NA
ATOM     12  C   UNL     1       3.329   4.948  19.361  0.00  0.00    +0.000 C 
ENDROOT
BRANCH  12  13
ATOM     13  N   UNL     1       3.644   3.562  19.026  0.00  0.00    +0.000 N 
ATOM     14  C   UNL     1       2.929   2.717  18.219  0.00  0.00    +0.000 A 
ATOM     15  C   UNL     1       3.465   1.471  18.446  0.00  0.00    +0.000 A 
ATOM     16  N   UNL     1       4.492   1.538  19.350  0.00  0.00    +0.000 NA
ATOM     17  C   UNL     1       4.591   2.809  19.671  0.00  0.00    +0.000 A 
ENDBRANCH  12  13
BRANCH  11  18
ATOM     18  O   UNL     1       4.696   4.750  16.906  0.00  0.00    +0.000 OA
BRANCH  18  19
ATOM     19  C   UNL     1       6.025   5.117  16.527  0.00  0.00    +0.000 C 
BRANCH  19  20
ATOM     20  C   UNL     1       6.275   4.766  15.083  0.00  0.00    +0.000 A 
ATOM     21  C   UNL     1       5.418   3.893  14.399  0.00  0.00    +0.000 A 
ATOM     22  C   UNL     1       5.667   3.560  13.066  0.00  0.00    +0.000 A 
ATOM     23  C   UNL     1       6.774   4.092  12.408  0.00  0.00    +0.000 A 
ATOM     24  C   UNL     1       7.640   4.951  13.082  0.00  0.00    +0.000 A 
ATOM     25  C   UNL     1       7.394   5.284  14.415  0.00  0.00    +0.000 A 
ENDBRANCH  19  20
ENDBRANCH  18  19
ENDBRANCH  11  18
TORSDOF 4
ENDMDL
MODEL 3
REMARK VINA RESULT:      -7.8      0.536      1.264
REMARK  Name = 
REMARK  5 active torsions:
REMARK  status: ('A' for Active; 'I' for Inactive)
REMARK    1  A    between atoms: C_1  and  C_2
REMARK    2  A    between atoms: N_11  and  O_12
REMARK    3  A    between atoms: O_12  and  C_13
REMARK    4  A    between atoms: C_13  and  C_14
REMARK    5  A    between atoms: C_20  and  N_21
REMARK                            x       y       z     vdW  Elec       q    Type
REMARK                         _______ _______ _______ _____ _____    ______ ____
ROOT
ATOM      1  C   UNL     1       1.776   3.855  21.598  0.00  0.00    +0.000 C 
ATOM      2  C   UNL     1       1.902   4.751  20.364  0.00  0.00    +0.000 C 
ATOM      3  O   UNL     1       1.775   6.089  20.865  0.00  0.00    +0.000 OA
ATOM      4  C   UNL     1       1.891   7.044  19.898  0.00  0.00    +0.000 A 
ATOM      5  C   UNL     1       1.353   8.291  20.220  0.00  0.00    +0.000 A 
ATOM      6  C   UNL     1       1.448   9.347  19.315  0.00  0.00    +0.000 A 
ATOM      7  C   UNL     1       2.084   9.157  18.089  0.00  0.00    +0.000 A 
ATOM      8  C   UNL     1       2.629   7.908  17.767  0.00  0.00    +0.000 A 
ATOM      9  C   UNL     1       2.538   6.845  18.676  0.00  0.00    +0.000 A 
ATOM     10  C   UNL     1       3.194   5.531  18.396  0.00  0.00    +0.000 C 
ATOM     11  N   UNL     1       3.730   5.377  17.219  0.00  0.00    +0.000 NA
ATOM     12  C   UNL     1       3.229   4.578  19.595  0.00  0.00    +0.000 C 
ENDROOT
BRANCH  12  13
ATOM     13  N   UNL     1       3.467   3.164  19.319  0.00  0.00    +0.000 N 
ATOM     14  C   UNL     1       4.562   2.419  19.670  0.00  0.00    +0.000 A 
ATOM     15  C   UNL     1       4.443   1.252  18.952  0.00  0.00    +0.000 A 
ATOM     16  N   UNL     1       3.304   1.261  18.191  0.00  0.00    +0.000 NA
ATOM     17  C   UNL     1       2.725   2.414  18.443  0.00  0.00    +0.000 A 
ENDBRANCH  12  13
BRANCH  11  18
ATOM     18  O   UNL     1       4.459   4.192  17.089  0.00  0.00    +0.000 OA
BRANCH  18  19
ATOM     19  C   UNL     1       5.690   4.446  16.407  0.00  0.00    +0.000 C 
BRANCH  19  20
ATOM     20  C   UNL     1       6.544   5.398  17.205  0.00  0.00    +0.000 A 
ATOM     21  C   UNL     1       6.801   6.694  16.737  0.00  0.00    +0.000 A 
ATOM     22  C   UNL     1       7.607   7.564  17.475  0.00  0.00    +0.000 A 
ATOM     23  C   UNL     1       8.169   7.143  18.679  0.00  0.00    +0.000 A 
ATOM     24  C   UNL     1       7.931   5.852  19.146  0.00  0.00    +0.000 A 
ATOM     25  C   UNL     1       7.126   4.982  18.410  0.00  0.00    +0.000 A 
ENDBRANCH  19  20
ENDBRANCH  18  19
ENDBRANCH  11  18
TORSDOF 4
ENDMDL
MODEL 4
REMARK VINA RESULT:      -7.5      2.321      6.534
REMARK  Name = 
REMARK  5 active torsions:
REMARK  status: ('A' for Active; 'I' for Inactive)
REMARK    1  A    between atoms: C_1  and  C_2
REMARK    2  A    between atoms: N_11  and  O_12
REMARK    3  A    between atoms: O_12  and  C_13
REMARK    4  A    between atoms: C_13  and  C_14
REMARK    5  A    between atoms: C_20  and  N_21
REMARK                            x       y       z     vdW  Elec       q    Type
REMARK                         _______ _______ _______ _____ _____    ______ ____
ROOT
ATOM      1  C   UNL     1       7.283   7.212  17.368  0.00  0.00    +0.000 C 
ATOM      2  C   UNL     1       6.498   6.392  16.341  0.00  0.00    +0.000 C 
ATOM      3  O   UNL     1       7.492   5.873  15.447  0.00  0.00    +0.000 OA
ATOM      4  C   UNL     1       6.977   5.081  14.464  0.00  0.00    +0.000 A 
ATOM      5  C   UNL     1       7.789   4.914  13.341  0.00  0.00    +0.000 A 
ATOM      6  C   UNL     1       7.371   4.096  12.293  0.00  0.00    +0.000 A 
ATOM      7  C   UNL     1       6.143   3.442  12.368  0.00  0.00    +0.000 A 
ATOM      8  C   UNL     1       5.330   3.604  13.495  0.00  0.00    +0.000 A 
ATOM      9  C   UNL     1       5.748   4.423  14.553  0.00  0.00    +0.000 A 
ATOM     10  C   UNL     1       4.942   4.536  15.808  0.00  0.00    +0.000 C 
ATOM     11  N   UNL     1       3.777   3.954  15.816  0.00  0.00    +0.000 NA
ATOM     12  C   UNL     1       5.664   5.248  16.956  0.00  0.00    +0.000 C 
ENDROOT
BRANCH  12  13
ATOM     13  N   UNL     1       4.842   5.759  18.049  0.00  0.00    +0.000 N 
ATOM     14  C   UNL     1       4.797   5.306  19.341  0.00  0.00    +0.000 A 
ATOM     15  C   UNL     1       3.689   5.909  19.891  0.00  0.00    +0.000 A 
ATOM     16  N   UNL     1       3.074   6.725  18.979  0.00  0.00    +0.000 NA
ATOM     17  C   UNL     1       3.797   6.631  17.884  0.00  0.00    +0.000 A 
ENDBRANCH  12  13
BRANCH  11  18
ATOM     18  O   UNL     1       3.157   3.967  17.068  0.00  0.00    +0.000 OA
BRANCH  18  19
ATOM     19  C   UNL     1       2.981   2.629  17.542  0.00  0.00    +0.000 C 
BRANCH  19  20
ATOM     20  C   UNL     1       2.499   2.638  18.969  0.00  0.00    +0.000 A 
ATOM     21  C   UNL     1       1.206   3.078  19.287  0.00  0.00    +0.000 A 
ATOM     22  C   UNL     1       0.773   3.097  20.614  0.00  0.00    +0.000 A 
ATOM     23  C   UNL     1       1.629   2.685  21.634  0.00  0.00    +0.000 A 
ATOM     24  C   UNL     1       2.920   2.259  21.331  0.00  0.00    +0.000 A 
ATOM     25  C   UNL     1       3.355   2.238  20.005  0.00  0.00    +0.000 A 
ENDBRANCH  19  20
ENDBRANCH  18  19
ENDBRANCH  11  18
TORSDOF 4
ENDMDL
MODEL 5
REMARK VINA RESULT:      -7.3      2.628      6.620
REMARK  Name = 
REMARK  5 active torsions:
REMARK  status: ('A' for Active; 'I' for Inactive)
REMARK    1  A    between atoms: C_1  and  C_2
REMARK    2  A    between atoms: N_11  and  O_12
REMARK    3  A    between atoms: O_12  and  C_13
REMARK    4  A    between atoms: C_13  and  C_14
REMARK    5  A    between atoms: C_20  and  N_21
REMARK                            x       y       z     vdW  Elec       q    Type
REMARK                         _______ _______ _______ _____ _____    ______ ____
ROOT
ATOM      1  C   UNL     1       7.453   7.002  17.069  0.00  0.00    +0.000 C 
ATOM      2  C   UNL     1       6.724   6.088  16.079  0.00  0.00    +0.000 C 
ATOM      3  O   UNL     1       7.658   5.881  15.012  0.00  0.00    +0.000 OA
ATOM      4  C   UNL     1       7.189   5.056  14.032  0.00  0.00    +0.000 A 
ATOM      5  C   UNL     1       7.834   5.162  12.799  0.00  0.00    +0.000 A 
ATOM      6  C   UNL     1       7.454   4.339  11.740  0.00  0.00    +0.000 A 
ATOM      7  C   UNL     1       6.431   3.409  11.914  0.00  0.00    +0.000 A 
ATOM      8  C   UNL     1       5.787   3.298  13.151  0.00  0.00    +0.000 A 
ATOM      9  C   UNL     1       6.168   4.121  14.220  0.00  0.00    +0.000 A 
ATOM     10  C   UNL     1       5.562   3.956  15.577  0.00  0.00    +0.000 C 
ATOM     11  N   UNL     1       4.573   3.115  15.684  0.00  0.00    +0.000 NA
ATOM     12  C   UNL     1       6.274   4.741  16.683  0.00  0.00    +0.000 C 
ENDROOT
BRANCH  12  13
ATOM     13  N   UNL     1       5.537   4.969  17.923  0.00  0.00    +0.000 N 
ATOM     14  C   UNL     1       4.475   5.812  18.118  0.00  0.00    +0.000 A 
ATOM     15  C   UNL     1       4.326   5.885  19.484  0.00  0.00    +0.000 A 
ATOM     16  N   UNL     1       5.251   5.100  20.119  0.00  0.00    +0.000 NA
ATOM     17  C   UNL     1       5.957   4.547  19.158  0.00  0.00    +0.000 A 
ENDBRANCH  12  13
BRANCH  11  18
ATOM     18  O   UNL     1       4.167   2.897  17.003  0.00  0.00    +0.000 OA
BRANCH  18  19
ATOM     19  C   UNL     1       2.740   2.831  17.072  0.00  0.00    +0.000 C 
BRANCH  19  20
ATOM     20  C   UNL     1       2.277   2.981  18.498  0.00  0.00    +0.000 A 
ATOM     21  C   UNL     1       1.163   3.774  18.810  0.00  0.00    +0.000 A 
ATOM     22  C   UNL     1       0.751   3.921  20.136  0.00  0.00    +0.000 A 
ATOM     23  C   UNL     1       1.450   3.284  21.160  0.00  0.00    +0.000 A 
ATOM     24  C   UNL     1       2.566   2.504  20.862  0.00  0.00    +0.000 A 
ATOM     25  C   UNL     1       2.979   2.356  19.538  0.00  0.00    +0.000 A 
ENDBRANCH  19  20
ENDBRANCH  18  19
ENDBRANCH  11  18
TORSDOF 4
ENDMDL
MODEL 6
REMARK VINA RESULT:      -7.1      2.046      5.666
REMARK  Name = 
REMARK  5 active torsions:
REMARK  status: ('A' for Active; 'I' for Inactive)
REMARK    1  A    between atoms: C_1  and  C_2
REMARK    2  A    between atoms: N_11  and  O_12
REMARK    3  A    between atoms: O_12  and  C_13
REMARK    4  A    between atoms: C_13  and  C_14
REMARK    5  A    between atoms: C_20  and  N_21
REMARK                            x       y       z     vdW  Elec       q    Type
REMARK                         _______ _______ _______ _____ _____    ______ ____
ROOT
ATOM      1  C   UNL     1       3.686   1.345  18.528  0.00  0.00    +0.000 C 
ATOM      2  C   UNL     1       4.089   2.785  18.199  0.00  0.00    +0.000 C 
ATOM      3  O   UNL     1       4.595   2.730  16.859  0.00  0.00    +0.000 OA
ATOM      4  C   UNL     1       4.985   3.944  16.376  0.00  0.00    +0.000 A 
ATOM      5  C   UNL     1       5.867   3.904  15.294  0.00  0.00    +0.000 A 
ATOM      6  C   UNL     1       6.301   5.089  14.703  0.00  0.00    +0.000 A 
ATOM      7  C   UNL     1       5.851   6.315  15.190  0.00  0.00    +0.000 A 
ATOM      8  C   UNL     1       4.962   6.356  16.270  0.00  0.00    +0.000 A 
ATOM      9  C   UNL     1       4.521   5.167  16.866  0.00  0.00    +0.000 A 
ATOM     10  C   UNL     1       3.499   5.181  17.958  0.00  0.00    +0.000 C 
ATOM     11  N   UNL     1       3.146   6.347  18.420  0.00  0.00    +0.000 NA
ATOM     12  C   UNL     1       2.933   3.802  18.307  0.00  0.00    +0.000 C 
ENDROOT
BRANCH  12  13
ATOM     13  N   UNL     1       2.261   3.661  19.595  0.00  0.00    +0.000 N 
ATOM     14  C   UNL     1       2.831   3.682  20.840  0.00  0.00    +0.000 A 
ATOM     15  C   UNL     1       1.848   3.231  21.690  0.00  0.00    +0.000 A 
ATOM     16  N   UNL     1       0.697   2.955  21.002  0.00  0.00    +0.000 NA
ATOM     17  C   UNL     1       0.965   3.238  19.746  0.00  0.00    +0.000 A 
ENDBRANCH  12  13
BRANCH  11  18
ATOM     18  O   UNL     1       2.078   6.289  19.319  0.00  0.00    +0.000 OA
BRANCH  18  19
ATOM     19  C   UNL     1       2.233   7.288  20.330  0.00  0.00    +0.000 C 
BRANCH  19  20
ATOM     20  C   UNL     1       1.340   8.468  20.043  0.00  0.00    +0.000 A 
ATOM     21  C   UNL     1       1.404   9.131  18.809  0.00  0.00    +0.000 A 
ATOM     22  C   UNL     1       0.585  10.234  18.558  0.00  0.00    +0.000 A 
ATOM     23  C   UNL     1      -0.298  10.686  19.537  0.00  0.00    +0.000 A 
ATOM     24  C   UNL     1      -0.360  10.041  20.771  0.00  0.00    +0.000 A 
ATOM     25  C   UNL     1       0.458   8.940  21.024  0.00  0.00    +0.000 A 
ENDBRANCH  19  20
ENDBRANCH  18  19
ENDBRANCH  11  18
TORSDOF 4
ENDMDL
MODEL 7
REMARK VINA RESULT:      -7.0      1.992      5.815
REMARK  Name = 
REMARK  5 active torsions:
REMARK  status: ('A' for Active; 'I' for Inactive)
REMARK    1  A    between atoms: C_1  and  C_2
REMARK    2  A    between atoms: N_11  and  O_12
REMARK    3  A    between atoms: O_12  and  C_13
REMARK    4  A    between atoms: C_13  and  C_14
REMARK    5  A    between atoms: C_20  and  N_21
REMARK                            x       y       z     vdW  Elec       q    Type
REMARK                         _______ _______ _______ _____ _____    ______ ____
ROOT
ATOM      1  C   UNL     1       3.428   1.785  18.347  0.00  0.00    +0.000 C 
ATOM      2  C   UNL     1       4.124   3.080  17.918  0.00  0.00    +0.000 C 
ATOM      3  O   UNL     1       4.625   2.809  16.602  0.00  0.00    +0.000 OA
ATOM      4  C   UNL     1       5.263   3.874  16.035  0.00  0.00    +0.000 A 
ATOM      5  C   UNL     1       6.133   3.563  14.988  0.00  0.00    +0.000 A 
ATOM      6  C   UNL     1       6.809   4.581  14.318  0.00  0.00    +0.000 A 
ATOM      7  C   UNL     1       6.614   5.910  14.691  0.00  0.00    +0.000 A 
ATOM      8  C   UNL     1       5.738   6.222  15.738  0.00  0.00    +0.000 A 
ATOM      9  C   UNL     1       5.054   5.202  16.412  0.00  0.00    +0.000 A 
ATOM     10  C   UNL     1       4.042   5.517  17.468  0.00  0.00    +0.000 C 
ATOM     11  N   UNL     1       3.930   6.765  17.825  0.00  0.00    +0.000 NA
ATOM     12  C   UNL     1       3.200   4.316  17.909  0.00  0.00    +0.000 C 
ENDROOT
BRANCH  12  13
ATOM     13  N   UNL     1       2.496   4.424  19.183  0.00  0.00    +0.000 N 
ATOM     14  C   UNL     1       3.045   4.524  20.434  0.00  0.00    +0.000 A 
ATOM     15  C   UNL     1       1.999   4.314  21.301  0.00  0.00    +0.000 A 
ATOM     16  N   UNL     1       0.831   4.107  20.615  0.00  0.00    +0.000 NA
ATOM     17  C   UNL     1       1.153   4.196  19.344  0.00  0.00    +0.000 A 
ENDBRANCH  12  13
BRANCH  11  18
ATOM     18  O   UNL     1       2.861   7.001  18.693  0.00  0.00    +0.000 OA
BRANCH  18  19
ATOM     19  C   UNL     1       2.158   8.181  18.295  0.00  0.00    +0.000 C 
BRANCH  19  20
ATOM     20  C   UNL     1       1.383   8.747  19.457  0.00  0.00    +0.000 A 
ATOM     21  C   UNL     1       0.587   9.890  19.298  0.00  0.00    +0.000 A 
ATOM     22  C   UNL     1      -0.115  10.417  20.384  0.00  0.00    +0.000 A 
ATOM     23  C   UNL     1      -0.023   9.811  21.636  0.00  0.00    +0.000 A 
ATOM     24  C   UNL     1       0.776   8.683  21.807  0.00  0.00    +0.000 A 
ATOM     25  C   UNL     1       1.478   8.155  20.724  0.00  0.00    +0.000 A 
ENDBRANCH  19  20
ENDBRANCH  18  19
ENDBRANCH  11  18
TORSDOF 4
ENDMDL
MODEL 8
REMARK VINA RESULT:      -6.8      1.311      1.883
REMARK  Name = 
REMARK  5 active torsions:
REMARK  status: ('A' for Active; 'I' for Inactive)
REMARK    1  A    between atoms: C_1  and  C_2
REMARK    2  A    between atoms: N_11  and  O_12
REMARK    3  A    between atoms: O_12  and  C_13
REMARK    4  A    between atoms: C_13  and  C_14
REMARK    5  A    between atoms: C_20  and  N_21
REMARK                            x       y       z     vdW  Elec       q    Type
REMARK                         _______ _______ _______ _____ _____    ______ ____
ROOT
ATOM      1  C   UNL     1       1.750   4.267  21.206  0.00  0.00    +0.000 C 
ATOM      2  C   UNL     1       1.571   5.570  20.422  0.00  0.00    +0.000 C 
ATOM      3  O   UNL     1       1.385   6.580  21.423  0.00  0.00    +0.000 OA
ATOM      4  C   UNL     1       1.235   7.833  20.907  0.00  0.00    +0.000 A 
ATOM      5  C   UNL     1       0.626   8.761  21.755  0.00  0.00    +0.000 A 
ATOM      6  C   UNL     1       0.455  10.080  21.337  0.00  0.00    +0.000 A 
ATOM      7  C   UNL     1       0.896  10.473  20.075  0.00  0.00    +0.000 A 
ATOM      8  C   UNL     1       1.511   9.545  19.227  0.00  0.00    +0.000 A 
ATOM      9  C   UNL     1       1.688   8.219  19.643  0.00  0.00    +0.000 A 
ATOM     10  C   UNL     1       2.427   7.234  18.795  0.00  0.00    +0.000 C 
ATOM     11  N   UNL     1       2.773   7.625  17.602  0.00  0.00    +0.000 NA
ATOM     12  C   UNL     1       2.763   5.920  19.506  0.00  0.00    +0.000 C 
ENDROOT
BRANCH  12  13
ATOM     13  N   UNL     1       3.103   4.773  18.668  0.00  0.00    +0.000 N 
ATOM     14  C   UNL     1       2.320   4.172  17.719  0.00  0.00    +0.000 A 
ATOM     15  C   UNL     1       2.962   2.993  17.422  0.00  0.00    +0.000 A 
ATOM     16  N   UNL     1       4.117   2.869  18.148  0.00  0.00    +0.000 NA
ATOM     17  C   UNL     1       4.188   3.961  18.877  0.00  0.00    +0.000 A 
ENDBRANCH  12  13
BRANCH  11  18
ATOM     18  O   UNL     1       3.594   6.713  16.933  0.00  0.00    +0.000 OA
BRANCH  18  19
ATOM     19  C   UNL     1       4.878   7.295  16.693  0.00  0.00    +0.000 C 
BRANCH  19  20
ATOM     20  C   UNL     1       5.970   6.316  17.039  0.00  0.00    +0.000 A 
ATOM     21  C   UNL     1       6.310   5.280  16.157  0.00  0.00    +0.000 A 
ATOM     22  C   UNL     1       7.312   4.367  16.493  0.00  0.00    +0.000 A 
ATOM     23  C   UNL     1       7.977   4.477  17.712  0.00  0.00    +0.000 A 
ATOM     24  C   UNL     1       7.638   5.495  18.602  0.00  0.00    +0.000 A 
ATOM     25  C   UNL     1       6.637   6.408  18.268  0.00  0.00    +0.000 A 
ENDBRANCH  19  20
ENDBRANCH  18  19
ENDBRANCH  11  18
TORSDOF 4
ENDMDL
MODEL 9
REMARK VINA RESULT:      -6.7      2.051      5.375
REMARK  Name = 
REMARK  5 active torsions:
REMARK  status: ('A' for Active; 'I' for Inactive)
REMARK    1  A    between atoms: C_1  and  C_2
REMARK    2  A    between atoms: N_11  and  O_12
REMARK    3  A    between atoms: O_12  and  C_13
REMARK    4  A    between atoms: C_13  and  C_14
REMARK    5  A    between atoms: C_20  and  N_21
REMARK                            x       y       z     vdW  Elec       q    Type
REMARK                         _______ _______ _______ _____ _____    ______ ____
ROOT
ATOM      1  C   UNL     1       3.737   1.140  18.271  0.00  0.00    +0.000 C 
ATOM      2  C   UNL     1       4.049   2.634  18.156  0.00  0.00    +0.000 C 
ATOM      3  O   UNL     1       4.396   2.834  16.779  0.00  0.00    +0.000 OA
ATOM      4  C   UNL     1       4.683   4.132  16.475  0.00  0.00    +0.000 A 
ATOM      5  C   UNL     1       5.433   4.323  15.313  0.00  0.00    +0.000 A 
ATOM      6  C   UNL     1       5.752   5.613  14.893  0.00  0.00    +0.000 A 
ATOM      7  C   UNL     1       5.319   6.712  15.632  0.00  0.00    +0.000 A 
ATOM      8  C   UNL     1       4.562   6.522  16.794  0.00  0.00    +0.000 A 
ATOM      9  C   UNL     1       4.236   5.227  17.218  0.00  0.00    +0.000 A 
ATOM     10  C   UNL     1       3.349   5.000  18.401  0.00  0.00    +0.000 C 
ATOM     11  N   UNL     1       3.011   6.050  19.094  0.00  0.00    +0.000 NA
ATOM     12  C   UNL     1       2.878   3.553  18.564  0.00  0.00    +0.000 C 
ENDROOT
BRANCH  12  13
ATOM     13  N   UNL     1       2.366   3.159  19.874  0.00  0.00    +0.000 N 
ATOM     14  C   UNL     1       1.057   3.023  20.251  0.00  0.00    +0.000 A 
ATOM     15  C   UNL     1       1.090   2.919  21.623  0.00  0.00    +0.000 A 
ATOM     16  N   UNL     1       2.378   2.972  22.085  0.00  0.00    +0.000 NA
ATOM     17  C   UNL     1       3.128   3.099  21.013  0.00  0.00    +0.000 A 
ENDBRANCH  12  13
BRANCH  11  18
ATOM     18  O   UNL     1       2.059   5.782  20.081  0.00  0.00    +0.000 OA
BRANCH  18  19
ATOM     19  C   UNL     1       2.006   6.862  21.017  0.00  0.00    +0.000 C 
BRANCH  19  20
ATOM     20  C   UNL     1       1.371   8.073  20.385  0.00  0.00    +0.000 A 
ATOM     21  C   UNL     1       0.376   8.795  21.060  0.00  0.00    +0.000 A 
ATOM     22  C   UNL     1      -0.218   9.907  20.459  0.00  0.00    +0.000 A 
ATOM     23  C   UNL     1       0.170  10.302  19.181  0.00  0.00    +0.000 A 
ATOM     24  C   UNL     1       1.149   9.584  18.497  0.00  0.00    +0.000 A 
ATOM     25  C   UNL     1       1.744   8.473  19.095  0.00  0.00    +0.000 A 
ENDBRANCH  19  20
ENDBRANCH  18  19
ENDBRANCH  11  18
TORSDOF 4
ENDMDL
