MODEL 1
REMARK VINA RESULT:      -7.1      0.000      0.000
REMARK  Name = 
REMARK  4 active torsions:
REMARK  status: ('A' for Active; 'I' for Inactive)
REMARK    1  A    between atoms: C_2  and  C_3
REMARK    2  A    between atoms: C_3  and  C_14
REMARK    3  A    between atoms: C_4  and  C_5
REMARK    4  A    between atoms: C_6  and  O_7
REMARK                            x       y       z     vdW  Elec       q    Type
REMARK                         _______ _______ _______ _____ _____    ______ ____
ROOT
ATOM      1  C   UNL     1       4.115   4.276  17.558  0.00  0.00    +0.000 A 
ATOM      2  C   UNL     1       3.904   3.020  18.151  0.00  0.00    +0.000 A 
ATOM      3  C   UNL     1       3.313   2.905  19.406  0.00  0.00    +0.000 A 
ATOM      4  C   UNL     1       2.914   4.051  20.087  0.00  0.00    +0.000 A 
ATOM      5 CL   UNL     1       2.222   3.916  21.656  0.00  0.00    +0.000 Cl
ATOM      6  C   UNL     1       3.075   5.308  19.509  0.00  0.00    +0.000 A 
ATOM      7  C   UNL     1       3.665   5.418  18.248  0.00  0.00    +0.000 A 
ATOM      8 CL   UNL     1       3.826   7.004  17.572  0.00  0.00    +0.000 Cl
ENDROOT
BRANCH   1  10
ATOM      9  C   UNL     1       6.199   4.493  16.217  0.00  0.00    +0.000 C 
ATOM     10  C   UNL     1       4.855   4.380  16.288  0.00  0.00    +0.000 C 
BRANCH   9  11
ATOM     11  C   UNL     1       6.808   4.529  14.854  0.00  0.00    +0.000 C 
ATOM     12  N   UNL     1       6.363   3.620  13.944  0.00  0.00    +0.000 N 
ATOM     13  O   UNL     1       7.660   5.353  14.535  0.00  0.00    +0.000 OA
ATOM     14  H   UNL     1       5.650   2.921  14.110  0.00  0.00    +0.000 HD
ATOM     15  H   UNL     1       6.769   3.658  13.016  0.00  0.00    +0.000 HD
ENDBRANCH   9  11
BRANCH   9  17
ATOM     16  N   UNL     1       7.738   4.605  18.287  0.00  0.00    +0.000 NA
ATOM     17  C   UNL     1       7.031   4.556  17.368  0.00  0.00    +0.000 C 
ENDBRANCH   9  17
ENDBRANCH   1  10
BRANCH   2  18
ATOM     18  O   UNL     1       4.271   1.843  17.555  0.00  0.00    +0.000 OA
ATOM     19  H   UNL     1       3.697   1.656  16.794  0.00  0.00    +0.000 HD
ENDBRANCH   2  18
TORSDOF 4
ENDMDL
MODEL 2
REMARK VINA RESULT:      -6.9      2.138      2.978
REMARK  Name = 
REMARK  4 active torsions:
REMARK  status: ('A' for Active; 'I' for Inactive)
REMARK    1  A    between atoms: C_2  and  C_3
REMARK    2  A    between atoms: C_3  and  C_14
REMARK    3  A    between atoms: C_4  and  C_5
REMARK    4  A    between atoms: C_6  and  O_7
REMARK                            x       y       z     vdW  Elec       q    Type
REMARK                         _______ _______ _______ _____ _____    ______ ____
ROOT
ATOM      1  C   UNL     1       4.306   4.316  19.096  0.00  0.00    +0.000 A 
ATOM      2  C   UNL     1       4.172   2.959  19.433  0.00  0.00    +0.000 A 
ATOM      3  C   UNL     1       2.963   2.289  19.264  0.00  0.00    +0.000 A 
ATOM      4  C   UNL     1       1.867   2.969  18.744  0.00  0.00    +0.000 A 
ATOM      5 CL   UNL     1       0.360   2.157  18.572  0.00  0.00    +0.000 Cl
ATOM      6  C   UNL     1       1.978   4.304  18.364  0.00  0.00    +0.000 A 
ATOM      7  C   UNL     1       3.194   4.971  18.532  0.00  0.00    +0.000 A 
ATOM      8 CL   UNL     1       3.279   6.625  18.030  0.00  0.00    +0.000 Cl
ENDROOT
BRANCH   1  10
ATOM      9  C   UNL     1       6.567   5.178  18.519  0.00  0.00    +0.000 C 
ATOM     10  C   UNL     1       5.556   5.035  19.401  0.00  0.00    +0.000 C 
BRANCH   9  11
ATOM     11  C   UNL     1       7.745   5.984  18.958  0.00  0.00    +0.000 C 
ATOM     12  N   UNL     1       8.448   5.533  20.032  0.00  0.00    +0.000 N 
ATOM     13  O   UNL     1       8.100   7.003  18.372  0.00  0.00    +0.000 OA
ATOM     14  H   UNL     1       8.245   4.694  20.560  0.00  0.00    +0.000 HD
ATOM     15  H   UNL     1       9.256   6.076  20.317  0.00  0.00    +0.000 HD
ENDBRANCH   9  11
BRANCH   9  17
ATOM     16  N   UNL     1       6.486   4.182  16.138  0.00  0.00    +0.000 NA
ATOM     17  C   UNL     1       6.537   4.618  17.213  0.00  0.00    +0.000 C 
ENDBRANCH   9  17
ENDBRANCH   1  10
BRANCH   2  18
ATOM     18  O   UNL     1       5.197   2.216  19.957  0.00  0.00    +0.000 OA
ATOM     19  H   UNL     1       4.967   1.272  19.950  0.00  0.00    +0.000 HD
ENDBRANCH   2  18
TORSDOF 4
ENDMDL
MODEL 3
REMARK VINA RESULT:      -6.9      1.640      1.724
REMARK  Name = 
REMARK  4 active torsions:
REMARK  status: ('A' for Active; 'I' for Inactive)
REMARK    1  A    between atoms: C_2  and  C_3
REMARK    2  A    between atoms: C_3  and  C_14
REMARK    3  A    between atoms: C_4  and  C_5
REMARK    4  A    between atoms: C_6  and  O_7
REMARK                            x       y       z     vdW  Elec       q    Type
REMARK                         _______ _______ _______ _____ _____    ______ ____
ROOT
ATOM      1  C   UNL     1       3.479   4.545  18.422  0.00  0.00    +0.000 A 
ATOM      2  C   UNL     1       3.507   3.149  18.576  0.00  0.00    +0.000 A 
ATOM      3  C   UNL     1       2.846   2.526  19.631  0.00  0.00    +0.000 A 
ATOM      4  C   UNL     1       2.136   3.295  20.548  0.00  0.00    +0.000 A 
ATOM      5 CL   UNL     1       1.352   2.533  21.876  0.00  0.00    +0.000 Cl
ATOM      6  C   UNL     1       2.057   4.677  20.400  0.00  0.00    +0.000 A 
ATOM      7  C   UNL     1       2.719   5.297  19.338  0.00  0.00    +0.000 A 
ATOM      8 CL   UNL     1       2.575   7.016  19.196  0.00  0.00    +0.000 Cl
ENDROOT
BRANCH   1  10
ATOM      9  C   UNL     1       5.572   5.572  17.553  0.00  0.00    +0.000 C 
ATOM     10  C   UNL     1       4.290   5.190  17.374  0.00  0.00    +0.000 C 
BRANCH   9  11
ATOM     11  C   UNL     1       6.279   6.159  16.377  0.00  0.00    +0.000 C 
ATOM     12  N   UNL     1       5.531   6.453  15.278  0.00  0.00    +0.000 N 
ATOM     13  O   UNL     1       7.483   6.400  16.385  0.00  0.00    +0.000 OA
ATOM     14  H   UNL     1       4.533   6.311  15.190  0.00  0.00    +0.000 HD
ATOM     15  H   UNL     1       6.013   6.865  14.487  0.00  0.00    +0.000 HD
ENDBRANCH   9  11
BRANCH   9  17
ATOM     16  N   UNL     1       6.848   5.299  19.781  0.00  0.00    +0.000 NA
ATOM     17  C   UNL     1       6.259   5.416  18.788  0.00  0.00    +0.000 C 
ENDBRANCH   9  17
ENDBRANCH   1  10
BRANCH   2  18
ATOM     18  O   UNL     1       4.187   2.318  17.725  0.00  0.00    +0.000 OA
ATOM     19  H   UNL     1       4.588   1.584  18.219  0.00  0.00    +0.000 HD
ENDBRANCH   2  18
TORSDOF 4
ENDMDL
MODEL 4
REMARK VINA RESULT:      -6.9      1.255      1.273
REMARK  Name = 
REMARK  4 active torsions:
REMARK  status: ('A' for Active; 'I' for Inactive)
REMARK    1  A    between atoms: C_2  and  C_3
REMARK    2  A    between atoms: C_3  and  C_14
REMARK    3  A    between atoms: C_4  and  C_5
REMARK    4  A    between atoms: C_6  and  O_7
REMARK                            x       y       z     vdW  Elec       q    Type
REMARK                         _______ _______ _______ _____ _____    ______ ____
ROOT
ATOM      1  C   UNL     1       3.593   3.706  17.843  0.00  0.00    +0.000 A 
ATOM      2  C   UNL     1       3.509   2.404  18.362  0.00  0.00    +0.000 A 
ATOM      3  C   UNL     1       2.776   2.131  19.514  0.00  0.00    +0.000 A 
ATOM      4  C   UNL     1       2.105   3.164  20.162  0.00  0.00    +0.000 A 
ATOM      5 CL   UNL     1       1.231   2.840  21.608  0.00  0.00    +0.000 Cl
ATOM      6  C   UNL     1       2.136   4.458  19.650  0.00  0.00    +0.000 A 
ATOM      7  C   UNL     1       2.871   4.726  18.493  0.00  0.00    +0.000 A 
ATOM      8 CL   UNL     1       2.864   6.350  17.894  0.00  0.00    +0.000 Cl
ENDROOT
BRANCH   1  10
ATOM      9  C   UNL     1       5.753   4.412  16.829  0.00  0.00    +0.000 C 
ATOM     10  C   UNL     1       4.477   3.992  16.698  0.00  0.00    +0.000 C 
BRANCH   9  11
ATOM     11  C   UNL     1       6.540   4.602  15.575  0.00  0.00    +0.000 C 
ATOM     12  N   UNL     1       7.443   5.620  15.549  0.00  0.00    +0.000 N 
ATOM     13  O   UNL     1       6.413   3.865  14.601  0.00  0.00    +0.000 OA
ATOM     14  H   UNL     1       7.631   6.260  16.310  0.00  0.00    +0.000 HD
ATOM     15  H   UNL     1       7.985   5.735  14.700  0.00  0.00    +0.000 HD
ENDBRANCH   9  11
BRANCH   9  17
ATOM     16  N   UNL     1       6.885   4.861  19.106  0.00  0.00    +0.000 NA
ATOM     17  C   UNL     1       6.360   4.653  18.092  0.00  0.00    +0.000 C 
ENDBRANCH   9  17
ENDBRANCH   1  10
BRANCH   2  18
ATOM     18  O   UNL     1       4.144   1.332  17.792  0.00  0.00    +0.000 OA
ATOM     19  H   UNL     1       3.742   1.119  16.933  0.00  0.00    +0.000 HD
ENDBRANCH   2  18
TORSDOF 4
ENDMDL
MODEL 5
REMARK VINA RESULT:      -6.6      1.971      2.766
REMARK  Name = 
REMARK  4 active torsions:
REMARK  status: ('A' for Active; 'I' for Inactive)
REMARK    1  A    between atoms: C_2  and  C_3
REMARK    2  A    between atoms: C_3  and  C_14
REMARK    3  A    between atoms: C_4  and  C_5
REMARK    4  A    between atoms: C_6  and  O_7
REMARK                            x       y       z     vdW  Elec       q    Type
REMARK                         _______ _______ _______ _____ _____    ______ ____
ROOT
ATOM      1  C   UNL     1       4.261   4.914  18.662  0.00  0.00    +0.000 A 
ATOM      2  C   UNL     1       4.283   3.555  19.014  0.00  0.00    +0.000 A 
ATOM      3  C   UNL     1       3.109   2.808  19.083  0.00  0.00    +0.000 A 
ATOM      4  C   UNL     1       1.891   3.413  18.790  0.00  0.00    +0.000 A 
ATOM      5 CL   UNL     1       0.435   2.506  18.913  0.00  0.00    +0.000 Cl
ATOM      6  C   UNL     1       1.841   4.749  18.400  0.00  0.00    +0.000 A 
ATOM      7  C   UNL     1       3.021   5.493  18.330  0.00  0.00    +0.000 A 
ATOM      8 CL   UNL     1       2.901   7.145  17.826  0.00  0.00    +0.000 Cl
ENDROOT
BRANCH   1  10
ATOM      9  C   UNL     1       6.252   5.998  17.637  0.00  0.00    +0.000 C 
ATOM     10  C   UNL     1       5.498   5.713  18.720  0.00  0.00    +0.000 C 
BRANCH   9  11
ATOM     11  C   UNL     1       7.446   6.869  17.848  0.00  0.00    +0.000 C 
ATOM     12  N   UNL     1       8.209   6.632  18.950  0.00  0.00    +0.000 N 
ATOM     13  O   UNL     1       7.763   7.755  17.059  0.00  0.00    +0.000 OA
ATOM     14  H   UNL     1       8.039   5.911  19.640  0.00  0.00    +0.000 HD
ATOM     15  H   UNL     1       9.027   7.216  19.081  0.00  0.00    +0.000 HD
ENDBRANCH   9  11
BRANCH   9  17
ATOM     16  N   UNL     1       5.718   5.127  15.266  0.00  0.00    +0.000 NA
ATOM     17  C   UNL     1       5.940   5.526  16.333  0.00  0.00    +0.000 C 
ENDBRANCH   9  17
ENDBRANCH   1  10
BRANCH   2  18
ATOM     18  O   UNL     1       5.436   2.883  19.325  0.00  0.00    +0.000 OA
ATOM     19  H   UNL     1       6.019   2.836  18.549  0.00  0.00    +0.000 HD
ENDBRANCH   2  18
TORSDOF 4
ENDMDL
MODEL 6
REMARK VINA RESULT:      -6.6      2.565      2.927
REMARK  Name = 
REMARK  4 active torsions:
REMARK  status: ('A' for Active; 'I' for Inactive)
REMARK    1  A    between atoms: C_2  and  C_3
REMARK    2  A    between atoms: C_3  and  C_14
REMARK    3  A    between atoms: C_4  and  C_5
REMARK    4  A    between atoms: C_6  and  O_7
REMARK                            x       y       z     vdW  Elec       q    Type
REMARK                         _______ _______ _______ _____ _____    ______ ____
ROOT
ATOM      1  C   UNL     1       3.465   4.649  18.835  0.00  0.00    +0.000 A 
ATOM      2  C   UNL     1       2.875   5.367  19.888  0.00  0.00    +0.000 A 
ATOM      3  C   UNL     1       2.143   4.721  20.882  0.00  0.00    +0.000 A 
ATOM      4  C   UNL     1       1.999   3.338  20.839  0.00  0.00    +0.000 A 
ATOM      5 CL   UNL     1       1.062   2.540  22.041  0.00  0.00    +0.000 Cl
ATOM      6  C   UNL     1       2.605   2.594  19.830  0.00  0.00    +0.000 A 
ATOM      7  C   UNL     1       3.340   3.247  18.838  0.00  0.00    +0.000 A 
ATOM      8 CL   UNL     1       4.083   2.271  17.616  0.00  0.00    +0.000 Cl
ENDROOT
BRANCH   1  10
ATOM      9  C   UNL     1       5.429   5.716  17.742  0.00  0.00    +0.000 C 
ATOM     10  C   UNL     1       4.125   5.366  17.729  0.00  0.00    +0.000 C 
BRANCH   9  11
ATOM     11  C   UNL     1       5.966   6.386  16.521  0.00  0.00    +0.000 C 
ATOM     12  N   UNL     1       7.315   6.540  16.432  0.00  0.00    +0.000 N 
ATOM     13  O   UNL     1       5.241   6.770  15.607  0.00  0.00    +0.000 OA
ATOM     14  H   UNL     1       7.990   6.235  17.122  0.00  0.00    +0.000 HD
ATOM     15  H   UNL     1       7.676   6.982  15.594  0.00  0.00    +0.000 HD
ENDBRANCH   9  11
BRANCH   9  17
ATOM     16  N   UNL     1       6.985   5.272  19.754  0.00  0.00    +0.000 NA
ATOM     17  C   UNL     1       6.288   5.454  18.843  0.00  0.00    +0.000 C 
ENDBRANCH   9  17
ENDBRANCH   1  10
BRANCH   2  18
ATOM     18  O   UNL     1       2.961   6.730  20.002  0.00  0.00    +0.000 OA
ATOM     19  H   UNL     1       3.007   7.140  19.123  0.00  0.00    +0.000 HD
ENDBRANCH   2  18
TORSDOF 4
ENDMDL
MODEL 7
REMARK VINA RESULT:      -6.5      2.042      2.063
REMARK  Name = 
REMARK  4 active torsions:
REMARK  status: ('A' for Active; 'I' for Inactive)
REMARK    1  A    between atoms: C_2  and  C_3
REMARK    2  A    between atoms: C_3  and  C_14
REMARK    3  A    between atoms: C_4  and  C_5
REMARK    4  A    between atoms: C_6  and  O_7
REMARK                            x       y       z     vdW  Elec       q    Type
REMARK                         _______ _______ _______ _____ _____    ______ ____
ROOT
ATOM      1  C   UNL     1       3.855   5.031  17.642  0.00  0.00    +0.000 A 
ATOM      2  C   UNL     1       3.841   3.629  17.725  0.00  0.00    +0.000 A 
ATOM      3  C   UNL     1       2.870   2.959  18.466  0.00  0.00    +0.000 A 
ATOM      4  C   UNL     1       1.889   3.688  19.131  0.00  0.00    +0.000 A 
ATOM      5 CL   UNL     1       0.712   2.867  20.081  0.00  0.00    +0.000 Cl
ATOM      6  C   UNL     1       1.853   5.076  19.036  0.00  0.00    +0.000 A 
ATOM      7  C   UNL     1       2.827   5.743  18.289  0.00  0.00    +0.000 A 
ATOM      8 CL   UNL     1       2.725   7.469  18.194  0.00  0.00    +0.000 Cl
ENDROOT
BRANCH   1  10
ATOM      9  C   UNL     1       6.174   5.924  17.521  0.00  0.00    +0.000 C 
ATOM     10  C   UNL     1       4.964   5.721  16.959  0.00  0.00    +0.000 C 
BRANCH   9  11
ATOM     11  C   UNL     1       7.214   6.587  16.680  0.00  0.00    +0.000 C 
ATOM     12  N   UNL     1       7.669   7.803  17.087  0.00  0.00    +0.000 N 
ATOM     13  O   UNL     1       7.675   6.063  15.669  0.00  0.00    +0.000 OA
ATOM     14  H   UNL     1       7.366   8.299  17.915  0.00  0.00    +0.000 HD
ATOM     15  H   UNL     1       8.386   8.242  16.520  0.00  0.00    +0.000 HD
ENDBRANCH   9  11
BRANCH   9  17
ATOM     16  N   UNL     1       6.731   5.155  19.922  0.00  0.00    +0.000 NA
ATOM     17  C   UNL     1       6.487   5.519  18.847  0.00  0.00    +0.000 C 
ENDBRANCH   9  17
ENDBRANCH   1  10
BRANCH   2  18
ATOM     18  O   UNL     1       4.772   2.836  17.109  0.00  0.00    +0.000 OA
ATOM     19  H   UNL     1       4.964   2.054  17.654  0.00  0.00    +0.000 HD
ENDBRANCH   2  18
TORSDOF 4
ENDMDL
MODEL 8
REMARK VINA RESULT:      -6.5      1.928      2.329
REMARK  Name = 
REMARK  4 active torsions:
REMARK  status: ('A' for Active; 'I' for Inactive)
REMARK    1  A    between atoms: C_2  and  C_3
REMARK    2  A    between atoms: C_3  and  C_14
REMARK    3  A    between atoms: C_4  and  C_5
REMARK    4  A    between atoms: C_6  and  O_7
REMARK                            x       y       z     vdW  Elec       q    Type
REMARK                         _______ _______ _______ _____ _____    ______ ____
ROOT
ATOM      1  C   UNL     1       4.094   4.943  17.329  0.00  0.00    +0.000 A 
ATOM      2  C   UNL     1       3.818   6.200  17.892  0.00  0.00    +0.000 A 
ATOM      3  C   UNL     1       2.988   6.327  19.003  0.00  0.00    +0.000 A 
ATOM      4  C   UNL     1       2.427   5.189  19.575  0.00  0.00    +0.000 A 
ATOM      5 CL   UNL     1       1.368   5.344  20.922  0.00  0.00    +0.000 Cl
ATOM      6  C   UNL     1       2.713   3.926  19.064  0.00  0.00    +0.000 A 
ATOM      7  C   UNL     1       3.548   3.804  17.951  0.00  0.00    +0.000 A 
ATOM      8 CL   UNL     1       3.880   2.209  17.367  0.00  0.00    +0.000 Cl
ENDROOT
BRANCH   1  10
ATOM      9  C   UNL     1       6.211   4.686  16.046  0.00  0.00    +0.000 C 
ATOM     10  C   UNL     1       4.870   4.846  16.080  0.00  0.00    +0.000 C 
BRANCH   9  11
ATOM     11  C   UNL     1       6.846   4.546  14.703  0.00  0.00    +0.000 C 
ATOM     12  N   UNL     1       6.368   3.572  13.881  0.00  0.00    +0.000 N 
ATOM     13  O   UNL     1       7.750   5.285  14.321  0.00  0.00    +0.000 OA
ATOM     14  H   UNL     1       5.614   2.934  14.101  0.00  0.00    +0.000 HD
ATOM     15  H   UNL     1       6.793   3.490  12.965  0.00  0.00    +0.000 HD
ENDBRANCH   9  11
BRANCH   9  17
ATOM     16  N   UNL     1       7.635   4.583  18.197  0.00  0.00    +0.000 NA
ATOM     17  C   UNL     1       7.011   4.627  17.220  0.00  0.00    +0.000 C 
ENDBRANCH   9  17
ENDBRANCH   1  10
BRANCH   2  18
ATOM     18  O   UNL     1       4.322   7.370  17.388  0.00  0.00    +0.000 OA
ATOM     19  H   UNL     1       4.225   7.391  16.422  0.00  0.00    +0.000 HD
ENDBRANCH   2  18
TORSDOF 4
ENDMDL
MODEL 9
REMARK VINA RESULT:      -6.4      3.724      4.869
REMARK  Name = 
REMARK  4 active torsions:
REMARK  status: ('A' for Active; 'I' for Inactive)
REMARK    1  A    between atoms: C_2  and  C_3
REMARK    2  A    between atoms: C_3  and  C_14
REMARK    3  A    between atoms: C_4  and  C_5
REMARK    4  A    between atoms: C_6  and  O_7
REMARK                            x       y       z     vdW  Elec       q    Type
REMARK                         _______ _______ _______ _____ _____    ______ ____
ROOT
ATOM      1  C   UNL     1       3.470   5.652  18.928  0.00  0.00    +0.000 A 
ATOM      2  C   UNL     1       2.599   6.295  19.824  0.00  0.00    +0.000 A 
ATOM      3  C   UNL     1       2.086   7.561  19.549  0.00  0.00    +0.000 A 
ATOM      4  C   UNL     1       2.434   8.200  18.363  0.00  0.00    +0.000 A 
ATOM      5 CL   UNL     1       1.836   9.780  18.038  0.00  0.00    +0.000 Cl
ATOM      6  C   UNL     1       3.263   7.572  17.438  0.00  0.00    +0.000 A 
ATOM      7  C   UNL     1       3.772   6.302  17.716  0.00  0.00    +0.000 A 
ATOM      8 CL   UNL     1       4.788   5.563  16.524  0.00  0.00    +0.000 Cl
ENDROOT
BRANCH   1  10
ATOM      9  C   UNL     1       3.513   3.170  19.102  0.00  0.00    +0.000 C 
ATOM     10  C   UNL     1       4.098   4.371  19.299  0.00  0.00    +0.000 C 
BRANCH   9  11
ATOM     11  C   UNL     1       4.302   1.959  19.476  0.00  0.00    +0.000 C 
ATOM     12  N   UNL     1       4.259   0.897  18.627  0.00  0.00    +0.000 N 
ATOM     13  O   UNL     1       4.990   1.910  20.492  0.00  0.00    +0.000 OA
ATOM     14  H   UNL     1       3.741   0.856  17.759  0.00  0.00    +0.000 HD
ATOM     15  H   UNL     1       4.808   0.082  18.878  0.00  0.00    +0.000 HD
ENDBRANCH   9  11
BRANCH   9  17
ATOM     16  N   UNL     1       1.165   2.884  18.068  0.00  0.00    +0.000 NA
ATOM     17  C   UNL     1       2.214   3.027  18.544  0.00  0.00    +0.000 C 
ENDBRANCH   9  17
ENDBRANCH   1  10
BRANCH   2  18
ATOM     18  O   UNL     1       2.212   5.742  21.015  0.00  0.00    +0.000 OA
ATOM     19  H   UNL     1       2.921   5.827  21.674  0.00  0.00    +0.000 HD
ENDBRANCH   2  18
TORSDOF 4
ENDMDL
