MODEL 1
REMARK VINA RESULT:      -6.5      0.000      0.000
REMARK  Name = 
REMARK  2 active torsions:
REMARK  status: ('A' for Active; 'I' for Inactive)
REMARK    1  A    between atoms: C_1  and  O_2
REMARK    2  A    between atoms: O_2  and  C_3
REMARK                            x       y       z     vdW  Elec       q    Type
REMARK                         _______ _______ _______ _____ _____    ______ ____
ROOT
ATOM      1  C   UNL     1       2.096   2.077  20.553  0.00  0.00    +0.000 C 
ATOM      2  C   UNL     1       1.324   2.888  21.601  0.00  0.00    +0.000 C 
ATOM      3  C   UNL     1       0.959   4.267  21.070  0.00  0.00    +0.000 C 
ATOM      4  C   UNL     1       2.172   5.039  20.535  0.00  0.00    +0.000 C 
ATOM      5  O   UNL     1       1.631   6.236  19.940  0.00  0.00    +0.000 OA
ATOM      6  C   UNL     1       2.642   7.005  19.282  0.00  0.00    +0.000 C 
ATOM      7  C   UNL     1       3.318   6.166  18.199  0.00  0.00    +0.000 C 
ATOM      8  N   UNL     1       4.029   5.047  18.828  0.00  0.00    +0.000 N 
ATOM      9  C   UNL     1       5.343   4.650  18.686  0.00  0.00    +0.000 C 
ATOM     10  O   UNL     1       5.745   3.636  19.267  0.00  0.00    +0.000 OA
ATOM     11  N   UNL     1       6.246   5.316  17.884  0.00  0.00    +0.000 N 
ATOM     12  C   UNL     1       7.450   4.578  17.454  0.00  0.00    +0.000 C 
ATOM     13  C   UNL     1       7.562   4.575  15.918  0.00  0.00    +0.000 C 
ATOM     14  O   UNL     1       7.466   5.896  15.353  0.00  0.00    +0.000 OA
ATOM     15  C   UNL     1       6.270   6.569  15.798  0.00  0.00    +0.000 C 
ATOM     16  C   UNL     1       6.284   6.670  17.326  0.00  0.00    +0.000 C 
ATOM     17  C   UNL     1       3.003   4.187  19.518  0.00  0.00    +0.000 C 
ATOM     18  C   UNL     1       3.380   2.838  20.163  0.00  0.00    +0.000 C 
ENDROOT
BRANCH   1  20
ATOM     19  C   UNL     1       2.127   1.747  18.151  0.00  0.00    +0.000 C 
ATOM     20  O   UNL     1       1.361   1.905  19.332  0.00  0.00    +0.000 OA
ENDBRANCH   1  20
TORSDOF 1
ENDMDL
MODEL 2
REMARK VINA RESULT:      -6.1      4.024      6.689
REMARK  Name = 
REMARK  2 active torsions:
REMARK  status: ('A' for Active; 'I' for Inactive)
REMARK    1  A    between atoms: C_1  and  O_2
REMARK    2  A    between atoms: O_2  and  C_3
REMARK                            x       y       z     vdW  Elec       q    Type
REMARK                         _______ _______ _______ _____ _____    ______ ____
ROOT
ATOM      1  C   UNL     1       0.911  12.419  19.121  0.00  0.00    +0.000 C 
ATOM      2  C   UNL     1      -0.541  12.451  19.611  0.00  0.00    +0.000 C 
ATOM      3  C   UNL     1      -0.778  11.414  20.700  0.00  0.00    +0.000 C 
ATOM      4  C   UNL     1      -0.351  10.001  20.279  0.00  0.00    +0.000 C 
ATOM      5  O   UNL     1      -0.497   9.190  21.463  0.00  0.00    +0.000 OA
ATOM      6  C   UNL     1      -0.013   7.860  21.256  0.00  0.00    +0.000 C 
ATOM      7  C   UNL     1       1.459   7.894  20.847  0.00  0.00    +0.000 C 
ATOM      8  N   UNL     1       1.582   8.559  19.544  0.00  0.00    +0.000 N 
ATOM      9  C   UNL     1       2.207   8.125  18.392  0.00  0.00    +0.000 C 
ATOM     10  O   UNL     1       2.250   8.862  17.401  0.00  0.00    +0.000 OA
ATOM     11  N   UNL     1       2.833   6.900  18.293  0.00  0.00    +0.000 N 
ATOM     12  C   UNL     1       3.828   6.728  17.216  0.00  0.00    +0.000 C 
ATOM     13  C   UNL     1       5.184   6.288  17.798  0.00  0.00    +0.000 C 
ATOM     14  O   UNL     1       5.070   5.142  18.663  0.00  0.00    +0.000 OA
ATOM     15  C   UNL     1       4.092   5.365  19.700  0.00  0.00    +0.000 C 
ATOM     16  C   UNL     1       2.732   5.657  19.060  0.00  0.00    +0.000 C 
ATOM     17  C   UNL     1       1.107   9.978  19.711  0.00  0.00    +0.000 C 
ATOM     18  C   UNL     1       1.235  11.013  18.575  0.00  0.00    +0.000 C 
ENDROOT
BRANCH   1  20
ATOM     19  C   UNL     1       2.707  13.777  20.020  0.00  0.00    +0.000 C 
ATOM     20  O   UNL     1       1.858  12.654  20.174  0.00  0.00    +0.000 OA
ENDBRANCH   1  20
TORSDOF 1
ENDMDL
MODEL 3
REMARK VINA RESULT:      -6.1     10.282     12.493
REMARK  Name = 
REMARK  2 active torsions:
REMARK  status: ('A' for Active; 'I' for Inactive)
REMARK    1  A    between atoms: C_1  and  O_2
REMARK    2  A    between atoms: O_2  and  C_3
REMARK                            x       y       z     vdW  Elec       q    Type
REMARK                         _______ _______ _______ _____ _____    ______ ____
ROOT
ATOM      1  C   UNL     1      10.862  12.337  17.802  0.00  0.00    +0.000 C 
ATOM      2  C   UNL     1      11.944  13.098  17.028  0.00  0.00    +0.000 C 
ATOM      3  C   UNL     1      12.041  14.543  17.494  0.00  0.00    +0.000 C 
ATOM      4  C   UNL     1      10.691  15.274  17.452  0.00  0.00    +0.000 C 
ATOM      5  O   UNL     1      10.933  16.558  18.063  0.00  0.00    +0.000 OA
ATOM      6  C   UNL     1       9.726  17.311  18.209  0.00  0.00    +0.000 C 
ATOM      7  C   UNL     1       8.720  16.532  19.054  0.00  0.00    +0.000 C 
ATOM      8  N   UNL     1       8.331  15.310  18.340  0.00  0.00    +0.000 N 
ATOM      9  C   UNL     1       7.073  14.835  18.032  0.00  0.00    +0.000 C 
ATOM     10  O   UNL     1       6.949  13.744  17.464  0.00  0.00    +0.000 OA
ATOM     11  N   UNL     1       5.914  15.507  18.361  0.00  0.00    +0.000 N 
ATOM     12  C   UNL     1       4.661  14.729  18.399  0.00  0.00    +0.000 C 
ATOM     13  C   UNL     1       3.982  14.863  19.774  0.00  0.00    +0.000 C 
ATOM     14  O   UNL     1       3.818  16.235  20.180  0.00  0.00    +0.000 OA
ATOM     15  C   UNL     1       5.071  16.947  20.133  0.00  0.00    +0.000 C 
ATOM     16  C   UNL     1       5.628  16.901  18.708  0.00  0.00    +0.000 C 
ATOM     17  C   UNL     1       9.567  14.465  18.181  0.00  0.00    +0.000 C 
ATOM     18  C   UNL     1       9.502  13.037  17.601  0.00  0.00    +0.000 C 
ENDROOT
BRANCH   1  20
ATOM     19  C   UNL     1      12.312  11.770  19.661  0.00  0.00    +0.000 C 
ATOM     20  O   UNL     1      11.090  12.334  19.219  0.00  0.00    +0.000 OA
ENDBRANCH   1  20
TORSDOF 1
ENDMDL
MODEL 4
REMARK VINA RESULT:      -6.0      9.010     11.841
REMARK  Name = 
REMARK  2 active torsions:
REMARK  status: ('A' for Active; 'I' for Inactive)
REMARK    1  A    between atoms: C_1  and  O_2
REMARK    2  A    between atoms: O_2  and  C_3
REMARK                            x       y       z     vdW  Elec       q    Type
REMARK                         _______ _______ _______ _____ _____    ______ ____
ROOT
ATOM      1  C   UNL     1      10.477  11.528  17.947  0.00  0.00    +0.000 C 
ATOM      2  C   UNL     1      11.820  12.203  17.645  0.00  0.00    +0.000 C 
ATOM      3  C   UNL     1      12.021  13.440  18.509  0.00  0.00    +0.000 C 
ATOM      4  C   UNL     1      10.853  14.430  18.412  0.00  0.00    +0.000 C 
ATOM      5  O   UNL     1      11.133  15.448  19.395  0.00  0.00    +0.000 OA
ATOM      6  C   UNL     1      10.057  16.384  19.509  0.00  0.00    +0.000 C 
ATOM      7  C   UNL     1       8.767  15.659  19.888  0.00  0.00    +0.000 C 
ATOM      8  N   UNL     1       8.382  14.756  18.797  0.00  0.00    +0.000 N 
ATOM      9  C   UNL     1       7.179  14.649  18.129  0.00  0.00    +0.000 C 
ATOM     10  O   UNL     1       7.031  13.778  17.264  0.00  0.00    +0.000 OA
ATOM     11  N   UNL     1       6.093  15.454  18.403  0.00  0.00    +0.000 N 
ATOM     12  C   UNL     1       4.764  14.977  17.975  0.00  0.00    +0.000 C 
ATOM     13  C   UNL     1       3.798  14.919  19.172  0.00  0.00    +0.000 C 
ATOM     14  O   UNL     1       3.754  16.157  19.908  0.00  0.00    +0.000 OA
ATOM     15  C   UNL     1       5.075  16.574  20.309  0.00  0.00    +0.000 C 
ATOM     16  C   UNL     1       5.949  16.753  19.065  0.00  0.00    +0.000 C 
ATOM     17  C   UNL     1       9.474  13.730  18.650  0.00  0.00    +0.000 C 
ATOM     18  C   UNL     1       9.332  12.530  17.691  0.00  0.00    +0.000 C 
ENDROOT
BRANCH   1  20
ATOM     19  C   UNL     1       9.325  10.205  19.621  0.00  0.00    +0.000 C 
ATOM     20  O   UNL     1      10.349  11.137  19.322  0.00  0.00    +0.000 OA
ENDBRANCH   1  20
TORSDOF 1
ENDMDL
MODEL 5
REMARK VINA RESULT:      -6.0      8.352     11.263
REMARK  Name = 
REMARK  2 active torsions:
REMARK  status: ('A' for Active; 'I' for Inactive)
REMARK    1  A    between atoms: C_1  and  O_2
REMARK    2  A    between atoms: O_2  and  C_3
REMARK                            x       y       z     vdW  Elec       q    Type
REMARK                         _______ _______ _______ _____ _____    ______ ____
ROOT
ATOM      1  C   UNL     1      10.193  11.321  17.965  0.00  0.00    +0.000 C 
ATOM      2  C   UNL     1      11.574  11.802  18.426  0.00  0.00    +0.000 C 
ATOM      3  C   UNL     1      11.497  12.464  19.795  0.00  0.00    +0.000 C 
ATOM      4  C   UNL     1      10.454  13.588  19.855  0.00  0.00    +0.000 C 
ATOM      5  O   UNL     1      10.406  13.990  21.239  0.00  0.00    +0.000 OA
ATOM      6  C   UNL     1       9.377  14.955  21.475  0.00  0.00    +0.000 C 
ATOM      7  C   UNL     1       8.019  14.386  21.069  0.00  0.00    +0.000 C 
ATOM      8  N   UNL     1       8.007  14.152  19.620  0.00  0.00    +0.000 N 
ATOM      9  C   UNL     1       7.101  14.575  18.669  0.00  0.00    +0.000 C 
ATOM     10  O   UNL     1       7.236  14.225  17.491  0.00  0.00    +0.000 OA
ATOM     11  N   UNL     1       6.005  15.357  18.971  0.00  0.00    +0.000 N 
ATOM     12  C   UNL     1       4.890  15.371  18.004  0.00  0.00    +0.000 C 
ATOM     13  C   UNL     1       3.574  14.962  18.690  0.00  0.00    +0.000 C 
ATOM     14  O   UNL     1       3.310  15.727  19.883  0.00  0.00    +0.000 OA
ATOM     15  C   UNL     1       4.425  15.673  20.795  0.00  0.00    +0.000 C 
ATOM     16  C   UNL     1       5.674  16.226  20.103  0.00  0.00    +0.000 C 
ATOM     17  C   UNL     1       9.061  13.119  19.318  0.00  0.00    +0.000 C 
ATOM     18  C   UNL     1       9.227  12.522  17.906  0.00  0.00    +0.000 C 
ENDROOT
BRANCH   1  20
ATOM     19  C   UNL     1       8.591   9.542  18.350  0.00  0.00    +0.000 C 
ATOM     20  O   UNL     1       9.597  10.388  18.878  0.00  0.00    +0.000 OA
ENDBRANCH   1  20
TORSDOF 1
ENDMDL
MODEL 6
REMARK VINA RESULT:      -6.0      8.541     10.989
REMARK  Name = 
REMARK  2 active torsions:
REMARK  status: ('A' for Active; 'I' for Inactive)
REMARK    1  A    between atoms: C_1  and  O_2
REMARK    2  A    between atoms: O_2  and  C_3
REMARK                            x       y       z     vdW  Elec       q    Type
REMARK                         _______ _______ _______ _____ _____    ______ ____
ROOT
ATOM      1  C   UNL     1      -6.954  12.423  19.704  0.00  0.00    +0.000 C 
ATOM      2  C   UNL     1      -7.435  12.913  18.333  0.00  0.00    +0.000 C 
ATOM      3  C   UNL     1      -6.732  12.171  17.206  0.00  0.00    +0.000 C 
ATOM      4  C   UNL     1      -5.202  12.222  17.323  0.00  0.00    +0.000 C 
ATOM      5  O   UNL     1      -4.711  11.353  16.281  0.00  0.00    +0.000 OA
ATOM      6  C   UNL     1      -3.290  11.200  16.346  0.00  0.00    +0.000 C 
ATOM      7  C   UNL     1      -2.883  10.636  17.706  0.00  0.00    +0.000 C 
ATOM      8  N   UNL     1      -3.217  11.609  18.752  0.00  0.00    +0.000 N 
ATOM      9  C   UNL     1      -2.419  12.140  19.745  0.00  0.00    +0.000 C 
ATOM     10  O   UNL     1      -2.904  12.916  20.576  0.00  0.00    +0.000 OA
ATOM     11  N   UNL     1      -1.086  11.818  19.890  0.00  0.00    +0.000 N 
ATOM     12  C   UNL     1      -0.461  12.069  21.204  0.00  0.00    +0.000 C 
ATOM     13  C   UNL     1       0.163  10.777  21.762  0.00  0.00    +0.000 C 
ATOM     14  O   UNL     1       1.046  10.136  20.819  0.00  0.00    +0.000 OA
ATOM     15  C   UNL     1       0.385   9.907  19.558  0.00  0.00    +0.000 C 
ATOM     16  C   UNL     1      -0.088  11.245  18.983  0.00  0.00    +0.000 C 
ATOM     17  C   UNL     1      -4.712  11.790  18.745  0.00  0.00    +0.000 C 
ATOM     18  C   UNL     1      -5.430  12.635  19.817  0.00  0.00    +0.000 C 
ENDROOT
BRANCH   1  20
ATOM     19  C   UNL     1      -7.917  10.640  21.036  0.00  0.00    +0.000 C 
ATOM     20  O   UNL     1      -7.164  11.016  19.897  0.00  0.00    +0.000 OA
ENDBRANCH   1  20
TORSDOF 1
ENDMDL
MODEL 7
REMARK VINA RESULT:      -5.9      8.678     11.883
REMARK  Name = 
REMARK  2 active torsions:
REMARK  status: ('A' for Active; 'I' for Inactive)
REMARK    1  A    between atoms: C_1  and  O_2
REMARK    2  A    between atoms: O_2  and  C_3
REMARK                            x       y       z     vdW  Elec       q    Type
REMARK                         _______ _______ _______ _____ _____    ______ ____
ROOT
ATOM      1  C   UNL     1       0.078  12.228  20.172  0.00  0.00    +0.000 C 
ATOM      2  C   UNL     1       0.616  10.806  19.971  0.00  0.00    +0.000 C 
ATOM      3  C   UNL     1       0.090  10.196  18.681  0.00  0.00    +0.000 C 
ATOM      4  C   UNL     1      -1.441  10.243  18.580  0.00  0.00    +0.000 C 
ATOM      5  O   UNL     1      -1.751   9.774  17.252  0.00  0.00    +0.000 OA
ATOM      6  C   UNL     1      -3.149   9.882  16.966  0.00  0.00    +0.000 C 
ATOM      7  C   UNL     1      -3.604  11.333  17.107  0.00  0.00    +0.000 C 
ATOM      8  N   UNL     1      -3.462  11.750  18.507  0.00  0.00    +0.000 N 
ATOM      9  C   UNL     1      -4.390  12.324  19.351  0.00  0.00    +0.000 C 
ATOM     10  O   UNL     1      -4.059  12.658  20.494  0.00  0.00    +0.000 OA
ATOM     11  N   UNL     1      -5.690  12.588  18.971  0.00  0.00    +0.000 N 
ATOM     12  C   UNL     1      -6.443  13.583  19.759  0.00  0.00    +0.000 C 
ATOM     13  C   UNL     1      -6.972  14.706  18.848  0.00  0.00    +0.000 C 
ATOM     14  O   UNL     1      -7.702  14.201  17.713  0.00  0.00    +0.000 OA
ATOM     15  C   UNL     1      -6.919  13.240  16.975  0.00  0.00    +0.000 C 
ATOM     16  C   UNL     1      -6.544  12.076  17.896  0.00  0.00    +0.000 C 
ATOM     17  C   UNL     1      -1.998  11.679  18.855  0.00  0.00    +0.000 C 
ATOM     18  C   UNL     1      -1.463  12.190  20.209  0.00  0.00    +0.000 C 
ENDROOT
BRANCH   1  20
ATOM     19  C   UNL     1       1.752  13.584  19.059  0.00  0.00    +0.000 C 
ATOM     20  O   UNL     1       0.419  13.108  19.091  0.00  0.00    +0.000 OA
ENDBRANCH   1  20
TORSDOF 1
ENDMDL
MODEL 8
REMARK VINA RESULT:      -5.8      7.773     10.977
REMARK  Name = 
REMARK  2 active torsions:
REMARK  status: ('A' for Active; 'I' for Inactive)
REMARK    1  A    between atoms: C_1  and  O_2
REMARK    2  A    between atoms: O_2  and  C_3
REMARK                            x       y       z     vdW  Elec       q    Type
REMARK                         _______ _______ _______ _____ _____    ______ ____
ROOT
ATOM      1  C   UNL     1       0.708   9.924  18.643  0.00  0.00    +0.000 C 
ATOM      2  C   UNL     1       1.713  11.078  18.565  0.00  0.00    +0.000 C 
ATOM      3  C   UNL     1       1.334  12.203  19.517  0.00  0.00    +0.000 C 
ATOM      4  C   UNL     1      -0.108  12.691  19.319  0.00  0.00    +0.000 C 
ATOM      5  O   UNL     1      -0.343  13.631  20.387  0.00  0.00    +0.000 OA
ATOM      6  C   UNL     1      -1.701  14.081  20.406  0.00  0.00    +0.000 C 
ATOM      7  C   UNL     1      -2.647  12.892  20.564  0.00  0.00    +0.000 C 
ATOM      8  N   UNL     1      -2.540  12.029  19.381  0.00  0.00    +0.000 N 
ATOM      9  C   UNL     1      -3.533  11.552  18.550  0.00  0.00    +0.000 C 
ATOM     10  O   UNL     1      -3.245  10.784  17.625  0.00  0.00    +0.000 OA
ATOM     11  N   UNL     1      -4.867  11.861  18.719  0.00  0.00    +0.000 N 
ATOM     12  C   UNL     1      -5.859  10.969  18.087  0.00  0.00    +0.000 C 
ATOM     13  C   UNL     1      -6.849  10.431  19.136  0.00  0.00    +0.000 C 
ATOM     14  O   UNL     1      -7.440  11.478  19.929  0.00  0.00    +0.000 OA
ATOM     15  C   UNL     1      -6.430  12.314  20.529  0.00  0.00    +0.000 C 
ATOM     16  C   UNL     1      -5.566  12.935  19.428  0.00  0.00    +0.000 C 
ATOM     17  C   UNL     1      -1.130  11.506  19.326  0.00  0.00    +0.000 C 
ATOM     18  C   UNL     1      -0.700  10.447  18.290  0.00  0.00    +0.000 C 
ENDROOT
BRANCH   1  20
ATOM     19  C   UNL     1       1.509   8.341  20.296  0.00  0.00    +0.000 C 
ATOM     20  O   UNL     1       0.596   9.372  19.963  0.00  0.00    +0.000 OA
ENDBRANCH   1  20
TORSDOF 1
ENDMDL
MODEL 9
REMARK VINA RESULT:      -5.7     10.545     12.814
REMARK  Name = 
REMARK  2 active torsions:
REMARK  status: ('A' for Active; 'I' for Inactive)
REMARK    1  A    between atoms: C_1  and  O_2
REMARK    2  A    between atoms: O_2  and  C_3
REMARK                            x       y       z     vdW  Elec       q    Type
REMARK                         _______ _______ _______ _____ _____    ______ ____
ROOT
ATOM      1  C   UNL     1      -7.532  12.967  23.617  0.00  0.00    +0.000 C 
ATOM      2  C   UNL     1      -7.917  14.313  24.241  0.00  0.00    +0.000 C 
ATOM      3  C   UNL     1      -7.149  15.458  23.596  0.00  0.00    +0.000 C 
ATOM      4  C   UNL     1      -5.630  15.238  23.610  0.00  0.00    +0.000 C 
ATOM      5  O   UNL     1      -5.080  16.323  22.834  0.00  0.00    +0.000 OA
ATOM      6  C   UNL     1      -3.669  16.182  22.652  0.00  0.00    +0.000 C 
ATOM      7  C   UNL     1      -3.358  14.858  21.956  0.00  0.00    +0.000 C 
ATOM      8  N   UNL     1      -3.749  13.748  22.833  0.00  0.00    +0.000 N 
ATOM      9  C   UNL     1      -3.013  12.660  23.255  0.00  0.00    +0.000 C 
ATOM     10  O   UNL     1      -3.543  11.793  23.959  0.00  0.00    +0.000 OA
ATOM     11  N   UNL     1      -1.695  12.461  22.899  0.00  0.00    +0.000 N 
ATOM     12  C   UNL     1      -1.156  11.092  23.016  0.00  0.00    +0.000 C 
ATOM     13  C   UNL     1      -0.583  10.620  21.667  0.00  0.00    +0.000 C 
ATOM     14  O   UNL     1       0.352  11.559  21.102  0.00  0.00    +0.000 OA
ATOM     15  C   UNL     1      -0.226  12.876  21.003  0.00  0.00    +0.000 C 
ATOM     16  C   UNL     1      -0.646  13.352  22.396  0.00  0.00    +0.000 C 
ATOM     17  C   UNL     1      -5.239  13.835  23.039  0.00  0.00    +0.000 C 
ATOM     18  C   UNL     1      -6.017  12.737  23.793  0.00  0.00    +0.000 C 
ENDROOT
BRANCH   1  20
ATOM     19  C   UNL     1      -7.907  11.635  21.626  0.00  0.00    +0.000 C 
ATOM     20  O   UNL     1      -7.769  12.921  22.203  0.00  0.00    +0.000 OA
ENDBRANCH   1  20
TORSDOF 1
ENDMDL
