MODEL 1
REMARK VINA RESULT:      -7.5      0.000      0.000
REMARK  Name = 
REMARK  4 active torsions:
REMARK  status: ('A' for Active; 'I' for Inactive)
REMARK    1  A    between atoms: C_2  and  C_3
REMARK    2  A    between atoms: CA_12  and  C_13
REMARK    3  A    between atoms: C_13  and  O_14
REMARK    4  A    between atoms: C_19  and  C_20
REMARK                            x       y       z     vdW  Elec       q    Type
REMARK                         _______ _______ _______ _____ _____    ______ ____
ROOT
ATOM      1  O   UNL     1      -0.269  13.424  18.311  0.00  0.00    +0.000 OA
ATOM      2  C   UNL     1       0.207  14.020  19.255  0.00  0.00    +0.000 C 
ATOM      3  N   UNL     1      -0.359  13.994  20.525  0.00  0.00    +0.000 N 
ATOM      4  C   UNL     1       0.177  14.762  21.621  0.00  0.00    +0.000 C 
ATOM      5  C   UNL     1      -0.791  14.594  22.772  0.00  0.00    +0.000 C 
ATOM      6  C   UNL     1      -2.040  13.949  22.141  0.00  0.00    +0.000 C 
ATOM      7  CA  UNL     1      -2.852  13.067  23.090  0.00  0.00    +0.000 C 
ATOM      8  N   UNL     1      -1.964  12.053  23.671  0.00  0.00    +0.000 N 
ATOM      9  C   UNL     1      -1.286  11.266  22.714  0.00  0.00    +0.000 A 
ATOM     10  C   UNL     1      -0.765  10.025  23.104  0.00  0.00    +0.000 A 
ATOM     11  C   UNL     1      -0.001   9.248  22.224  0.00  0.00    +0.000 A 
ATOM     12  C   UNL     1       0.276   9.713  20.939  0.00  0.00    +0.000 A 
ATOM     13  C   UNL     1      -0.206  10.967  20.556  0.00  0.00    +0.000 A 
ATOM     14  C   UNL     1      -0.972  11.763  21.431  0.00  0.00    +0.000 A 
ATOM     15  C   UNL     1      -1.464  13.133  20.971  0.00  0.00    +0.000 C 
ATOM     16  H   UNL     1      -2.407  11.490  24.394  0.00  0.00    +0.000 HD
ENDROOT
BRANCH  12  17
ATOM     17  C   UNL     1       1.097   8.929  20.005  0.00  0.00    +0.000 C 
ATOM     18  C   UNL     1       1.606   7.744  20.386  0.00  0.00    +0.000 C 
ATOM     19  C   UNL     1       2.487   6.906  19.506  0.00  0.00    +0.000 C 
ATOM     20  C   UNL     1       3.022   7.668  18.292  0.00  0.00    +0.000 C 
ATOM     21  C   UNL     1       1.926   8.509  17.646  0.00  0.00    +0.000 C 
ATOM     22  C   UNL     1       1.341   9.521  18.639  0.00  0.00    +0.000 C 
ENDBRANCH  12  17
BRANCH   2  23
ATOM     23  C   UNL     1       1.557  14.748  19.165  0.00  0.00    +0.000 C 
ATOM     24  C   UNL     1       2.484  13.972  18.233  0.00  0.00    +0.000 C 
ATOM     25  C   UNL     1       3.577  14.963  17.885  0.00  0.00    +0.000 C 
ATOM     26  C   UNL     1       2.915  16.336  17.940  0.00  0.00    +0.000 C 
ATOM     27  C   UNL     1       1.511  16.123  18.509  0.00  0.00    +0.000 C 
ENDBRANCH   2  23
BRANCH   7  28
ATOM     28  C   UNL     1      -3.536  13.900  24.194  0.00  0.00    +0.000 C 
BRANCH  28  29
ATOM     29  O   UNL     1      -4.144  13.074  25.189  0.00  0.00    +0.000 OA
ATOM     30  H   UNL     1      -4.083  13.561  26.029  0.00  0.00    +0.000 HD
ENDBRANCH  28  29
ENDBRANCH   7  28
TORSDOF 4
ENDMDL
MODEL 2
REMARK VINA RESULT:      -6.6      3.562      5.768
REMARK  Name = 
REMARK  4 active torsions:
REMARK  status: ('A' for Active; 'I' for Inactive)
REMARK    1  A    between atoms: C_2  and  C_3
REMARK    2  A    between atoms: CA_12  and  C_13
REMARK    3  A    between atoms: C_13  and  O_14
REMARK    4  A    between atoms: C_19  and  C_20
REMARK                            x       y       z     vdW  Elec       q    Type
REMARK                         _______ _______ _______ _____ _____    ______ ____
ROOT
ATOM      1  O   UNL     1      -6.016  11.888  21.669  0.00  0.00    +0.000 OA
ATOM      2  C   UNL     1      -5.927  12.958  21.104  0.00  0.00    +0.000 C 
ATOM      3  N   UNL     1      -5.587  14.132  21.767  0.00  0.00    +0.000 N 
ATOM      4  C   UNL     1      -5.551  15.409  21.097  0.00  0.00    +0.000 C 
ATOM      5  C   UNL     1      -5.298  16.445  22.170  0.00  0.00    +0.000 C 
ATOM      6  C   UNL     1      -5.511  15.693  23.498  0.00  0.00    +0.000 C 
ATOM      7  CA  UNL     1      -4.697  16.231  24.675  0.00  0.00    +0.000 C 
ATOM      8  N   UNL     1      -3.278  16.256  24.297  0.00  0.00    +0.000 N 
ATOM      9  C   UNL     1      -2.775  15.007  23.869  0.00  0.00    +0.000 A 
ATOM     10  C   UNL     1      -1.391  14.790  23.895  0.00  0.00    +0.000 A 
ATOM     11  C   UNL     1      -0.831  13.609  23.393  0.00  0.00    +0.000 A 
ATOM     12  C   UNL     1      -1.649  12.630  22.830  0.00  0.00    +0.000 A 
ATOM     13  C   UNL     1      -3.025  12.856  22.765  0.00  0.00    +0.000 A 
ATOM     14  C   UNL     1      -3.604  14.041  23.261  0.00  0.00    +0.000 A 
ATOM     15  C   UNL     1      -5.113  14.248  23.153  0.00  0.00    +0.000 C 
ATOM     16  H   UNL     1      -2.680  16.699  24.991  0.00  0.00    +0.000 HD
ENDROOT
BRANCH  12  17
ATOM     17  C   UNL     1      -1.083  11.392  22.273  0.00  0.00    +0.000 C 
ATOM     18  C   UNL     1      -0.897  10.321  23.064  0.00  0.00    +0.000 C 
ATOM     19  C   UNL     1      -0.287   9.038  22.579  0.00  0.00    +0.000 C 
ATOM     20  C   UNL     1       0.406   9.177  21.223  0.00  0.00    +0.000 C 
ATOM     21  C   UNL     1      -0.442   9.997  20.256  0.00  0.00    +0.000 C 
ATOM     22  C   UNL     1      -0.718  11.401  20.809  0.00  0.00    +0.000 C 
ENDBRANCH  12  17
BRANCH   2  23
ATOM     23  C   UNL     1      -6.048  13.089  19.579  0.00  0.00    +0.000 C 
ATOM     24  C   UNL     1      -5.090  12.103  18.913  0.00  0.00    +0.000 C 
ATOM     25  C   UNL     1      -5.587  12.009  17.484  0.00  0.00    +0.000 C 
ATOM     26  C   UNL     1      -7.090  12.254  17.558  0.00  0.00    +0.000 C 
ATOM     27  C   UNL     1      -7.394  12.679  18.996  0.00  0.00    +0.000 C 
ENDBRANCH   2  23
BRANCH   7  28
ATOM     28  C   UNL     1      -5.178  17.632  25.106  0.00  0.00    +0.000 C 
BRANCH  28  29
ATOM     29  O   UNL     1      -4.176  18.630  24.899  0.00  0.00    +0.000 OA
ATOM     30  H   UNL     1      -4.402  19.080  24.067  0.00  0.00    +0.000 HD
ENDBRANCH  28  29
ENDBRANCH   7  28
TORSDOF 4
ENDMDL
MODEL 3
REMARK VINA RESULT:      -6.6      3.539      6.040
REMARK  Name = 
REMARK  4 active torsions:
REMARK  status: ('A' for Active; 'I' for Inactive)
REMARK    1  A    between atoms: C_2  and  C_3
REMARK    2  A    between atoms: CA_12  and  C_13
REMARK    3  A    between atoms: C_13  and  O_14
REMARK    4  A    between atoms: C_19  and  C_20
REMARK                            x       y       z     vdW  Elec       q    Type
REMARK                         _______ _______ _______ _____ _____    ______ ____
ROOT
ATOM      1  O   UNL     1      -5.920  11.924  22.012  0.00  0.00    +0.000 OA
ATOM      2  C   UNL     1      -5.942  12.940  21.348  0.00  0.00    +0.000 C 
ATOM      3  N   UNL     1      -5.684  14.196  21.886  0.00  0.00    +0.000 N 
ATOM      4  C   UNL     1      -5.782  15.403  21.102  0.00  0.00    +0.000 C 
ATOM      5  C   UNL     1      -5.585  16.553  22.065  0.00  0.00    +0.000 C 
ATOM      6  C   UNL     1      -5.689  15.915  23.464  0.00  0.00    +0.000 C 
ATOM      7  CA  UNL     1      -4.887  16.627  24.552  0.00  0.00    +0.000 C 
ATOM      8  N   UNL     1      -3.489  16.735  24.118  0.00  0.00    +0.000 N 
ATOM      9  C   UNL     1      -2.893  15.498  23.786  0.00  0.00    +0.000 A 
ATOM     10  C   UNL     1      -1.495  15.400  23.776  0.00  0.00    +0.000 A 
ATOM     11  C   UNL     1      -0.851  14.228  23.362  0.00  0.00    +0.000 A 
ATOM     12  C   UNL     1      -1.599  13.135  22.924  0.00  0.00    +0.000 A 
ATOM     13  C   UNL     1      -2.991  13.238  22.894  0.00  0.00    +0.000 A 
ATOM     14  C   UNL     1      -3.655  14.412  23.303  0.00  0.00    +0.000 A 
ATOM     15  C   UNL     1      -5.178  14.482  23.237  0.00  0.00    +0.000 C 
ATOM     16  H   UNL     1      -2.910  17.290  24.744  0.00  0.00    +0.000 HD
ENDROOT
BRANCH  12  17
ATOM     17  C   UNL     1      -0.946  11.902  22.460  0.00  0.00    +0.000 C 
ATOM     18  C   UNL     1      -0.164  11.924  21.367  0.00  0.00    +0.000 C 
ATOM     19  C   UNL     1       0.501  10.700  20.807  0.00  0.00    +0.000 C 
ATOM     20  C   UNL     1      -0.060   9.397  21.378  0.00  0.00    +0.000 C 
ATOM     21  C   UNL     1      -0.257   9.500  22.887  0.00  0.00    +0.000 C 
ATOM     22  C   UNL     1      -1.213  10.644  23.248  0.00  0.00    +0.000 C 
ENDBRANCH  12  17
BRANCH   2  23
ATOM     23  C   UNL     1      -6.123  12.916  19.823  0.00  0.00    +0.000 C 
ATOM     24  C   UNL     1      -4.914  12.235  19.186  0.00  0.00    +0.000 C 
ATOM     25  C   UNL     1      -5.379  11.886  17.785  0.00  0.00    +0.000 C 
ATOM     26  C   UNL     1      -6.882  11.652  17.901  0.00  0.00    +0.000 C 
ATOM     27  C   UNL     1      -7.281  12.063  19.319  0.00  0.00    +0.000 C 
ENDBRANCH   2  23
BRANCH   7  28
ATOM     28  C   UNL     1      -5.474  18.017  24.873  0.00  0.00    +0.000 C 
BRANCH  28  29
ATOM     29  O   UNL     1      -5.323  18.358  26.253  0.00  0.00    +0.000 OA
ATOM     30  H   UNL     1      -5.479  19.316  26.321  0.00  0.00    +0.000 HD
ENDBRANCH  28  29
ENDBRANCH   7  28
TORSDOF 4
ENDMDL
MODEL 4
REMARK VINA RESULT:      -6.5      1.107      1.162
REMARK  Name = 
REMARK  4 active torsions:
REMARK  status: ('A' for Active; 'I' for Inactive)
REMARK    1  A    between atoms: C_2  and  C_3
REMARK    2  A    between atoms: CA_12  and  C_13
REMARK    3  A    between atoms: C_13  and  O_14
REMARK    4  A    between atoms: C_19  and  C_20
REMARK                            x       y       z     vdW  Elec       q    Type
REMARK                         _______ _______ _______ _____ _____    ______ ____
ROOT
ATOM      1  O   UNL     1       0.663  13.954  18.234  0.00  0.00    +0.000 OA
ATOM      2  C   UNL     1       1.159  14.460  19.219  0.00  0.00    +0.000 C 
ATOM      3  N   UNL     1       0.493  14.548  20.437  0.00  0.00    +0.000 N 
ATOM      4  C   UNL     1       1.068  15.213  21.580  0.00  0.00    +0.000 C 
ATOM      5  C   UNL     1      -0.007  15.235  22.644  0.00  0.00    +0.000 C 
ATOM      6  C   UNL     1      -1.297  14.825  21.906  0.00  0.00    +0.000 C 
ATOM      7  CA  UNL     1      -2.334  14.116  22.776  0.00  0.00    +0.000 C 
ATOM      8  N   UNL     1      -1.699  12.959  23.422  0.00  0.00    +0.000 N 
ATOM      9  C   UNL     1      -1.099  12.054  22.519  0.00  0.00    +0.000 A 
ATOM     10  C   UNL     1      -0.850  10.741  22.941  0.00  0.00    +0.000 A 
ATOM     11  C   UNL     1      -0.171   9.830  22.123  0.00  0.00    +0.000 A 
ATOM     12  C   UNL     1       0.294  10.227  20.870  0.00  0.00    +0.000 A 
ATOM     13  C   UNL     1       0.084  11.545  20.457  0.00  0.00    +0.000 A 
ATOM     14  C   UNL     1      -0.593  12.475  21.271  0.00  0.00    +0.000 A 
ATOM     15  C   UNL     1      -0.784  13.909  20.782  0.00  0.00    +0.000 C 
ATOM     16  H   UNL     1      -2.297  12.494  24.100  0.00  0.00    +0.000 HD
ENDROOT
BRANCH  12  17
ATOM     17  C   UNL     1       1.032   9.298  20.001  0.00  0.00    +0.000 C 
ATOM     18  C   UNL     1       1.457   8.117  20.485  0.00  0.00    +0.000 C 
ATOM     19  C   UNL     1       2.252   7.135  19.675  0.00  0.00    +0.000 C 
ATOM     20  C   UNL     1       2.818   7.737  18.387  0.00  0.00    +0.000 C 
ATOM     21  C   UNL     1       1.776   8.599  17.681  0.00  0.00    +0.000 C 
ATOM     22  C   UNL     1       1.292   9.741  18.583  0.00  0.00    +0.000 C 
ENDBRANCH  12  17
BRANCH   2  23
ATOM     23  C   UNL     1       2.622  14.927  19.249  0.00  0.00    +0.000 C 
ATOM     24  C   UNL     1       3.440  14.078  18.277  0.00  0.00    +0.000 C 
ATOM     25  C   UNL     1       4.713  14.873  18.067  0.00  0.00    +0.000 C 
ATOM     26  C   UNL     1       4.312  16.336  18.234  0.00  0.00    +0.000 C 
ATOM     27  C   UNL     1       2.865  16.339  18.730  0.00  0.00    +0.000 C 
ENDBRANCH   2  23
BRANCH   7  28
ATOM     28  C   UNL     1      -2.943  15.068  23.825  0.00  0.00    +0.000 C 
BRANCH  28  29
ATOM     29  O   UNL     1      -3.395  16.292  23.241  0.00  0.00    +0.000 OA
ATOM     30  H   UNL     1      -4.251  16.099  22.821  0.00  0.00    +0.000 HD
ENDBRANCH  28  29
ENDBRANCH   7  28
TORSDOF 4
ENDMDL
MODEL 5
REMARK VINA RESULT:      -6.4      3.247      5.324
REMARK  Name = 
REMARK  4 active torsions:
REMARK  status: ('A' for Active; 'I' for Inactive)
REMARK    1  A    between atoms: C_2  and  C_3
REMARK    2  A    between atoms: CA_12  and  C_13
REMARK    3  A    between atoms: C_13  and  O_14
REMARK    4  A    between atoms: C_19  and  C_20
REMARK                            x       y       z     vdW  Elec       q    Type
REMARK                         _______ _______ _______ _____ _____    ______ ____
ROOT
ATOM      1  O   UNL     1      -0.109  12.440  20.701  0.00  0.00    +0.000 OA
ATOM      2  C   UNL     1      -0.644  11.887  21.640  0.00  0.00    +0.000 C 
ATOM      3  N   UNL     1      -1.784  12.388  22.258  0.00  0.00    +0.000 N 
ATOM      4  C   UNL     1      -2.369  11.758  23.416  0.00  0.00    +0.000 C 
ATOM      5  C   UNL     1      -3.480  12.673  23.882  0.00  0.00    +0.000 C 
ATOM      6  C   UNL     1      -3.260  13.985  23.103  0.00  0.00    +0.000 C 
ATOM      7  CA  UNL     1      -4.531  14.791  22.836  0.00  0.00    +0.000 C 
ATOM      8  N   UNL     1      -5.507  13.927  22.160  0.00  0.00    +0.000 N 
ATOM      9  C   UNL     1      -5.027  13.339  20.969  0.00  0.00    +0.000 A 
ATOM     10  C   UNL     1      -5.951  12.863  20.029  0.00  0.00    +0.000 A 
ATOM     11  C   UNL     1      -5.533  12.185  18.877  0.00  0.00    +0.000 A 
ATOM     12  C   UNL     1      -4.177  11.951  18.656  0.00  0.00    +0.000 A 
ATOM     13  C   UNL     1      -3.253  12.388  19.607  0.00  0.00    +0.000 A 
ATOM     14  C   UNL     1      -3.657  13.066  20.774  0.00  0.00    +0.000 A 
ATOM     15  C   UNL     1      -2.609  13.511  21.792  0.00  0.00    +0.000 C 
ATOM     16  H   UNL     1      -6.419  14.361  22.041  0.00  0.00    +0.000 HD
ENDROOT
BRANCH  12  17
ATOM     17  C   UNL     1      -3.714  11.220  17.467  0.00  0.00    +0.000 C 
ATOM     18  C   UNL     1      -4.247  11.487  16.262  0.00  0.00    +0.000 C 
ATOM     19  C   UNL     1      -3.858  10.755  15.011  0.00  0.00    +0.000 C 
ATOM     20  C   UNL     1      -3.070   9.472  15.285  0.00  0.00    +0.000 C 
ATOM     21  C   UNL     1      -2.014   9.697  16.363  0.00  0.00    +0.000 C 
ATOM     22  C   UNL     1      -2.649  10.171  17.676  0.00  0.00    +0.000 C 
ENDBRANCH  12  17
BRANCH   2  23
ATOM     23  C   UNL     1      -0.190  10.508  22.143  0.00  0.00    +0.000 C 
ATOM     24  C   UNL     1      -0.778   9.426  21.240  0.00  0.00    +0.000 C 
ATOM     25  C   UNL     1       0.052   8.194  21.546  0.00  0.00    +0.000 C 
ATOM     26  C   UNL     1       1.430   8.718  21.938  0.00  0.00    +0.000 C 
ATOM     27  C   UNL     1       1.307  10.239  22.041  0.00  0.00    +0.000 C 
ENDBRANCH   2  23
BRANCH   7  28
ATOM     28  C   UNL     1      -5.117  15.375  24.137  0.00  0.00    +0.000 C 
BRANCH  28  29
ATOM     29  O   UNL     1      -6.512  15.091  24.272  0.00  0.00    +0.000 OA
ATOM     30  H   UNL     1      -6.723  15.183  25.218  0.00  0.00    +0.000 HD
ENDBRANCH  28  29
ENDBRANCH   7  28
TORSDOF 4
ENDMDL
MODEL 6
REMARK VINA RESULT:      -6.4      2.979      6.145
REMARK  Name = 
REMARK  4 active torsions:
REMARK  status: ('A' for Active; 'I' for Inactive)
REMARK    1  A    between atoms: C_2  and  C_3
REMARK    2  A    between atoms: CA_12  and  C_13
REMARK    3  A    between atoms: C_13  and  O_14
REMARK    4  A    between atoms: C_19  and  C_20
REMARK                            x       y       z     vdW  Elec       q    Type
REMARK                         _______ _______ _______ _____ _____    ______ ____
ROOT
ATOM      1  O   UNL     1      -4.060  11.818  24.198  0.00  0.00    +0.000 OA
ATOM      2  C   UNL     1      -4.494  12.934  24.003  0.00  0.00    +0.000 C 
ATOM      3  N   UNL     1      -3.790  14.085  24.341  0.00  0.00    +0.000 N 
ATOM      4  C   UNL     1      -4.347  15.404  24.167  0.00  0.00    +0.000 C 
ATOM      5  C   UNL     1      -3.358  16.367  24.785  0.00  0.00    +0.000 C 
ATOM      6  C   UNL     1      -2.386  15.474  25.581  0.00  0.00    +0.000 C 
ATOM      7  CA  UNL     1      -0.971  16.035  25.720  0.00  0.00    +0.000 C 
ATOM      8  N   UNL     1      -0.446  16.333  24.381  0.00  0.00    +0.000 N 
ATOM      9  C   UNL     1      -0.464  15.231  23.498  0.00  0.00    +0.000 A 
ATOM     10  C   UNL     1       0.374  15.250  22.374  0.00  0.00    +0.000 A 
ATOM     11  C   UNL     1       0.328  14.231  21.415  0.00  0.00    +0.000 A 
ATOM     12  C   UNL     1      -0.580  13.182  21.552  0.00  0.00    +0.000 A 
ATOM     13  C   UNL     1      -1.446  13.177  22.648  0.00  0.00    +0.000 A 
ATOM     14  C   UNL     1      -1.416  14.197  23.619  0.00  0.00    +0.000 A 
ATOM     15  C   UNL     1      -2.393  14.154  24.791  0.00  0.00    +0.000 C 
ATOM     16  H   UNL     1       0.454  16.807  24.394  0.00  0.00    +0.000 HD
ENDROOT
BRANCH  12  17
ATOM     17  C   UNL     1      -0.667  12.113  20.545  0.00  0.00    +0.000 C 
ATOM     18  C   UNL     1       0.199  11.085  20.579  0.00  0.00    +0.000 C 
ATOM     19  C   UNL     1       0.202   9.980  19.563  0.00  0.00    +0.000 C 
ATOM     20  C   UNL     1      -0.626  10.305  18.319  0.00  0.00    +0.000 C 
ATOM     21  C   UNL     1      -1.955  10.950  18.698  0.00  0.00    +0.000 C 
ATOM     22  C   UNL     1      -1.740  12.243  19.494  0.00  0.00    +0.000 C 
ENDBRANCH  12  17
BRANCH   2  23
ATOM     23  C   UNL     1      -5.804  13.179  23.240  0.00  0.00    +0.000 C 
ATOM     24  C   UNL     1      -5.642  12.698  21.799  0.00  0.00    +0.000 C 
ATOM     25  C   UNL     1      -7.063  12.585  21.282  0.00  0.00    +0.000 C 
ATOM     26  C   UNL     1      -7.914  12.246  22.502  0.00  0.00    +0.000 C 
ATOM     27  C   UNL     1      -6.999  12.366  23.722  0.00  0.00    +0.000 C 
ENDBRANCH   2  23
BRANCH   7  28
ATOM     28  C   UNL     1      -0.941  17.289  26.617  0.00  0.00    +0.000 C 
BRANCH  28  29
ATOM     29  O   UNL     1      -0.448  17.000  27.927  0.00  0.00    +0.000 OA
ATOM     30  H   UNL     1      -0.527  16.037  28.047  0.00  0.00    +0.000 HD
ENDBRANCH  28  29
ENDBRANCH   7  28
TORSDOF 4
ENDMDL
MODEL 7
REMARK VINA RESULT:      -6.4      2.142      5.594
REMARK  Name = 
REMARK  4 active torsions:
REMARK  status: ('A' for Active; 'I' for Inactive)
REMARK    1  A    between atoms: C_2  and  C_3
REMARK    2  A    between atoms: CA_12  and  C_13
REMARK    3  A    between atoms: C_13  and  O_14
REMARK    4  A    between atoms: C_19  and  C_20
REMARK                            x       y       z     vdW  Elec       q    Type
REMARK                         _______ _______ _______ _____ _____    ______ ____
ROOT
ATOM      1  O   UNL     1       1.285  10.989  21.540  0.00  0.00    +0.000 OA
ATOM      2  C   UNL     1       0.492  10.796  20.641  0.00  0.00    +0.000 C 
ATOM      3  N   UNL     1      -0.623  11.601  20.436  0.00  0.00    +0.000 N 
ATOM      4  C   UNL     1      -1.595  11.320  19.408  0.00  0.00    +0.000 C 
ATOM      5  C   UNL     1      -2.719  12.313  19.603  0.00  0.00    +0.000 C 
ATOM      6  C   UNL     1      -2.451  12.942  20.984  0.00  0.00    +0.000 C 
ATOM      7  CA  UNL     1      -2.959  14.375  21.143  0.00  0.00    +0.000 C 
ATOM      8  N   UNL     1      -2.400  15.199  20.064  0.00  0.00    +0.000 N 
ATOM      9  C   UNL     1      -0.990  15.173  19.993  0.00  0.00    +0.000 A 
ATOM     10  C   UNL     1      -0.326  16.209  19.322  0.00  0.00    +0.000 A 
ATOM     11  C   UNL     1       1.062  16.185  19.138  0.00  0.00    +0.000 A 
ATOM     12  C   UNL     1       1.811  15.105  19.603  0.00  0.00    +0.000 A 
ATOM     13  C   UNL     1       1.152  14.049  20.237  0.00  0.00    +0.000 A 
ATOM     14  C   UNL     1      -0.244  14.056  20.426  0.00  0.00    +0.000 A 
ATOM     15  C   UNL     1      -0.920  12.872  21.112  0.00  0.00    +0.000 C 
ATOM     16  H   UNL     1      -2.774  16.145  20.040  0.00  0.00    +0.000 HD
ENDROOT
BRANCH  12  17
ATOM     17  C   UNL     1       3.266  15.043  19.399  0.00  0.00    +0.000 C 
ATOM     18  C   UNL     1       4.094  15.023  20.459  0.00  0.00    +0.000 C 
ATOM     19  C   UNL     1       5.590  15.003  20.333  0.00  0.00    +0.000 C 
ATOM     20  C   UNL     1       6.078  15.350  18.926  0.00  0.00    +0.000 C 
ATOM     21  C   UNL     1       5.243  14.641  17.865  0.00  0.00    +0.000 C 
ATOM     22  C   UNL     1       3.762  15.022  17.975  0.00  0.00    +0.000 C 
ENDBRANCH  12  17
BRANCH   2  23
ATOM     23  C   UNL     1       0.722   9.725  19.565  0.00  0.00    +0.000 C 
ATOM     24  C   UNL     1       1.623  10.297  18.472  0.00  0.00    +0.000 C 
ATOM     25  C   UNL     1       2.121   9.076  17.723  0.00  0.00    +0.000 C 
ATOM     26  C   UNL     1       2.163   7.954  18.755  0.00  0.00    +0.000 C 
ATOM     27  C   UNL     1       1.503   8.499  20.023  0.00  0.00    +0.000 C 
ENDBRANCH   2  23
BRANCH   7  28
ATOM     28  C   UNL     1      -4.501  14.435  21.141  0.00  0.00    +0.000 C 
BRANCH  28  29
ATOM     29  O   UNL     1      -5.012  15.049  19.956  0.00  0.00    +0.000 OA
ATOM     30  H   UNL     1      -5.867  15.448  20.197  0.00  0.00    +0.000 HD
ENDBRANCH  28  29
ENDBRANCH   7  28
TORSDOF 4
ENDMDL
MODEL 8
REMARK VINA RESULT:      -6.4      6.412      9.597
REMARK  Name = 
REMARK  4 active torsions:
REMARK  status: ('A' for Active; 'I' for Inactive)
REMARK    1  A    between atoms: C_2  and  C_3
REMARK    2  A    between atoms: CA_12  and  C_13
REMARK    3  A    between atoms: C_13  and  O_14
REMARK    4  A    between atoms: C_19  and  C_20
REMARK                            x       y       z     vdW  Elec       q    Type
REMARK                         _______ _______ _______ _____ _____    ______ ____
ROOT
ATOM      1  O   UNL     1       6.205  16.404  20.383  0.00  0.00    +0.000 OA
ATOM      2  C   UNL     1       5.966  15.634  19.477  0.00  0.00    +0.000 C 
ATOM      3  N   UNL     1       6.949  14.869  18.860  0.00  0.00    +0.000 N 
ATOM      4  C   UNL     1       6.663  14.008  17.739  0.00  0.00    +0.000 C 
ATOM      5  C   UNL     1       7.995  13.478  17.258  0.00  0.00    +0.000 C 
ATOM      6  C   UNL     1       9.045  14.343  17.982  0.00  0.00    +0.000 C 
ATOM      7  CA  UNL     1      10.380  13.645  18.241  0.00  0.00    +0.000 C 
ATOM      8  N   UNL     1      10.128  12.394  18.967  0.00  0.00    +0.000 N 
ATOM      9  C   UNL     1       9.410  12.562  20.171  0.00  0.00    +0.000 A 
ATOM     10  C   UNL     1       9.475  11.557  21.145  0.00  0.00    +0.000 A 
ATOM     11  C   UNL     1       8.708  11.627  22.315  0.00  0.00    +0.000 A 
ATOM     12  C   UNL     1       7.839  12.698  22.520  0.00  0.00    +0.000 A 
ATOM     13  C   UNL     1       7.739  13.684  21.535  0.00  0.00    +0.000 A 
ATOM     14  C   UNL     1       8.500  13.626  20.351  0.00  0.00    +0.000 A 
ATOM     15  C   UNL     1       8.344  14.720  19.298  0.00  0.00    +0.000 C 
ATOM     16  H   UNL     1      10.959  11.819  19.086  0.00  0.00    +0.000 HD
ENDROOT
BRANCH  12  17
ATOM     17  C   UNL     1       7.004  12.782  23.727  0.00  0.00    +0.000 C 
ATOM     18  C   UNL     1       6.386  13.934  24.040  0.00  0.00    +0.000 C 
ATOM     19  C   UNL     1       5.553  14.111  25.276  0.00  0.00    +0.000 C 
ATOM     20  C   UNL     1       5.751  12.992  26.299  0.00  0.00    +0.000 C 
ATOM     21  C   UNL     1       5.777  11.626  25.620  0.00  0.00    +0.000 C 
ATOM     22  C   UNL     1       6.900  11.542  24.579  0.00  0.00    +0.000 C 
ENDBRANCH  12  17
BRANCH   2  23
ATOM     23  C   UNL     1       4.531  15.332  19.019  0.00  0.00    +0.000 C 
ATOM     24  C   UNL     1       3.779  14.637  20.152  0.00  0.00    +0.000 C 
ATOM     25  C   UNL     1       2.318  14.777  19.770  0.00  0.00    +0.000 C 
ATOM     26  C   UNL     1       2.226  16.077  18.978  0.00  0.00    +0.000 C 
ATOM     27  C   UNL     1       3.662  16.555  18.753  0.00  0.00    +0.000 C 
ENDBRANCH   2  23
BRANCH   7  28
ATOM     28  C   UNL     1      11.146  13.377  16.929  0.00  0.00    +0.000 C 
BRANCH  28  29
ATOM     29  O   UNL     1      11.159  14.521  16.072  0.00  0.00    +0.000 OA
ATOM     30  H   UNL     1      10.229  14.775  15.935  0.00  0.00    +0.000 HD
ENDBRANCH  28  29
ENDBRANCH   7  28
TORSDOF 4
ENDMDL
MODEL 9
REMARK VINA RESULT:      -6.4      3.609      6.918
REMARK  Name = 
REMARK  4 active torsions:
REMARK  status: ('A' for Active; 'I' for Inactive)
REMARK    1  A    between atoms: C_2  and  C_3
REMARK    2  A    between atoms: CA_12  and  C_13
REMARK    3  A    between atoms: C_13  and  O_14
REMARK    4  A    between atoms: C_19  and  C_20
REMARK                            x       y       z     vdW  Elec       q    Type
REMARK                         _______ _______ _______ _____ _____    ______ ____
ROOT
ATOM      1  O   UNL     1      -2.177  11.901  22.498  0.00  0.00    +0.000 OA
ATOM      2  C   UNL     1      -1.291  12.531  21.959  0.00  0.00    +0.000 C 
ATOM      3  N   UNL     1      -0.502  12.003  20.943  0.00  0.00    +0.000 N 
ATOM      4  C   UNL     1       0.592  12.738  20.358  0.00  0.00    +0.000 C 
ATOM      5  C   UNL     1       1.292  11.783  19.417  0.00  0.00    +0.000 C 
ATOM      6  C   UNL     1       0.708  10.398  19.759  0.00  0.00    +0.000 C 
ATOM      7  CA  UNL     1       0.684   9.409  18.594  0.00  0.00    +0.000 C 
ATOM      8  N   UNL     1      -0.026  10.023  17.465  0.00  0.00    +0.000 N 
ATOM      9  C   UNL     1      -1.332  10.460  17.777  0.00  0.00    +0.000 A 
ATOM     10  C   UNL     1      -2.247  10.658  16.734  0.00  0.00    +0.000 A 
ATOM     11  C   UNL     1      -3.523  11.182  16.976  0.00  0.00    +0.000 A 
ATOM     12  C   UNL     1      -3.899  11.542  18.269  0.00  0.00    +0.000 A 
ATOM     13  C   UNL     1      -2.978  11.385  19.308  0.00  0.00    +0.000 A 
ATOM     14  C   UNL     1      -1.689  10.864  19.081  0.00  0.00    +0.000 A 
ATOM     15  C   UNL     1      -0.714  10.725  20.247  0.00  0.00    +0.000 C 
ATOM     16  H   UNL     1       0.006   9.466  16.614  0.00  0.00    +0.000 HD
ENDROOT
BRANCH  12  17
ATOM     17  C   UNL     1      -5.223  12.118  18.546  0.00  0.00    +0.000 C 
ATOM     18  C   UNL     1      -6.030  12.471  17.530  0.00  0.00    +0.000 C 
ATOM     19  C   UNL     1      -7.376  13.104  17.731  0.00  0.00    +0.000 C 
ATOM     20  C   UNL     1      -7.593  13.616  19.156  0.00  0.00    +0.000 C 
ATOM     21  C   UNL     1      -7.096  12.603  20.183  0.00  0.00    +0.000 C 
ATOM     22  C   UNL     1      -5.605  12.302  19.994  0.00  0.00    +0.000 C 
ENDBRANCH  12  17
BRANCH   2  23
ATOM     23  C   UNL     1      -1.050  14.019  22.255  0.00  0.00    +0.000 C 
ATOM     24  C   UNL     1      -2.156  14.846  21.603  0.00  0.00    +0.000 C 
ATOM     25  C   UNL     1      -2.072  16.192  22.296  0.00  0.00    +0.000 C 
ATOM     26  C   UNL     1      -1.555  15.897  23.700  0.00  0.00    +0.000 C 
ATOM     27  C   UNL     1      -1.167  14.417  23.721  0.00  0.00    +0.000 C 
ENDBRANCH   2  23
BRANCH   7  28
ATOM     28  C   UNL     1       2.108   8.980  18.184  0.00  0.00    +0.000 C 
BRANCH  28  29
ATOM     29  O   UNL     1       2.513   7.773  18.834  0.00  0.00    +0.000 OA
ATOM     30  H   UNL     1       2.486   7.072  18.159  0.00  0.00    +0.000 HD
ENDBRANCH  28  29
ENDBRANCH   7  28
TORSDOF 4
ENDMDL
