MODEL 1
REMARK VINA RESULT:      -8.1      0.000      0.000
REMARK  Name = 
REMARK  6 active torsions:
REMARK  status: ('A' for Active; 'I' for Inactive)
REMARK    1  A    between atoms: C_1  and  N_2
REMARK    2  A    between atoms: N_2  and  C_3
REMARK    3  A    between atoms: N_2  and  C_16
REMARK    4  A    between atoms: C_3  and  C_4
REMARK    5  A    between atoms: C_7  and  C_8
REMARK    6  A    between atoms: C_16  and  C_17
REMARK                            x       y       z     vdW  Elec       q    Type
REMARK                         _______ _______ _______ _____ _____    ______ ____
ROOT
ATOM      1  C   UNL     1       6.330   4.148  16.590  0.00  0.00    +0.000 C 
ATOM      2  N   UNL     1       5.703   5.389  17.062  0.00  0.00    +0.000 NA
ENDROOT
BRANCH   2   3
ATOM      3  C   UNL     1       6.294   6.573  16.408  0.00  0.00    +0.000 C 
BRANCH   3   4
ATOM      4  C   UNL     1       7.200   7.311  17.335  0.00  0.00    +0.000 A 
ATOM      5  C   UNL     1       7.956   6.830  18.377  0.00  0.00    +0.000 A 
ATOM      6  O   UNL     1       8.640   7.871  18.920  0.00  0.00    +0.000 OA
ATOM      7  C   UNL     1       8.265   8.957  18.175  0.00  0.00    +0.000 A 
ATOM      8  N   UNL     1       7.403   8.672  17.214  0.00  0.00    +0.000 NA
BRANCH   7   9
ATOM      9  C   UNL     1       8.823  10.251  18.545  0.00  0.00    +0.000 A 
ATOM     10  C   UNL     1       9.756  10.326  19.595  0.00  0.00    +0.000 A 
ATOM     11  C   UNL     1      10.346  11.545  19.949  0.00  0.00    +0.000 A 
ATOM     12  C   UNL     1      10.010  12.709  19.262  0.00  0.00    +0.000 A 
ATOM     13  C   UNL     1       9.073  12.655  18.232  0.00  0.00    +0.000 A 
ATOM     14  C   UNL     1       8.488  11.439  17.884  0.00  0.00    +0.000 A 
ATOM     15  F   UNL     1       7.595  11.448  16.883  0.00  0.00    +0.000 F 
ENDBRANCH   7   9
ENDBRANCH   3   4
ENDBRANCH   2   3
BRANCH   2  16
ATOM     16  C   UNL     1       4.249   5.378  16.812  0.00  0.00    +0.000 C 
BRANCH  16  17
ATOM     17  C   UNL     1       3.392   5.553  18.056  0.00  0.00    +0.000 A 
ATOM     18  C   UNL     1       3.092   6.867  18.466  0.00  0.00    +0.000 A 
ATOM     19  C   UNL     1       2.324   7.103  19.599  0.00  0.00    +0.000 A 
ATOM     20  C   UNL     1       1.838   6.031  20.341  0.00  0.00    +0.000 A 
ATOM     21  C   UNL     1       2.112   4.708  19.961  0.00  0.00    +0.000 A 
ATOM     22  C   UNL     1       1.602   3.641  20.718  0.00  0.00    +0.000 A 
ATOM     23  C   UNL     1       1.851   2.318  20.355  0.00  0.00    +0.000 A 
ATOM     24  C   UNL     1       2.619   2.047  19.233  0.00  0.00    +0.000 A 
ATOM     25  C   UNL     1       3.140   3.098  18.475  0.00  0.00    +0.000 A 
ATOM     26  C   UNL     1       2.898   4.450  18.810  0.00  0.00    +0.000 A 
ENDBRANCH  16  17
ENDBRANCH   2  16
TORSDOF 5
ENDMDL
MODEL 2
REMARK VINA RESULT:      -7.9      1.253      1.541
REMARK  Name = 
REMARK  6 active torsions:
REMARK  status: ('A' for Active; 'I' for Inactive)
REMARK    1  A    between atoms: C_1  and  N_2
REMARK    2  A    between atoms: N_2  and  C_3
REMARK    3  A    between atoms: N_2  and  C_16
REMARK    4  A    between atoms: C_3  and  C_4
REMARK    5  A    between atoms: C_7  and  C_8
REMARK    6  A    between atoms: C_16  and  C_17
REMARK                            x       y       z     vdW  Elec       q    Type
REMARK                         _______ _______ _______ _____ _____    ______ ____
ROOT
ATOM      1  C   UNL     1       5.968   4.678  17.793  0.00  0.00    +0.000 C 
ATOM      2  N   UNL     1       5.509   6.073  17.810  0.00  0.00    +0.000 NA
ENDROOT
BRANCH   2   3
ATOM      3  C   UNL     1       6.341   6.923  16.935  0.00  0.00    +0.000 C 
BRANCH   3   4
ATOM      4  C   UNL     1       7.371   7.664  17.719  0.00  0.00    +0.000 A 
ATOM      5  C   UNL     1       8.279   7.186  18.632  0.00  0.00    +0.000 A 
ATOM      6  O   UNL     1       9.030   8.230  19.070  0.00  0.00    +0.000 OA
ATOM      7  C   UNL     1       8.538   9.316  18.396  0.00  0.00    +0.000 A 
ATOM      8  N   UNL     1       7.543   9.028  17.576  0.00  0.00    +0.000 NA
BRANCH   7   9
ATOM      9  C   UNL     1       9.136  10.613  18.685  0.00  0.00    +0.000 A 
ATOM     10  C   UNL     1       9.374  11.514  17.631  0.00  0.00    +0.000 A 
ATOM     11  C   UNL     1       9.906  12.786  17.876  0.00  0.00    +0.000 A 
ATOM     12  C   UNL     1      10.212  13.175  19.178  0.00  0.00    +0.000 A 
ATOM     13  C   UNL     1      10.000  12.288  20.231  0.00  0.00    +0.000 A 
ATOM     14  C   UNL     1       9.471  11.022  19.981  0.00  0.00    +0.000 A 
ATOM     15  F   UNL     1       9.287  10.212  21.035  0.00  0.00    +0.000 F 
ENDBRANCH   7   9
ENDBRANCH   3   4
ENDBRANCH   2   3
BRANCH   2  16
ATOM     16  C   UNL     1       4.102   6.175  17.380  0.00  0.00    +0.000 C 
BRANCH  16  17
ATOM     17  C   UNL     1       3.084   5.839  18.459  0.00  0.00    +0.000 A 
ATOM     18  C   UNL     1       2.753   6.849  19.384  0.00  0.00    +0.000 A 
ATOM     19  C   UNL     1       1.840   6.611  20.404  0.00  0.00    +0.000 A 
ATOM     20  C   UNL     1       1.239   5.361  20.516  0.00  0.00    +0.000 A 
ATOM     21  C   UNL     1       1.540   4.332  19.611  0.00  0.00    +0.000 A 
ATOM     22  C   UNL     1       0.913   3.081  19.736  0.00  0.00    +0.000 A 
ATOM     23  C   UNL     1       1.187   2.047  18.842  0.00  0.00    +0.000 A 
ATOM     24  C   UNL     1       2.098   2.249  17.815  0.00  0.00    +0.000 A 
ATOM     25  C   UNL     1       2.736   3.484  17.684  0.00  0.00    +0.000 A 
ATOM     26  C   UNL     1       2.472   4.558  18.567  0.00  0.00    +0.000 A 
ENDBRANCH  16  17
ENDBRANCH   2  16
TORSDOF 5
ENDMDL
MODEL 3
REMARK VINA RESULT:      -7.9      4.912      8.697
REMARK  Name = 
REMARK  6 active torsions:
REMARK  status: ('A' for Active; 'I' for Inactive)
REMARK    1  A    between atoms: C_1  and  N_2
REMARK    2  A    between atoms: N_2  and  C_3
REMARK    3  A    between atoms: N_2  and  C_16
REMARK    4  A    between atoms: C_3  and  C_4
REMARK    5  A    between atoms: C_7  and  C_8
REMARK    6  A    between atoms: C_16  and  C_17
REMARK                            x       y       z     vdW  Elec       q    Type
REMARK                         _______ _______ _______ _____ _____    ______ ____
ROOT
ATOM      1  C   UNL     1      -0.289   9.964  17.739  0.00  0.00    +0.000 C 
ATOM      2  N   UNL     1       0.868   9.728  18.612  0.00  0.00    +0.000 NA
ENDROOT
BRANCH   2   3
ATOM      3  C   UNL     1       2.107   9.553  17.828  0.00  0.00    +0.000 C 
BRANCH   3   4
ATOM      4  C   UNL     1       2.570   8.136  17.852  0.00  0.00    +0.000 A 
ATOM      5  C   UNL     1       3.776   7.609  17.459  0.00  0.00    +0.000 A 
ATOM      6  O   UNL     1       3.750   6.270  17.689  0.00  0.00    +0.000 OA
ATOM      7  C   UNL     1       2.509   6.036  18.219  0.00  0.00    +0.000 A 
ATOM      8  N   UNL     1       1.765   7.122  18.336  0.00  0.00    +0.000 NA
BRANCH   7   9
ATOM      9  C   UNL     1       2.168   4.657  18.548  0.00  0.00    +0.000 A 
ATOM     10  C   UNL     1       2.492   3.631  17.642  0.00  0.00    +0.000 A 
ATOM     11  C   UNL     1       2.221   2.291  17.944  0.00  0.00    +0.000 A 
ATOM     12  C   UNL     1       1.616   1.957  19.154  0.00  0.00    +0.000 A 
ATOM     13  C   UNL     1       1.272   2.963  20.053  0.00  0.00    +0.000 A 
ATOM     14  C   UNL     1       1.544   4.296  19.748  0.00  0.00    +0.000 A 
ATOM     15  F   UNL     1       1.192   5.220  20.653  0.00  0.00    +0.000 F 
ENDBRANCH   7   9
ENDBRANCH   3   4
ENDBRANCH   2   3
BRANCH   2  16
ATOM     16  C   UNL     1       1.054  10.842  19.560  0.00  0.00    +0.000 C 
BRANCH  16  17
ATOM     17  C   UNL     1       0.383  10.643  20.910  0.00  0.00    +0.000 A 
ATOM     18  C   UNL     1       0.865   9.607  21.735  0.00  0.00    +0.000 A 
ATOM     19  C   UNL     1       0.293   9.360  22.977  0.00  0.00    +0.000 A 
ATOM     20  C   UNL     1      -0.768  10.144  23.418  0.00  0.00    +0.000 A 
ATOM     21  C   UNL     1      -1.273  11.187  22.626  0.00  0.00    +0.000 A 
ATOM     22  C   UNL     1      -2.338  11.973  23.096  0.00  0.00    +0.000 A 
ATOM     23  C   UNL     1      -2.849  13.022  22.333  0.00  0.00    +0.000 A 
ATOM     24  C   UNL     1      -2.304  13.293  21.086  0.00  0.00    +0.000 A 
ATOM     25  C   UNL     1      -1.251  12.514  20.602  0.00  0.00    +0.000 A 
ATOM     26  C   UNL     1      -0.702  11.450  21.355  0.00  0.00    +0.000 A 
ENDBRANCH  16  17
ENDBRANCH   2  16
TORSDOF 5
ENDMDL
MODEL 4
REMARK VINA RESULT:      -7.8      4.204      6.719
REMARK  Name = 
REMARK  6 active torsions:
REMARK  status: ('A' for Active; 'I' for Inactive)
REMARK    1  A    between atoms: C_1  and  N_2
REMARK    2  A    between atoms: N_2  and  C_3
REMARK    3  A    between atoms: N_2  and  C_16
REMARK    4  A    between atoms: C_3  and  C_4
REMARK    5  A    between atoms: C_7  and  C_8
REMARK    6  A    between atoms: C_16  and  C_17
REMARK                            x       y       z     vdW  Elec       q    Type
REMARK                         _______ _______ _______ _____ _____    ______ ____
ROOT
ATOM      1  C   UNL     1       1.395   4.340  19.321  0.00  0.00    +0.000 C 
ATOM      2  N   UNL     1       2.635   4.953  18.827  0.00  0.00    +0.000 NA
ENDROOT
BRANCH   2   3
ATOM      3  C   UNL     1       2.977   6.166  19.594  0.00  0.00    +0.000 C 
BRANCH   3   4
ATOM      4  C   UNL     1       2.512   7.399  18.895  0.00  0.00    +0.000 A 
ATOM      5  C   UNL     1       2.788   7.832  17.621  0.00  0.00    +0.000 A 
ATOM      6  O   UNL     1       2.123   8.999  17.416  0.00  0.00    +0.000 OA
ATOM      7  C   UNL     1       1.462   9.231  18.593  0.00  0.00    +0.000 A 
ATOM      8  N   UNL     1       1.664   8.301  19.510  0.00  0.00    +0.000 NA
BRANCH   7   9
ATOM      9  C   UNL     1       0.670  10.451  18.690  0.00  0.00    +0.000 A 
ATOM     10  C   UNL     1       1.198  11.565  19.365  0.00  0.00    +0.000 A 
ATOM     11  C   UNL     1       0.485  12.767  19.440  0.00  0.00    +0.000 A 
ATOM     12  C   UNL     1      -0.770  12.872  18.845  0.00  0.00    +0.000 A 
ATOM     13  C   UNL     1      -1.316  11.772  18.188  0.00  0.00    +0.000 A 
ATOM     14  C   UNL     1      -0.601  10.576  18.118  0.00  0.00    +0.000 A 
ATOM     15  F   UNL     1      -1.177   9.552  17.471  0.00  0.00    +0.000 F 
ENDBRANCH   7   9
ENDBRANCH   3   4
ENDBRANCH   2   3
BRANCH   2  16
ATOM     16  C   UNL     1       3.763   4.004  18.902  0.00  0.00    +0.000 C 
BRANCH  16  17
ATOM     17  C   UNL     1       5.106   4.585  18.490  0.00  0.00    +0.000 A 
ATOM     18  C   UNL     1       5.929   5.117  19.502  0.00  0.00    +0.000 A 
ATOM     19  C   UNL     1       7.165   5.674  19.197  0.00  0.00    +0.000 A 
ATOM     20  C   UNL     1       7.602   5.707  17.877  0.00  0.00    +0.000 A 
ATOM     21  C   UNL     1       6.812   5.183  16.842  0.00  0.00    +0.000 A 
ATOM     22  C   UNL     1       7.278   5.218  15.518  0.00  0.00    +0.000 A 
ATOM     23  C   UNL     1       6.517   4.694  14.474  0.00  0.00    +0.000 A 
ATOM     24  C   UNL     1       5.276   4.135  14.742  0.00  0.00    +0.000 A 
ATOM     25  C   UNL     1       4.796   4.102  16.052  0.00  0.00    +0.000 A 
ATOM     26  C   UNL     1       5.547   4.615  17.135  0.00  0.00    +0.000 A 
ENDBRANCH  16  17
ENDBRANCH   2  16
TORSDOF 5
ENDMDL
MODEL 5
REMARK VINA RESULT:      -7.8      4.019      6.941
REMARK  Name = 
REMARK  6 active torsions:
REMARK  status: ('A' for Active; 'I' for Inactive)
REMARK    1  A    between atoms: C_1  and  N_2
REMARK    2  A    between atoms: N_2  and  C_3
REMARK    3  A    between atoms: N_2  and  C_16
REMARK    4  A    between atoms: C_3  and  C_4
REMARK    5  A    between atoms: C_7  and  C_8
REMARK    6  A    between atoms: C_16  and  C_17
REMARK                            x       y       z     vdW  Elec       q    Type
REMARK                         _______ _______ _______ _____ _____    ______ ____
ROOT
ATOM      1  C   UNL     1       2.175   2.912  18.370  0.00  0.00    +0.000 C 
ATOM      2  N   UNL     1       3.097   3.990  18.748  0.00  0.00    +0.000 NA
ENDROOT
BRANCH   2   3
ATOM      3  C   UNL     1       2.667   4.654  19.993  0.00  0.00    +0.000 C 
BRANCH   3   4
ATOM      4  C   UNL     1       2.361   6.095  19.762  0.00  0.00    +0.000 A 
ATOM      5  C   UNL     1       2.806   6.930  18.765  0.00  0.00    +0.000 A 
ATOM      6  O   UNL     1       2.241   8.151  18.950  0.00  0.00    +0.000 OA
ATOM      7  C   UNL     1       1.465   8.006  20.069  0.00  0.00    +0.000 A 
ATOM      8  N   UNL     1       1.505   6.793  20.593  0.00  0.00    +0.000 NA
BRANCH   7   9
ATOM      9  C   UNL     1       0.742   9.180  20.543  0.00  0.00    +0.000 A 
ATOM     10  C   UNL     1       0.026   9.967  19.623  0.00  0.00    +0.000 A 
ATOM     11  C   UNL     1      -0.716  11.076  20.047  0.00  0.00    +0.000 A 
ATOM     12  C   UNL     1      -0.749  11.418  21.397  0.00  0.00    +0.000 A 
ATOM     13  C   UNL     1      -0.030  10.660  22.319  0.00  0.00    +0.000 A 
ATOM     14  C   UNL     1       0.708   9.557  21.890  0.00  0.00    +0.000 A 
ATOM     15  F   UNL     1       1.378   8.864  22.823  0.00  0.00    +0.000 F 
ENDBRANCH   7   9
ENDBRANCH   3   4
ENDBRANCH   2   3
BRANCH   2  16
ATOM     16  C   UNL     1       4.469   3.476  18.927  0.00  0.00    +0.000 C 
BRANCH  16  17
ATOM     17  C   UNL     1       5.562   4.394  18.403  0.00  0.00    +0.000 A 
ATOM     18  C   UNL     1       6.253   5.190  19.337  0.00  0.00    +0.000 A 
ATOM     19  C   UNL     1       7.257   6.061  18.928  0.00  0.00    +0.000 A 
ATOM     20  C   UNL     1       7.589   6.149  17.580  0.00  0.00    +0.000 A 
ATOM     21  C   UNL     1       6.925   5.369  16.621  0.00  0.00    +0.000 A 
ATOM     22  C   UNL     1       7.284   5.467  15.267  0.00  0.00    +0.000 A 
ATOM     23  C   UNL     1       6.648   4.694  14.296  0.00  0.00    +0.000 A 
ATOM     24  C   UNL     1       5.638   3.819  14.669  0.00  0.00    +0.000 A 
ATOM     25  C   UNL     1       5.264   3.718  16.010  0.00  0.00    +0.000 A 
ATOM     26  C   UNL     1       5.897   4.479  17.021  0.00  0.00    +0.000 A 
ENDBRANCH  16  17
ENDBRANCH   2  16
TORSDOF 5
ENDMDL
MODEL 6
REMARK VINA RESULT:      -7.8      3.648      5.847
REMARK  Name = 
REMARK  6 active torsions:
REMARK  status: ('A' for Active; 'I' for Inactive)
REMARK    1  A    between atoms: C_1  and  N_2
REMARK    2  A    between atoms: N_2  and  C_3
REMARK    3  A    between atoms: N_2  and  C_16
REMARK    4  A    between atoms: C_3  and  C_4
REMARK    5  A    between atoms: C_7  and  C_8
REMARK    6  A    between atoms: C_16  and  C_17
REMARK                            x       y       z     vdW  Elec       q    Type
REMARK                         _______ _______ _______ _____ _____    ______ ____
ROOT
ATOM      1  C   UNL     1       2.533   8.539  17.707  0.00  0.00    +0.000 C 
ATOM      2  N   UNL     1       3.403   7.357  17.683  0.00  0.00    +0.000 NA
ENDROOT
BRANCH   2   3
ATOM      3  C   UNL     1       4.825   7.738  17.566  0.00  0.00    +0.000 C 
BRANCH   3   4
ATOM      4  C   UNL     1       5.607   6.701  16.833  0.00  0.00    +0.000 A 
ATOM      5  C   UNL     1       6.667   5.944  17.268  0.00  0.00    +0.000 A 
ATOM      6  O   UNL     1       7.040   5.115  16.258  0.00  0.00    +0.000 OA
ATOM      7  C   UNL     1       6.178   5.409  15.235  0.00  0.00    +0.000 A 
ATOM      8  N   UNL     1       5.301   6.353  15.531  0.00  0.00    +0.000 NA
BRANCH   7   9
ATOM      9  C   UNL     1       6.352   4.687  13.981  0.00  0.00    +0.000 A 
ATOM     10  C   UNL     1       5.384   3.746  13.586  0.00  0.00    +0.000 A 
ATOM     11  C   UNL     1       5.495   3.066  12.367  0.00  0.00    +0.000 A 
ATOM     12  C   UNL     1       6.578   3.313  11.527  0.00  0.00    +0.000 A 
ATOM     13  C   UNL     1       7.555   4.228  11.912  0.00  0.00    +0.000 A 
ATOM     14  C   UNL     1       7.440   4.902  13.127  0.00  0.00    +0.000 A 
ATOM     15  F   UNL     1       8.410   5.773  13.444  0.00  0.00    +0.000 F 
ENDBRANCH   7   9
ENDBRANCH   3   4
ENDBRANCH   2   3
BRANCH   2  16
ATOM     16  C   UNL     1       3.224   6.540  18.898  0.00  0.00    +0.000 C 
BRANCH  16  17
ATOM     17  C   UNL     1       2.852   5.089  18.637  0.00  0.00    +0.000 A 
ATOM     18  C   UNL     1       2.933   4.620  17.312  0.00  0.00    +0.000 A 
ATOM     19  C   UNL     1       2.598   3.309  16.997  0.00  0.00    +0.000 A 
ATOM     20  C   UNL     1       2.179   2.442  18.002  0.00  0.00    +0.000 A 
ATOM     21  C   UNL     1       2.090   2.872  19.334  0.00  0.00    +0.000 A 
ATOM     22  C   UNL     1       1.675   1.977  20.334  0.00  0.00    +0.000 A 
ATOM     23  C   UNL     1       1.590   2.377  21.667  0.00  0.00    +0.000 A 
ATOM     24  C   UNL     1       1.912   3.681  22.015  0.00  0.00    +0.000 A 
ATOM     25  C   UNL     1       2.317   4.584  21.030  0.00  0.00    +0.000 A 
ATOM     26  C   UNL     1       2.425   4.208  19.671  0.00  0.00    +0.000 A 
ENDBRANCH  16  17
ENDBRANCH   2  16
TORSDOF 5
ENDMDL
MODEL 7
REMARK VINA RESULT:      -7.8      5.268      8.138
REMARK  Name = 
REMARK  6 active torsions:
REMARK  status: ('A' for Active; 'I' for Inactive)
REMARK    1  A    between atoms: C_1  and  N_2
REMARK    2  A    between atoms: N_2  and  C_3
REMARK    3  A    between atoms: N_2  and  C_16
REMARK    4  A    between atoms: C_3  and  C_4
REMARK    5  A    between atoms: C_7  and  C_8
REMARK    6  A    between atoms: C_16  and  C_17
REMARK                            x       y       z     vdW  Elec       q    Type
REMARK                         _______ _______ _______ _____ _____    ______ ____
ROOT
ATOM      1  C   UNL     1       1.161   8.340  20.622  0.00  0.00    +0.000 C 
ATOM      2  N   UNL     1       1.750   7.844  19.372  0.00  0.00    +0.000 NA
ENDROOT
BRANCH   2   3
ATOM      3  C   UNL     1       2.058   8.951  18.446  0.00  0.00    +0.000 C 
BRANCH   3   4
ATOM      4  C   UNL     1       0.972   9.973  18.439  0.00  0.00    +0.000 A 
ATOM      5  C   UNL     1       1.014  11.288  18.834  0.00  0.00    +0.000 A 
ATOM      6  O   UNL     1      -0.213  11.833  18.623  0.00  0.00    +0.000 OA
ATOM      7  C   UNL     1      -0.960  10.811  18.102  0.00  0.00    +0.000 A 
ATOM      8  N   UNL     1      -0.295   9.676  17.974  0.00  0.00    +0.000 NA
BRANCH   7   9
ATOM      9  C   UNL     1      -2.358  11.088  17.795  0.00  0.00    +0.000 A 
ATOM     10  C   UNL     1      -3.177  11.673  18.776  0.00  0.00    +0.000 A 
ATOM     11  C   UNL     1      -4.512  11.995  18.503  0.00  0.00    +0.000 A 
ATOM     12  C   UNL     1      -5.049  11.733  17.244  0.00  0.00    +0.000 A 
ATOM     13  C   UNL     1      -4.255  11.137  16.267  0.00  0.00    +0.000 A 
ATOM     14  C   UNL     1      -2.927  10.817  16.545  0.00  0.00    +0.000 A 
ATOM     15  F   UNL     1      -2.212  10.247  15.564  0.00  0.00    +0.000 F 
ENDBRANCH   7   9
ENDBRANCH   3   4
ENDBRANCH   2   3
BRANCH   2  16
ATOM     16  C   UNL     1       2.984   7.079  19.633  0.00  0.00    +0.000 C 
BRANCH  16  17
ATOM     17  C   UNL     1       3.208   5.901  18.697  0.00  0.00    +0.000 A 
ATOM     18  C   UNL     1       4.158   6.053  17.669  0.00  0.00    +0.000 A 
ATOM     19  C   UNL     1       4.407   5.023  16.769  0.00  0.00    +0.000 A 
ATOM     20  C   UNL     1       3.714   3.822  16.884  0.00  0.00    +0.000 A 
ATOM     21  C   UNL     1       2.762   3.633  17.898  0.00  0.00    +0.000 A 
ATOM     22  C   UNL     1       2.082   2.408  18.002  0.00  0.00    +0.000 A 
ATOM     23  C   UNL     1       1.141   2.192  19.007  0.00  0.00    +0.000 A 
ATOM     24  C   UNL     1       0.864   3.201  19.918  0.00  0.00    +0.000 A 
ATOM     25  C   UNL     1       1.526   4.426  19.822  0.00  0.00    +0.000 A 
ATOM     26  C   UNL     1       2.494   4.675  18.821  0.00  0.00    +0.000 A 
ENDBRANCH  16  17
ENDBRANCH   2  16
TORSDOF 5
ENDMDL
MODEL 8
REMARK VINA RESULT:      -7.8      6.181      9.139
REMARK  Name = 
REMARK  6 active torsions:
REMARK  status: ('A' for Active; 'I' for Inactive)
REMARK    1  A    between atoms: C_1  and  N_2
REMARK    2  A    between atoms: N_2  and  C_3
REMARK    3  A    between atoms: N_2  and  C_16
REMARK    4  A    between atoms: C_3  and  C_4
REMARK    5  A    between atoms: C_7  and  C_8
REMARK    6  A    between atoms: C_16  and  C_17
REMARK                            x       y       z     vdW  Elec       q    Type
REMARK                         _______ _______ _______ _____ _____    ______ ____
ROOT
ATOM      1  C   UNL     1       0.763  12.330  18.966  0.00  0.00    +0.000 C 
ATOM      2  N   UNL     1       0.138  11.004  19.058  0.00  0.00    +0.000 NA
ENDROOT
BRANCH   2   3
ATOM      3  C   UNL     1       0.821  10.154  20.052  0.00  0.00    +0.000 C 
BRANCH   3   4
ATOM      4  C   UNL     1       1.492   8.991  19.403  0.00  0.00    +0.000 A 
ATOM      5  C   UNL     1       1.882   8.832  18.095  0.00  0.00    +0.000 A 
ATOM      6  O   UNL     1       2.475   7.615  17.975  0.00  0.00    +0.000 OA
ATOM      7  C   UNL     1       2.418   7.078  19.234  0.00  0.00    +0.000 A 
ATOM      8  N   UNL     1       1.838   7.864  20.124  0.00  0.00    +0.000 NA
BRANCH   7   9
ATOM      9  C   UNL     1       2.961   5.737  19.417  0.00  0.00    +0.000 A 
ATOM     10  C   UNL     1       4.249   5.442  18.936  0.00  0.00    +0.000 A 
ATOM     11  C   UNL     1       4.820   4.179  19.132  0.00  0.00    +0.000 A 
ATOM     12  C   UNL     1       4.110   3.191  19.810  0.00  0.00    +0.000 A 
ATOM     13  C   UNL     1       2.826   3.461  20.276  0.00  0.00    +0.000 A 
ATOM     14  C   UNL     1       2.261   4.720  20.077  0.00  0.00    +0.000 A 
ATOM     15  F   UNL     1       1.023   4.923  20.550  0.00  0.00    +0.000 F 
ENDBRANCH   7   9
ENDBRANCH   3   4
ENDBRANCH   2   3
BRANCH   2  16
ATOM     16  C   UNL     1      -1.288  11.114  19.420  0.00  0.00    +0.000 C 
BRANCH  16  17
ATOM     17  C   UNL     1      -2.249  11.020  18.245  0.00  0.00    +0.000 A 
ATOM     18  C   UNL     1      -1.808  10.345  17.090  0.00  0.00    +0.000 A 
ATOM     19  C   UNL     1      -2.628  10.230  15.974  0.00  0.00    +0.000 A 
ATOM     20  C   UNL     1      -3.903  10.785  15.993  0.00  0.00    +0.000 A 
ATOM     21  C   UNL     1      -4.379  11.462  17.126  0.00  0.00    +0.000 A 
ATOM     22  C   UNL     1      -5.674  12.005  17.127  0.00  0.00    +0.000 A 
ATOM     23  C   UNL     1      -6.174  12.671  18.245  0.00  0.00    +0.000 A 
ATOM     24  C   UNL     1      -5.380  12.809  19.374  0.00  0.00    +0.000 A 
ATOM     25  C   UNL     1      -4.087  12.282  19.384  0.00  0.00    +0.000 A 
ATOM     26  C   UNL     1      -3.554  11.591  18.272  0.00  0.00    +0.000 A 
ENDBRANCH  16  17
ENDBRANCH   2  16
TORSDOF 5
ENDMDL
MODEL 9
REMARK VINA RESULT:      -7.7      1.696      2.002
REMARK  Name = 
REMARK  6 active torsions:
REMARK  status: ('A' for Active; 'I' for Inactive)
REMARK    1  A    between atoms: C_1  and  N_2
REMARK    2  A    between atoms: N_2  and  C_3
REMARK    3  A    between atoms: N_2  and  C_16
REMARK    4  A    between atoms: C_3  and  C_4
REMARK    5  A    between atoms: C_7  and  C_8
REMARK    6  A    between atoms: C_16  and  C_17
REMARK                            x       y       z     vdW  Elec       q    Type
REMARK                         _______ _______ _______ _____ _____    ______ ____
ROOT
ATOM      1  C   UNL     1       7.850   5.375  20.010  0.00  0.00    +0.000 C 
ATOM      2  N   UNL     1       6.943   5.815  18.943  0.00  0.00    +0.000 NA
ENDROOT
BRANCH   2   3
ATOM      3  C   UNL     1       7.690   6.364  17.795  0.00  0.00    +0.000 C 
BRANCH   3   4
ATOM      4  C   UNL     1       7.890   7.835  17.930  0.00  0.00    +0.000 A 
ATOM      5  C   UNL     1       7.187   8.865  17.351  0.00  0.00    +0.000 A 
ATOM      6  O   UNL     1       7.718  10.037  17.786  0.00  0.00    +0.000 OA
ATOM      7  C   UNL     1       8.736   9.666  18.623  0.00  0.00    +0.000 A 
ATOM      8  N   UNL     1       8.880   8.358  18.741  0.00  0.00    +0.000 NA
BRANCH   7   9
ATOM      9  C   UNL     1       9.526  10.729  19.233  0.00  0.00    +0.000 A 
ATOM     10  C   UNL     1       9.307  11.066  20.581  0.00  0.00    +0.000 A 
ATOM     11  C   UNL     1      10.076  12.050  21.212  0.00  0.00    +0.000 A 
ATOM     12  C   UNL     1      11.074  12.716  20.504  0.00  0.00    +0.000 A 
ATOM     13  C   UNL     1      11.292  12.407  19.163  0.00  0.00    +0.000 A 
ATOM     14  C   UNL     1      10.522  11.427  18.539  0.00  0.00    +0.000 A 
ATOM     15  F   UNL     1      10.778  11.171  17.247  0.00  0.00    +0.000 F 
ENDBRANCH   7   9
ENDBRANCH   3   4
ENDBRANCH   2   3
BRANCH   2  16
ATOM     16  C   UNL     1       6.094   4.703  18.475  0.00  0.00    +0.000 C 
BRANCH  16  17
ATOM     17  C   UNL     1       4.620   5.048  18.334  0.00  0.00    +0.000 A 
ATOM     18  C   UNL     1       4.282   6.395  18.096  0.00  0.00    +0.000 A 
ATOM     19  C   UNL     1       2.954   6.786  17.967  0.00  0.00    +0.000 A 
ATOM     20  C   UNL     1       1.942   5.837  18.070  0.00  0.00    +0.000 A 
ATOM     21  C   UNL     1       2.239   4.486  18.302  0.00  0.00    +0.000 A 
ATOM     22  C   UNL     1       1.201   3.544  18.392  0.00  0.00    +0.000 A 
ATOM     23  C   UNL     1       1.472   2.194  18.611  0.00  0.00    +0.000 A 
ATOM     24  C   UNL     1       2.786   1.771  18.749  0.00  0.00    +0.000 A 
ATOM     25  C   UNL     1       3.827   2.697  18.672  0.00  0.00    +0.000 A 
ATOM     26  C   UNL     1       3.588   4.072  18.440  0.00  0.00    +0.000 A 
ENDBRANCH  16  17
ENDBRANCH   2  16
TORSDOF 5
ENDMDL
