MODEL 1
REMARK VINA RESULT:      -7.9      0.000      0.000
REMARK  Name = 
REMARK  3 active torsions:
REMARK  status: ('A' for Active; 'I' for Inactive)
REMARK    1  A    between atoms: C_1  and  O_2
REMARK    2  A    between atoms: O_2  and  C_3
REMARK    3  A    between atoms: C_9  and  N_10
REMARK                            x       y       z     vdW  Elec       q    Type
REMARK                         _______ _______ _______ _____ _____    ______ ____
ROOT
ATOM      1  C   UNL     1       1.768   3.797  18.999  0.00  0.00    +0.000 A 
ATOM      2  C   UNL     1       2.213   2.844  18.084  0.00  0.00    +0.000 A 
ATOM      3  C   UNL     1       3.213   3.159  17.158  0.00  0.00    +0.000 A 
ATOM      4  C   UNL     1       3.777   4.442  17.126  0.00  0.00    +0.000 A 
ATOM      5  C   UNL     1       3.348   5.397  18.065  0.00  0.00    +0.000 A 
ATOM      6  C   UNL     1       2.343   5.063  18.989  0.00  0.00    +0.000 A 
ATOM      7  C   UNL     1       3.877   6.823  18.071  0.00  0.00    +0.000 C 
ATOM      8  C   UNL     1       5.231   6.910  17.355  0.00  0.00    +0.000 C 
ATOM      9  C   UNL     1       5.170   6.236  15.986  0.00  0.00    +0.000 C 
ATOM     10  C   UNL     1       4.870   4.744  16.132  0.00  0.00    +0.000 C 
ENDROOT
BRANCH   7  11
ATOM     11  N   UNL     1       2.879   7.666  17.408  0.00  0.00    +0.000 N 
ATOM     12  C   UNL     1       2.064   8.435  18.149  0.00  0.00    +0.000 A 
ATOM     13  N   UNL     1       2.042   8.614  19.449  0.00  0.00    +0.000 NA
ATOM     14  C   UNL     1       0.999   9.480  19.680  0.00  0.00    +0.000 A 
ATOM     15  C   UNL     1       0.505   9.989  20.891  0.00  0.00    +0.000 A 
ATOM     16  C   UNL     1      -0.578  10.876  20.854  0.00  0.00    +0.000 A 
ATOM     17  C   UNL     1      -1.154  11.257  19.640  0.00  0.00    +0.000 A 
ATOM     18  C   UNL     1      -0.678  10.756  18.421  0.00  0.00    +0.000 A 
ATOM     19  C   UNL     1       0.393   9.864  18.490  0.00  0.00    +0.000 A 
ATOM     20  N   UNL     1       1.092   9.175  17.530  0.00  0.00    +0.000 N 
ATOM     21  H   UNL     1       2.527   7.269  16.540  0.00  0.00    +0.000 HD
ATOM     22  H   UNL     1       0.942   9.221  16.536  0.00  0.00    +0.000 HD
ENDBRANCH   7  11
BRANCH   1  24
ATOM     23  C   UNL     1       1.193   2.938  21.129  0.00  0.00    +0.000 C 
ATOM     24  O   UNL     1       0.773   3.389  19.845  0.00  0.00    +0.000 OA
ENDBRANCH   1  24
TORSDOF 2
ENDMDL
MODEL 2
REMARK VINA RESULT:      -7.7      2.337      4.013
REMARK  Name = 
REMARK  3 active torsions:
REMARK  status: ('A' for Active; 'I' for Inactive)
REMARK    1  A    between atoms: C_1  and  O_2
REMARK    2  A    between atoms: O_2  and  C_3
REMARK    3  A    between atoms: C_9  and  N_10
REMARK                            x       y       z     vdW  Elec       q    Type
REMARK                         _______ _______ _______ _____ _____    ______ ____
ROOT
ATOM      1  C   UNL     1       6.425   6.872  17.181  0.00  0.00    +0.000 A 
ATOM      2  C   UNL     1       7.051   5.632  17.068  0.00  0.00    +0.000 A 
ATOM      3  C   UNL     1       6.320   4.449  17.213  0.00  0.00    +0.000 A 
ATOM      4  C   UNL     1       4.945   4.490  17.486  0.00  0.00    +0.000 A 
ATOM      5  C   UNL     1       4.305   5.739  17.573  0.00  0.00    +0.000 A 
ATOM      6  C   UNL     1       5.056   6.918  17.424  0.00  0.00    +0.000 A 
ATOM      7  C   UNL     1       2.828   5.873  17.908  0.00  0.00    +0.000 C 
ATOM      8  C   UNL     1       2.075   4.573  17.598  0.00  0.00    +0.000 C 
ATOM      9  C   UNL     1       2.783   3.370  18.215  0.00  0.00    +0.000 C 
ATOM     10  C   UNL     1       4.178   3.198  17.613  0.00  0.00    +0.000 C 
ENDROOT
BRANCH   7  11
ATOM     11  N   UNL     1       2.727   6.211  19.330  0.00  0.00    +0.000 N 
ATOM     12  C   UNL     1       2.051   7.309  19.703  0.00  0.00    +0.000 A 
ATOM     13  N   UNL     1       1.373   8.160  18.969  0.00  0.00    +0.000 NA
ATOM     14  C   UNL     1       0.902   9.107  19.849  0.00  0.00    +0.000 A 
ATOM     15  C   UNL     1       0.143  10.262  19.604  0.00  0.00    +0.000 A 
ATOM     16  C   UNL     1      -0.223  11.066  20.691  0.00  0.00    +0.000 A 
ATOM     17  C   UNL     1       0.149  10.727  21.994  0.00  0.00    +0.000 A 
ATOM     18  C   UNL     1       0.911   9.581  22.257  0.00  0.00    +0.000 A 
ATOM     19  C   UNL     1       1.271   8.806  21.154  0.00  0.00    +0.000 A 
ATOM     20  N   UNL     1       2.010   7.655  21.028  0.00  0.00    +0.000 N 
ATOM     21  H   UNL     1       3.539   5.924  19.871  0.00  0.00    +0.000 HD
ATOM     22  H   UNL     1       2.430   7.132  21.777  0.00  0.00    +0.000 HD
ENDBRANCH   7  11
BRANCH   1  24
ATOM     23  C   UNL     1       8.144   8.207  18.114  0.00  0.00    +0.000 C 
ATOM     24  O   UNL     1       7.239   7.963  17.041  0.00  0.00    +0.000 OA
ENDBRANCH   1  24
TORSDOF 2
ENDMDL
MODEL 3
REMARK VINA RESULT:      -7.1      2.357      7.284
REMARK  Name = 
REMARK  3 active torsions:
REMARK  status: ('A' for Active; 'I' for Inactive)
REMARK    1  A    between atoms: C_1  and  O_2
REMARK    2  A    between atoms: O_2  and  C_3
REMARK    3  A    between atoms: C_9  and  N_10
REMARK                            x       y       z     vdW  Elec       q    Type
REMARK                         _______ _______ _______ _____ _____    ______ ____
ROOT
ATOM      1  C   UNL     1      -2.092  10.191  17.353  0.00  0.00    +0.000 A 
ATOM      2  C   UNL     1      -3.055  11.065  17.858  0.00  0.00    +0.000 A 
ATOM      3  C   UNL     1      -2.768  11.883  18.955  0.00  0.00    +0.000 A 
ATOM      4  C   UNL     1      -1.511  11.830  19.575  0.00  0.00    +0.000 A 
ATOM      5  C   UNL     1      -0.530  10.970  19.052  0.00  0.00    +0.000 A 
ATOM      6  C   UNL     1      -0.835  10.155  17.948  0.00  0.00    +0.000 A 
ATOM      7  C   UNL     1       0.842  10.821  19.689  0.00  0.00    +0.000 C 
ATOM      8  C   UNL     1       1.183  12.043  20.552  0.00  0.00    +0.000 C 
ATOM      9  C   UNL     1       0.042  12.369  21.513  0.00  0.00    +0.000 C 
ATOM     10  C   UNL     1      -1.224  12.741  20.741  0.00  0.00    +0.000 C 
ENDROOT
BRANCH   7  11
ATOM     11  N   UNL     1       0.823   9.598  20.497  0.00  0.00    +0.000 N 
ATOM     12  C   UNL     1       1.459   8.502  20.053  0.00  0.00    +0.000 A 
ATOM     13  N   UNL     1       2.189   8.341  18.975  0.00  0.00    +0.000 NA
ATOM     14  C   UNL     1       2.580   7.022  18.993  0.00  0.00    +0.000 A 
ATOM     15  C   UNL     1       3.348   6.300  18.066  0.00  0.00    +0.000 A 
ATOM     16  C   UNL     1       3.618   4.951  18.325  0.00  0.00    +0.000 A 
ATOM     17  C   UNL     1       3.142   4.332  19.483  0.00  0.00    +0.000 A 
ATOM     18  C   UNL     1       2.368   5.034  20.417  0.00  0.00    +0.000 A 
ATOM     19  C   UNL     1       2.105   6.374  20.126  0.00  0.00    +0.000 A 
ATOM     20  N   UNL     1       1.388   7.344  20.782  0.00  0.00    +0.000 N 
ATOM     21  H   UNL     1      -0.029   9.488  21.041  0.00  0.00    +0.000 HD
ATOM     22  H   UNL     1       0.910   7.239  21.661  0.00  0.00    +0.000 HD
ENDBRANCH   7  11
BRANCH   1  24
ATOM     23  C   UNL     1      -2.906  10.135  15.130  0.00  0.00    +0.000 C 
ATOM     24  O   UNL     1      -2.486   9.424  16.291  0.00  0.00    +0.000 OA
ENDBRANCH   1  24
TORSDOF 2
ENDMDL
MODEL 4
REMARK VINA RESULT:      -6.8      2.661      4.185
REMARK  Name = 
REMARK  3 active torsions:
REMARK  status: ('A' for Active; 'I' for Inactive)
REMARK    1  A    between atoms: C_1  and  O_2
REMARK    2  A    between atoms: O_2  and  C_3
REMARK    3  A    between atoms: C_9  and  N_10
REMARK                            x       y       z     vdW  Elec       q    Type
REMARK                         _______ _______ _______ _____ _____    ______ ____
ROOT
ATOM      1  C   UNL     1       5.603   4.296  14.127  0.00  0.00    +0.000 A 
ATOM      2  C   UNL     1       6.989   4.386  14.245  0.00  0.00    +0.000 A 
ATOM      3  C   UNL     1       7.579   4.719  15.468  0.00  0.00    +0.000 A 
ATOM      4  C   UNL     1       6.787   4.979  16.594  0.00  0.00    +0.000 A 
ATOM      5  C   UNL     1       5.390   4.863  16.486  0.00  0.00    +0.000 A 
ATOM      6  C   UNL     1       4.813   4.526  15.249  0.00  0.00    +0.000 A 
ATOM      7  C   UNL     1       4.457   5.170  17.647  0.00  0.00    +0.000 C 
ATOM      8  C   UNL     1       5.197   5.072  18.987  0.00  0.00    +0.000 C 
ATOM      9  C   UNL     1       6.495   5.877  18.954  0.00  0.00    +0.000 C 
ATOM     10  C   UNL     1       7.453   5.312  17.905  0.00  0.00    +0.000 C 
ENDROOT
BRANCH   7  11
ATOM     11  N   UNL     1       3.924   6.518  17.440  0.00  0.00    +0.000 N 
ATOM     12  C   UNL     1       3.086   7.046  18.348  0.00  0.00    +0.000 A 
ATOM     13  N   UNL     1       2.679   6.550  19.492  0.00  0.00    +0.000 NA
ATOM     14  C   UNL     1       1.817   7.489  20.010  0.00  0.00    +0.000 A 
ATOM     15  C   UNL     1       1.069   7.464  21.198  0.00  0.00    +0.000 A 
ATOM     16  C   UNL     1       0.263   8.566  21.506  0.00  0.00    +0.000 A 
ATOM     17  C   UNL     1       0.205   9.674  20.657  0.00  0.00    +0.000 A 
ATOM     18  C   UNL     1       0.939   9.715  19.465  0.00  0.00    +0.000 A 
ATOM     19  C   UNL     1       1.724   8.597  19.178  0.00  0.00    +0.000 A 
ATOM     20  N   UNL     1       2.542   8.282  18.121  0.00  0.00    +0.000 N 
ATOM     21  H   UNL     1       3.801   6.758  16.459  0.00  0.00    +0.000 HD
ATOM     22  H   UNL     1       2.737   8.865  17.324  0.00  0.00    +0.000 HD
ENDBRANCH   7  11
BRANCH   1  24
ATOM     23  C   UNL     1       5.857   2.982  12.173  0.00  0.00    +0.000 C 
ATOM     24  O   UNL     1       5.132   3.984  12.881  0.00  0.00    +0.000 OA
ENDBRANCH   1  24
TORSDOF 2
ENDMDL
MODEL 5
REMARK VINA RESULT:      -6.8      3.863      5.691
REMARK  Name = 
REMARK  3 active torsions:
REMARK  status: ('A' for Active; 'I' for Inactive)
REMARK    1  A    between atoms: C_1  and  O_2
REMARK    2  A    between atoms: O_2  and  C_3
REMARK    3  A    between atoms: C_9  and  N_10
REMARK                            x       y       z     vdW  Elec       q    Type
REMARK                         _______ _______ _______ _____ _____    ______ ____
ROOT
ATOM      1  C   UNL     1       3.195   5.542  18.931  0.00  0.00    +0.000 A 
ATOM      2  C   UNL     1       2.670   4.623  18.024  0.00  0.00    +0.000 A 
ATOM      3  C   UNL     1       3.474   4.075  17.019  0.00  0.00    +0.000 A 
ATOM      4  C   UNL     1       4.820   4.449  16.900  0.00  0.00    +0.000 A 
ATOM      5  C   UNL     1       5.360   5.356  17.829  0.00  0.00    +0.000 A 
ATOM      6  C   UNL     1       4.537   5.896  18.833  0.00  0.00    +0.000 A 
ATOM      7  C   UNL     1       6.796   5.846  17.745  0.00  0.00    +0.000 C 
ATOM      8  C   UNL     1       7.662   4.874  16.933  0.00  0.00    +0.000 C 
ATOM      9  C   UNL     1       7.002   4.537  15.599  0.00  0.00    +0.000 C 
ATOM     10  C   UNL     1       5.668   3.824  15.822  0.00  0.00    +0.000 C 
ENDROOT
BRANCH   7  11
ATOM     11  N   UNL     1       6.774   7.172  17.122  0.00  0.00    +0.000 N 
ATOM     12  C   UNL     1       7.504   8.166  17.654  0.00  0.00    +0.000 A 
ATOM     13  N   UNL     1       8.332   8.139  18.672  0.00  0.00    +0.000 NA
ATOM     14  C   UNL     1       8.791   9.429  18.803  0.00  0.00    +0.000 A 
ATOM     15  C   UNL     1       9.674   9.977  19.747  0.00  0.00    +0.000 A 
ATOM     16  C   UNL     1       9.993  11.337  19.656  0.00  0.00    +0.000 A 
ATOM     17  C   UNL     1       9.454  12.136  18.645  0.00  0.00    +0.000 A 
ATOM     18  C   UNL     1       8.566  11.609  17.698  0.00  0.00    +0.000 A 
ATOM     19  C   UNL     1       8.256  10.253  17.821  0.00  0.00    +0.000 A 
ATOM     20  N   UNL     1       7.433   9.419  17.105  0.00  0.00    +0.000 N 
ATOM     21  H   UNL     1       5.886   7.395  16.680  0.00  0.00    +0.000 HD
ATOM     22  H   UNL     1       6.889   9.669  16.298  0.00  0.00    +0.000 HD
ENDBRANCH   7  11
BRANCH   1  24
ATOM     23  C   UNL     1       1.845   5.093  20.823  0.00  0.00    +0.000 C 
ATOM     24  O   UNL     1       2.316   6.029  19.859  0.00  0.00    +0.000 OA
ENDBRANCH   1  24
TORSDOF 2
ENDMDL
MODEL 6
REMARK VINA RESULT:      -6.8      2.235      3.961
REMARK  Name = 
REMARK  3 active torsions:
REMARK  status: ('A' for Active; 'I' for Inactive)
REMARK    1  A    between atoms: C_1  and  O_2
REMARK    2  A    between atoms: O_2  and  C_3
REMARK    3  A    between atoms: C_9  and  N_10
REMARK                            x       y       z     vdW  Elec       q    Type
REMARK                         _______ _______ _______ _____ _____    ______ ____
ROOT
ATOM      1  C   UNL     1       5.874   6.514  17.642  0.00  0.00    +0.000 A 
ATOM      2  C   UNL     1       6.600   5.368  17.964  0.00  0.00    +0.000 A 
ATOM      3  C   UNL     1       5.976   4.281  18.585  0.00  0.00    +0.000 A 
ATOM      4  C   UNL     1       4.613   4.329  18.904  0.00  0.00    +0.000 A 
ATOM      5  C   UNL     1       3.871   5.472  18.558  0.00  0.00    +0.000 A 
ATOM      6  C   UNL     1       4.514   6.555  17.933  0.00  0.00    +0.000 A 
ATOM      7  C   UNL     1       2.399   5.622  18.906  0.00  0.00    +0.000 C 
ATOM      8  C   UNL     1       1.750   4.254  19.151  0.00  0.00    +0.000 C 
ATOM      9  C   UNL     1       2.578   3.423  20.129  0.00  0.00    +0.000 C 
ATOM     10  C   UNL     1       3.963   3.132  19.552  0.00  0.00    +0.000 C 
ENDROOT
BRANCH   7  11
ATOM     11  N   UNL     1       2.313   6.464  20.103  0.00  0.00    +0.000 N 
ATOM     12  C   UNL     1       1.778   7.693  20.011  0.00  0.00    +0.000 A 
ATOM     13  N   UNL     1       1.233   8.289  18.977  0.00  0.00    +0.000 NA
ATOM     14  C   UNL     1       0.871   9.538  19.425  0.00  0.00    +0.000 A 
ATOM     15  C   UNL     1       0.275  10.603  18.732  0.00  0.00    +0.000 A 
ATOM     16  C   UNL     1      -0.006  11.784  19.430  0.00  0.00    +0.000 A 
ATOM     17  C   UNL     1       0.291  11.903  20.790  0.00  0.00    +0.000 A 
ATOM     18  C   UNL     1       0.891  10.852  21.497  0.00  0.00    +0.000 A 
ATOM     19  C   UNL     1       1.171   9.693  20.772  0.00  0.00    +0.000 A 
ATOM     20  N   UNL     1       1.755   8.499  21.118  0.00  0.00    +0.000 N 
ATOM     21  H   UNL     1       3.069   6.304  20.764  0.00  0.00    +0.000 HD
ATOM     22  H   UNL     1       2.087   8.241  22.031  0.00  0.00    +0.000 HD
ENDBRANCH   7  11
BRANCH   1  24
ATOM     23  C   UNL     1       7.805   7.883  17.701  0.00  0.00    +0.000 C 
ATOM     24  O   UNL     1       6.587   7.524  17.056  0.00  0.00    +0.000 OA
ENDBRANCH   1  24
TORSDOF 2
ENDMDL
MODEL 7
REMARK VINA RESULT:      -6.8      2.705      7.619
REMARK  Name = 
REMARK  3 active torsions:
REMARK  status: ('A' for Active; 'I' for Inactive)
REMARK    1  A    between atoms: C_1  and  O_2
REMARK    2  A    between atoms: O_2  and  C_3
REMARK    3  A    between atoms: C_9  and  N_10
REMARK                            x       y       z     vdW  Elec       q    Type
REMARK                         _______ _______ _______ _____ _____    ______ ____
ROOT
ATOM      1  C   UNL     1      -2.708  10.313  16.896  0.00  0.00    +0.000 A 
ATOM      2  C   UNL     1      -3.937  10.819  17.319  0.00  0.00    +0.000 A 
ATOM      3  C   UNL     1      -4.022  11.617  18.464  0.00  0.00    +0.000 A 
ATOM      4  C   UNL     1      -2.874  11.914  19.213  0.00  0.00    +0.000 A 
ATOM      5  C   UNL     1      -1.630  11.428  18.774  0.00  0.00    +0.000 A 
ATOM      6  C   UNL     1      -1.563  10.628  17.621  0.00  0.00    +0.000 A 
ATOM      7  C   UNL     1      -0.345  11.668  19.551  0.00  0.00    +0.000 C 
ATOM      8  C   UNL     1      -0.483  12.881  20.480  0.00  0.00    +0.000 C 
ATOM      9  C   UNL     1      -1.753  12.784  21.322  0.00  0.00    +0.000 C 
ATOM     10  C   UNL     1      -2.994  12.798  20.429  0.00  0.00    +0.000 C 
ENDROOT
BRANCH   7  11
ATOM     11  N   UNL     1      -0.059  10.452  20.317  0.00  0.00    +0.000 N 
ATOM     12  C   UNL     1       0.787   9.537  19.815  0.00  0.00    +0.000 A 
ATOM     13  N   UNL     1       1.491   9.572  18.708  0.00  0.00    +0.000 NA
ATOM     14  C   UNL     1       2.166   8.374  18.668  0.00  0.00    +0.000 A 
ATOM     15  C   UNL     1       3.038   7.866  17.692  0.00  0.00    +0.000 A 
ATOM     16  C   UNL     1       3.611   6.605  17.896  0.00  0.00    +0.000 A 
ATOM     17  C   UNL     1       3.332   5.866  19.048  0.00  0.00    +0.000 A 
ATOM     18  C   UNL     1       2.459   6.353  20.030  0.00  0.00    +0.000 A 
ATOM     19  C   UNL     1       1.893   7.607  19.794  0.00  0.00    +0.000 A 
ATOM     20  N   UNL     1       1.004   8.374  20.506  0.00  0.00    +0.000 N 
ATOM     21  H   UNL     1      -0.842  10.140  20.885  0.00  0.00    +0.000 HD
ATOM     22  H   UNL     1       0.598   8.143  21.396  0.00  0.00    +0.000 HD
ENDBRANCH   7  11
BRANCH   1  24
ATOM     23  C   UNL     1      -3.370  10.100  14.633  0.00  0.00    +0.000 C 
ATOM     24  O   UNL     1      -2.743   9.528  15.777  0.00  0.00    +0.000 OA
ENDBRANCH   1  24
TORSDOF 2
ENDMDL
MODEL 8
REMARK VINA RESULT:      -6.8      4.512      6.445
REMARK  Name = 
REMARK  3 active torsions:
REMARK  status: ('A' for Active; 'I' for Inactive)
REMARK    1  A    between atoms: C_1  and  O_2
REMARK    2  A    between atoms: O_2  and  C_3
REMARK    3  A    between atoms: C_9  and  N_10
REMARK                            x       y       z     vdW  Elec       q    Type
REMARK                         _______ _______ _______ _____ _____    ______ ____
ROOT
ATOM      1  C   UNL     1       5.916   3.328  12.509  0.00  0.00    +0.000 A 
ATOM      2  C   UNL     1       6.742   4.363  12.072  0.00  0.00    +0.000 A 
ATOM      3  C   UNL     1       7.354   5.221  12.990  0.00  0.00    +0.000 A 
ATOM      4  C   UNL     1       7.140   5.064  14.366  0.00  0.00    +0.000 A 
ATOM      5  C   UNL     1       6.329   4.005  14.812  0.00  0.00    +0.000 A 
ATOM      6  C   UNL     1       5.722   3.151  13.876  0.00  0.00    +0.000 A 
ATOM      7  C   UNL     1       6.011   3.790  16.283  0.00  0.00    +0.000 C 
ATOM      8  C   UNL     1       7.058   4.469  17.176  0.00  0.00    +0.000 C 
ATOM      9  C   UNL     1       7.278   5.920  16.755  0.00  0.00    +0.000 C 
ATOM     10  C   UNL     1       7.833   5.990  15.333  0.00  0.00    +0.000 C 
ENDROOT
BRANCH   7  11
ATOM     11  N   UNL     1       4.676   4.340  16.531  0.00  0.00    +0.000 N 
ATOM     12  C   UNL     1       4.022   4.009  17.656  0.00  0.00    +0.000 A 
ATOM     13  N   UNL     1       4.421   3.272  18.666  0.00  0.00    +0.000 NA
ATOM     14  C   UNL     1       3.357   3.238  19.536  0.00  0.00    +0.000 A 
ATOM     15  C   UNL     1       3.220   2.571  20.763  0.00  0.00    +0.000 A 
ATOM     16  C   UNL     1       2.020   2.707  21.471  0.00  0.00    +0.000 A 
ATOM     17  C   UNL     1       0.979   3.497  20.976  0.00  0.00    +0.000 A 
ATOM     18  C   UNL     1       1.094   4.165  19.751  0.00  0.00    +0.000 A 
ATOM     19  C   UNL     1       2.297   4.001  19.061  0.00  0.00    +0.000 A 
ATOM     20  N   UNL     1       2.750   4.476  17.855  0.00  0.00    +0.000 N 
ATOM     21  H   UNL     1       4.142   4.502  15.680  0.00  0.00    +0.000 HD
ATOM     22  H   UNL     1       2.251   5.086  17.231  0.00  0.00    +0.000 HD
ENDBRANCH   7  11
BRANCH   1  24
ATOM     23  C   UNL     1       4.055   2.959  11.092  0.00  0.00    +0.000 C 
ATOM     24  O   UNL     1       5.352   2.561  11.526  0.00  0.00    +0.000 OA
ENDBRANCH   1  24
TORSDOF 2
ENDMDL
MODEL 9
REMARK VINA RESULT:      -6.8      3.225      7.304
REMARK  Name = 
REMARK  3 active torsions:
REMARK  status: ('A' for Active; 'I' for Inactive)
REMARK    1  A    between atoms: C_1  and  O_2
REMARK    2  A    between atoms: O_2  and  C_3
REMARK    3  A    between atoms: C_9  and  N_10
REMARK                            x       y       z     vdW  Elec       q    Type
REMARK                         _______ _______ _______ _____ _____    ______ ____
ROOT
ATOM      1  C   UNL     1       2.909   7.472  18.132  0.00  0.00    +0.000 A 
ATOM      2  C   UNL     1       1.901   7.191  19.054  0.00  0.00    +0.000 A 
ATOM      3  C   UNL     1       1.926   6.007  19.796  0.00  0.00    +0.000 A 
ATOM      4  C   UNL     1       2.958   5.076  19.620  0.00  0.00    +0.000 A 
ATOM      5  C   UNL     1       3.990   5.368  18.710  0.00  0.00    +0.000 A 
ATOM      6  C   UNL     1       3.950   6.564  17.973  0.00  0.00    +0.000 A 
ATOM      7  C   UNL     1       5.123   4.394  18.428  0.00  0.00    +0.000 C 
ATOM      8  C   UNL     1       5.289   3.394  19.580  0.00  0.00    +0.000 C 
ATOM      9  C   UNL     1       3.950   2.759  19.949  0.00  0.00    +0.000 C 
ATOM     10  C   UNL     1       2.971   3.819  20.452  0.00  0.00    +0.000 C 
ENDROOT
BRANCH   7  11
ATOM     11  N   UNL     1       4.808   3.702  17.175  0.00  0.00    +0.000 N 
ATOM     12  C   UNL     1       5.501   3.997  16.063  0.00  0.00    +0.000 A 
ATOM     13  N   UNL     1       6.516   4.813  15.906  0.00  0.00    +0.000 NA
ATOM     14  C   UNL     1       6.826   4.756  14.567  0.00  0.00    +0.000 A 
ATOM     15  C   UNL     1       7.808   5.450  13.842  0.00  0.00    +0.000 A 
ATOM     16  C   UNL     1       7.928   5.201  12.469  0.00  0.00    +0.000 A 
ATOM     17  C   UNL     1       7.097   4.277  11.830  0.00  0.00    +0.000 A 
ATOM     18  C   UNL     1       6.108   3.580  12.536  0.00  0.00    +0.000 A 
ATOM     19  C   UNL     1       6.003   3.858  13.900  0.00  0.00    +0.000 A 
ATOM     20  N   UNL     1       5.162   3.393  14.881  0.00  0.00    +0.000 N 
ATOM     21  H   UNL     1       3.827   3.446  17.092  0.00  0.00    +0.000 HD
ATOM     22  H   UNL     1       4.437   2.705  14.768  0.00  0.00    +0.000 HD
ENDBRANCH   7  11
BRANCH   1  24
ATOM     23  C   UNL     1       1.719   9.503  17.873  0.00  0.00    +0.000 C 
ATOM     24  O   UNL     1       2.775   8.648  17.446  0.00  0.00    +0.000 OA
ENDBRANCH   1  24
TORSDOF 2
ENDMDL
