MODEL 1
REMARK VINA RESULT:      -8.0      0.000      0.000
REMARK  Name = 
REMARK  9 active torsions:
REMARK  status: ('A' for Active; 'I' for Inactive)
REMARK    1  A    between atoms: C_1  and  C_2
REMARK    2  A    between atoms: C_2  and  C_3
REMARK    3  A    between atoms: C_3  and  C_4
REMARK    4  A    between atoms: C_3  and  N_6
REMARK    5  A    between atoms: C_4  and  C_5
REMARK    6  A    between atoms: C_17  and  C_18
REMARK    7  A    between atoms: C_18  and  O_20
REMARK    8  A    between atoms: O_20  and  C_21
REMARK    9  A    between atoms: N_28  and  C_29
REMARK                            x       y       z     vdW  Elec       q    Type
REMARK                         _______ _______ _______ _____ _____    ______ ____
ROOT
ATOM      1  N   UNL     1       1.061   8.488  20.939  0.00  0.00    +0.000 N 
ATOM      2  C   UNL     1       0.883   7.235  21.521  0.00  0.00    +0.000 A 
ATOM      3  C   UNL     1       1.340   6.227  20.660  0.00  0.00    +0.000 A 
ATOM      4  C   UNL     1       1.753   6.925  19.567  0.00  0.00    +0.000 A 
ATOM      5  C   UNL     1       2.397   6.406  18.499  0.00  0.00    +0.000 A 
ATOM      6  C   UNL     1       2.841   7.244  17.468  0.00  0.00    +0.000 A 
ATOM      7  C   UNL     1       2.590   8.622  17.556  0.00  0.00    +0.000 A 
ATOM      8  C   UNL     1       1.961   9.152  18.703  0.00  0.00    +0.000 A 
ATOM      9  C   UNL     1       1.558   8.254  19.711  0.00  0.00    +0.000 A 
ATOM     10  C   UNL     1       2.938   5.065  18.673  0.00  0.00    +0.000 C 
ATOM     11  C   UNL     1       4.144   5.259  19.590  0.00  0.00    +0.000 C 
ATOM     12  C   UNL     1       5.114   4.262  19.097  0.00  0.00    +0.000 C 
ATOM     13  C   UNL     1       4.497   2.906  19.672  0.00  0.00    +0.000 C 
ATOM     14  N   UNL     1       2.959   2.775  19.487  0.00  0.00    +0.000 NA
ATOM     15  C   UNL     1       2.660   1.870  18.350  0.00  0.00    +0.000 C 
ATOM     16  C   UNL     1       2.109   4.050  19.400  0.00  0.00    +0.000 C 
ATOM     17  C   UNL     1       1.521   4.675  20.770  0.00  0.00    +0.000 C 
ENDROOT
BRANCH  12  18
ATOM     18  C   UNL     1       6.400   5.096  19.175  0.00  0.00    +0.000 C 
ATOM     19  O   UNL     1       7.024   5.233  20.216  0.00  0.00    +0.000 OA
BRANCH  18  20
ATOM     20  O   UNL     1       6.479   6.032  18.148  0.00  0.00    +0.000 OA
BRANCH  20  21
ATOM     21  C   UNL     1       7.248   6.096  16.979  0.00  0.00    +0.000 C 
ATOM     22  C   UNL     1       7.532   4.706  16.412  0.00  0.00    +0.000 C 
ATOM     23  C   UNL     1       6.209   4.006  16.052  0.00  0.00    +0.000 C 
ATOM     24  C   UNL     1       5.411   4.821  15.018  0.00  0.00    +0.000 C 
ATOM     25  C   UNL     1       5.160   6.247  15.519  0.00  0.00    +0.000 C 
ATOM     26  C   UNL     1       6.496   6.911  15.881  0.00  0.00    +0.000 C 
ENDBRANCH  20  21
ENDBRANCH  18  20
ENDBRANCH  12  18
BRANCH   1  27
ATOM     27  C   UNL     1       0.920   9.818  21.568  0.00  0.00    +0.000 C 
BRANCH  27  29
ATOM     28  C   UNL     1       1.030  12.174  20.571  0.00  0.00    +0.000 C 
ATOM     29  C   UNL     1       0.248  10.870  20.631  0.00  0.00    +0.000 C 
ENDBRANCH  27  29
BRANCH  27  30
ATOM     30  C   UNL     1       0.264   9.689  22.971  0.00  0.00    +0.000 C 
ATOM     31  C   UNL     1      -1.016  10.494  23.168  0.00  0.00    +0.000 C 
ENDBRANCH  27  30
ENDBRANCH   1  27
TORSDOF 6
ENDMDL
MODEL 2
REMARK VINA RESULT:      -7.9      4.233      9.111
REMARK  Name = 
REMARK  9 active torsions:
REMARK  status: ('A' for Active; 'I' for Inactive)
REMARK    1  A    between atoms: C_1  and  C_2
REMARK    2  A    between atoms: C_2  and  C_3
REMARK    3  A    between atoms: C_3  and  C_4
REMARK    4  A    between atoms: C_3  and  N_6
REMARK    5  A    between atoms: C_4  and  C_5
REMARK    6  A    between atoms: C_17  and  C_18
REMARK    7  A    between atoms: C_18  and  O_20
REMARK    8  A    between atoms: O_20  and  C_21
REMARK    9  A    between atoms: N_28  and  C_29
REMARK                            x       y       z     vdW  Elec       q    Type
REMARK                         _______ _______ _______ _____ _____    ______ ____
ROOT
ATOM      1  N   UNL     1       1.804   6.659  20.141  0.00  0.00    +0.000 N 
ATOM      2  C   UNL     1       1.260   7.129  21.333  0.00  0.00    +0.000 A 
ATOM      3  C   UNL     1       1.032   8.511  21.255  0.00  0.00    +0.000 A 
ATOM      4  C   UNL     1       1.486   8.823  20.010  0.00  0.00    +0.000 A 
ATOM      5  C   UNL     1       1.367  10.027  19.408  0.00  0.00    +0.000 A 
ATOM      6  C   UNL     1       1.805  10.202  18.089  0.00  0.00    +0.000 A 
ATOM      7  C   UNL     1       2.383   9.115  17.414  0.00  0.00    +0.000 A 
ATOM      8  C   UNL     1       2.452   7.852  18.042  0.00  0.00    +0.000 A 
ATOM      9  C   UNL     1       1.974   7.743  19.362  0.00  0.00    +0.000 A 
ATOM     10  C   UNL     1       0.433  10.957  20.027  0.00  0.00    +0.000 C 
ATOM     11  C   UNL     1      -0.946  10.397  19.682  0.00  0.00    +0.000 C 
ATOM     12  C   UNL     1      -1.770  11.607  19.489  0.00  0.00    +0.000 C 
ATOM     13  C   UNL     1      -1.993  12.082  20.998  0.00  0.00    +0.000 C 
ATOM     14  N   UNL     1      -0.710  12.045  21.875  0.00  0.00    +0.000 NA
ATOM     15  C   UNL     1      -0.160  13.414  22.027  0.00  0.00    +0.000 C 
ATOM     16  C   UNL     1       0.404  11.051  21.523  0.00  0.00    +0.000 C 
ATOM     17  C   UNL     1       0.354   9.576  22.182  0.00  0.00    +0.000 C 
ENDROOT
BRANCH  12  18
ATOM     18  C   UNL     1      -2.579  11.171  18.261  0.00  0.00    +0.000 C 
ATOM     19  O   UNL     1      -2.149  11.286  17.124  0.00  0.00    +0.000 OA
BRANCH  18  20
ATOM     20  O   UNL     1      -3.946  11.129  18.523  0.00  0.00    +0.000 OA
BRANCH  20  21
ATOM     21  C   UNL     1      -4.999  12.001  18.218  0.00  0.00    +0.000 C 
ATOM     22  C   UNL     1      -6.276  11.243  17.860  0.00  0.00    +0.000 C 
ATOM     23  C   UNL     1      -6.726  10.379  19.051  0.00  0.00    +0.000 C 
ATOM     24  C   UNL     1      -6.986  11.243  20.299  0.00  0.00    +0.000 C 
ATOM     25  C   UNL     1      -5.749  12.074  20.657  0.00  0.00    +0.000 C 
ATOM     26  C   UNL     1      -5.318  12.912  19.445  0.00  0.00    +0.000 C 
ENDBRANCH  20  21
ENDBRANCH  18  20
ENDBRANCH  12  18
BRANCH   1  27
ATOM     27  C   UNL     1       2.000   5.257  19.714  0.00  0.00    +0.000 C 
BRANCH  27  29
ATOM     28  C   UNL     1       3.851   4.071  18.401  0.00  0.00    +0.000 C 
ATOM     29  C   UNL     1       3.501   4.833  19.670  0.00  0.00    +0.000 C 
ENDBRANCH  27  29
BRANCH  27  30
ATOM     30  C   UNL     1       1.082   4.306  20.532  0.00  0.00    +0.000 C 
ATOM     31  C   UNL     1       1.809   3.346  21.468  0.00  0.00    +0.000 C 
ENDBRANCH  27  30
ENDBRANCH   1  27
TORSDOF 6
ENDMDL
MODEL 3
REMARK VINA RESULT:      -7.5      4.144      8.988
REMARK  Name = 
REMARK  9 active torsions:
REMARK  status: ('A' for Active; 'I' for Inactive)
REMARK    1  A    between atoms: C_1  and  C_2
REMARK    2  A    between atoms: C_2  and  C_3
REMARK    3  A    between atoms: C_3  and  C_4
REMARK    4  A    between atoms: C_3  and  N_6
REMARK    5  A    between atoms: C_4  and  C_5
REMARK    6  A    between atoms: C_17  and  C_18
REMARK    7  A    between atoms: C_18  and  O_20
REMARK    8  A    between atoms: O_20  and  C_21
REMARK    9  A    between atoms: N_28  and  C_29
REMARK                            x       y       z     vdW  Elec       q    Type
REMARK                         _______ _______ _______ _____ _____    ______ ____
ROOT
ATOM      1  N   UNL     1       1.981   6.330  20.278  0.00  0.00    +0.000 N 
ATOM      2  C   UNL     1       1.476   6.913  21.437  0.00  0.00    +0.000 A 
ATOM      3  C   UNL     1       1.249   8.282  21.236  0.00  0.00    +0.000 A 
ATOM      4  C   UNL     1       1.664   8.474  19.954  0.00  0.00    +0.000 A 
ATOM      5  C   UNL     1       1.530   9.616  19.246  0.00  0.00    +0.000 A 
ATOM      6  C   UNL     1       1.927   9.664  17.904  0.00  0.00    +0.000 A 
ATOM      7  C   UNL     1       2.481   8.516  17.316  0.00  0.00    +0.000 A 
ATOM      8  C   UNL     1       2.566   7.317  18.057  0.00  0.00    +0.000 A 
ATOM      9  C   UNL     1       2.129   7.335  19.396  0.00  0.00    +0.000 A 
ATOM     10  C   UNL     1       0.618  10.606  19.803  0.00  0.00    +0.000 C 
ATOM     11  C   UNL     1      -0.772  10.023  19.555  0.00  0.00    +0.000 C 
ATOM     12  C   UNL     1      -1.599  11.214  19.275  0.00  0.00    +0.000 C 
ATOM     13  C   UNL     1      -1.773  11.831  20.738  0.00  0.00    +0.000 C 
ATOM     14  N   UNL     1      -0.464  11.868  21.575  0.00  0.00    +0.000 NA
ATOM     15  C   UNL     1       0.095  13.243  21.581  0.00  0.00    +0.000 C 
ATOM     16  C   UNL     1       0.636  10.840  21.283  0.00  0.00    +0.000 C 
ATOM     17  C   UNL     1       0.602   9.434  22.079  0.00  0.00    +0.000 C 
ENDROOT
BRANCH  12  18
ATOM     18  C   UNL     1      -2.447  10.670  18.118  0.00  0.00    +0.000 C 
ATOM     19  O   UNL     1      -1.985  10.484  17.003  0.00  0.00    +0.000 OA
BRANCH  18  20
ATOM     20  O   UNL     1      -3.807  10.892  18.317  0.00  0.00    +0.000 OA
BRANCH  20  21
ATOM     21  C   UNL     1      -4.637  11.989  18.055  0.00  0.00    +0.000 C 
ATOM     22  C   UNL     1      -5.995  11.553  17.507  0.00  0.00    +0.000 C 
ATOM     23  C   UNL     1      -6.717  10.667  18.538  0.00  0.00    +0.000 C 
ATOM     24  C   UNL     1      -6.926  11.416  19.867  0.00  0.00    +0.000 C 
ATOM     25  C   UNL     1      -5.593  11.931  20.421  0.00  0.00    +0.000 C 
ATOM     26  C   UNL     1      -4.894  12.798  19.365  0.00  0.00    +0.000 C 
ENDBRANCH  20  21
ENDBRANCH  18  20
ENDBRANCH  12  18
BRANCH   1  27
ATOM     27  C   UNL     1       2.159   4.893  19.979  0.00  0.00    +0.000 C 
BRANCH  27  29
ATOM     28  C   UNL     1       1.364   2.798  21.218  0.00  0.00    +0.000 C 
ATOM     29  C   UNL     1       2.281   4.010  21.261  0.00  0.00    +0.000 C 
ENDBRANCH  27  29
BRANCH  27  30
ATOM     30  C   UNL     1       1.087   4.412  18.962  0.00  0.00    +0.000 C 
ATOM     31  C   UNL     1       1.634   3.876  17.643  0.00  0.00    +0.000 C 
ENDBRANCH  27  30
ENDBRANCH   1  27
TORSDOF 6
ENDMDL
MODEL 4
REMARK VINA RESULT:      -7.5      2.227      7.650
REMARK  Name = 
REMARK  9 active torsions:
REMARK  status: ('A' for Active; 'I' for Inactive)
REMARK    1  A    between atoms: C_1  and  C_2
REMARK    2  A    between atoms: C_2  and  C_3
REMARK    3  A    between atoms: C_3  and  C_4
REMARK    4  A    between atoms: C_3  and  N_6
REMARK    5  A    between atoms: C_4  and  C_5
REMARK    6  A    between atoms: C_17  and  C_18
REMARK    7  A    between atoms: C_18  and  O_20
REMARK    8  A    between atoms: O_20  and  C_21
REMARK    9  A    between atoms: N_28  and  C_29
REMARK                            x       y       z     vdW  Elec       q    Type
REMARK                         _______ _______ _______ _____ _____    ______ ____
ROOT
ATOM      1  N   UNL     1       5.742   4.181  15.286  0.00  0.00    +0.000 N 
ATOM      2  C   UNL     1       4.730   3.278  15.603  0.00  0.00    +0.000 A 
ATOM      3  C   UNL     1       4.399   3.373  16.963  0.00  0.00    +0.000 A 
ATOM      4  C   UNL     1       5.262   4.322  17.420  0.00  0.00    +0.000 A 
ATOM      5  C   UNL     1       5.253   4.862  18.658  0.00  0.00    +0.000 A 
ATOM      6  C   UNL     1       6.146   5.892  18.984  0.00  0.00    +0.000 A 
ATOM      7  C   UNL     1       7.056   6.336  18.012  0.00  0.00    +0.000 A 
ATOM      8  C   UNL     1       7.015   5.795  16.709  0.00  0.00    +0.000 A 
ATOM      9  C   UNL     1       6.079   4.776  16.445  0.00  0.00    +0.000 A 
ATOM     10  C   UNL     1       4.056   4.617  19.450  0.00  0.00    +0.000 C 
ATOM     11  C   UNL     1       2.989   5.503  18.811  0.00  0.00    +0.000 C 
ATOM     12  C   UNL     1       2.176   5.946  19.961  0.00  0.00    +0.000 C 
ATOM     13  C   UNL     1       1.336   4.626  20.282  0.00  0.00    +0.000 C 
ATOM     14  N   UNL     1       2.174   3.318  20.273  0.00  0.00    +0.000 NA
ATOM     15  C   UNL     1       2.468   2.894  21.664  0.00  0.00    +0.000 C 
ATOM     16  C   UNL     1       3.440   3.251  19.409  0.00  0.00    +0.000 C 
ATOM     17  C   UNL     1       3.302   2.737  17.883  0.00  0.00    +0.000 C 
ENDROOT
BRANCH  12  18
ATOM     18  C   UNL     1       1.958   7.414  19.570  0.00  0.00    +0.000 C 
ATOM     19  O   UNL     1       2.620   7.961  18.701  0.00  0.00    +0.000 OA
BRANCH  18  20
ATOM     20  O   UNL     1       1.345   8.141  20.586  0.00  0.00    +0.000 OA
BRANCH  20  21
ATOM     21  C   UNL     1       1.693   9.324  21.249  0.00  0.00    +0.000 C 
ATOM     22  C   UNL     1       1.123  10.556  20.545  0.00  0.00    +0.000 C 
ATOM     23  C   UNL     1      -0.413  10.480  20.518  0.00  0.00    +0.000 C 
ATOM     24  C   UNL     1      -0.993  10.400  21.941  0.00  0.00    +0.000 C 
ATOM     25  C   UNL     1      -0.398   9.214  22.709  0.00  0.00    +0.000 C 
ATOM     26  C   UNL     1       1.134   9.312  22.707  0.00  0.00    +0.000 C 
ENDBRANCH  20  21
ENDBRANCH  18  20
ENDBRANCH  12  18
BRANCH   1  27
ATOM     27  C   UNL     1       6.240   4.564  13.949  0.00  0.00    +0.000 C 
BRANCH  27  29
ATOM     28  C   UNL     1       8.141   5.638  12.609  0.00  0.00    +0.000 C 
ATOM     29  C   UNL     1       7.681   5.164  13.980  0.00  0.00    +0.000 C 
ENDBRANCH  27  29
BRANCH  27  30
ATOM     30  C   UNL     1       6.047   3.397  12.941  0.00  0.00    +0.000 C 
ATOM     31  C   UNL     1       4.871   3.552  11.982  0.00  0.00    +0.000 C 
ENDBRANCH  27  30
ENDBRANCH   1  27
TORSDOF 6
ENDMDL
MODEL 5
REMARK VINA RESULT:      -7.4      2.253      7.659
REMARK  Name = 
REMARK  9 active torsions:
REMARK  status: ('A' for Active; 'I' for Inactive)
REMARK    1  A    between atoms: C_1  and  C_2
REMARK    2  A    between atoms: C_2  and  C_3
REMARK    3  A    between atoms: C_3  and  C_4
REMARK    4  A    between atoms: C_3  and  N_6
REMARK    5  A    between atoms: C_4  and  C_5
REMARK    6  A    between atoms: C_17  and  C_18
REMARK    7  A    between atoms: C_18  and  O_20
REMARK    8  A    between atoms: O_20  and  C_21
REMARK    9  A    between atoms: N_28  and  C_29
REMARK                            x       y       z     vdW  Elec       q    Type
REMARK                         _______ _______ _______ _____ _____    ______ ____
ROOT
ATOM      1  N   UNL     1       5.569   4.280  15.433  0.00  0.00    +0.000 N 
ATOM      2  C   UNL     1       4.545   3.377  15.710  0.00  0.00    +0.000 A 
ATOM      3  C   UNL     1       4.236   3.392  17.077  0.00  0.00    +0.000 A 
ATOM      4  C   UNL     1       5.122   4.296  17.579  0.00  0.00    +0.000 A 
ATOM      5  C   UNL     1       5.141   4.758  18.848  0.00  0.00    +0.000 A 
ATOM      6  C   UNL     1       6.058   5.749  19.223  0.00  0.00    +0.000 A 
ATOM      7  C   UNL     1       6.962   6.237  18.267  0.00  0.00    +0.000 A 
ATOM      8  C   UNL     1       6.892   5.779  16.933  0.00  0.00    +0.000 A 
ATOM      9  C   UNL     1       5.933   4.796  16.621  0.00  0.00    +0.000 A 
ATOM     10  C   UNL     1       3.952   4.484  19.642  0.00  0.00    +0.000 C 
ATOM     11  C   UNL     1       2.892   5.428  19.076  0.00  0.00    +0.000 C 
ATOM     12  C   UNL     1       2.104   5.812  20.263  0.00  0.00    +0.000 C 
ATOM     13  C   UNL     1       1.244   4.490  20.515  0.00  0.00    +0.000 C 
ATOM     14  N   UNL     1       2.058   3.170  20.412  0.00  0.00    +0.000 NA
ATOM     15  C   UNL     1       2.364   2.656  21.769  0.00  0.00    +0.000 C 
ATOM     16  C   UNL     1       3.310   3.135  19.526  0.00  0.00    +0.000 C 
ATOM     17  C   UNL     1       3.141   2.720  17.973  0.00  0.00    +0.000 C 
ENDROOT
BRANCH  12  18
ATOM     18  C   UNL     1       1.908   7.305  19.968  0.00  0.00    +0.000 C 
ATOM     19  O   UNL     1       2.665   7.929  19.240  0.00  0.00    +0.000 OA
BRANCH  18  20
ATOM     20  O   UNL     1       1.153   7.939  20.951  0.00  0.00    +0.000 OA
BRANCH  20  21
ATOM     21  C   UNL     1      -0.176   8.376  20.993  0.00  0.00    +0.000 C 
ATOM     22  C   UNL     1      -0.614   8.722  22.416  0.00  0.00    +0.000 C 
ATOM     23  C   UNL     1       0.260   9.861  22.971  0.00  0.00    +0.000 C 
ATOM     24  C   UNL     1       0.159  11.120  22.091  0.00  0.00    +0.000 C 
ATOM     25  C   UNL     1       0.526  10.804  20.637  0.00  0.00    +0.000 C 
ATOM     26  C   UNL     1      -0.353   9.657  20.119  0.00  0.00    +0.000 C 
ENDBRANCH  20  21
ENDBRANCH  18  20
ENDBRANCH  12  18
BRANCH   1  27
ATOM     27  C   UNL     1       6.055   4.737  14.115  0.00  0.00    +0.000 C 
BRANCH  27  29
ATOM     28  C   UNL     1       8.149   5.557  12.890  0.00  0.00    +0.000 C 
ATOM     29  C   UNL     1       7.604   4.621  13.958  0.00  0.00    +0.000 C 
ENDBRANCH  27  29
BRANCH  27  30
ATOM     30  C   UNL     1       5.238   4.071  12.972  0.00  0.00    +0.000 C 
ATOM     31  C   UNL     1       5.982   3.004  12.176  0.00  0.00    +0.000 C 
ENDBRANCH  27  30
ENDBRANCH   1  27
TORSDOF 6
ENDMDL
MODEL 6
REMARK VINA RESULT:      -7.3      5.704     10.886
REMARK  Name = 
REMARK  9 active torsions:
REMARK  status: ('A' for Active; 'I' for Inactive)
REMARK    1  A    between atoms: C_1  and  C_2
REMARK    2  A    between atoms: C_2  and  C_3
REMARK    3  A    between atoms: C_3  and  C_4
REMARK    4  A    between atoms: C_3  and  N_6
REMARK    5  A    between atoms: C_4  and  C_5
REMARK    6  A    between atoms: C_17  and  C_18
REMARK    7  A    between atoms: C_18  and  O_20
REMARK    8  A    between atoms: O_20  and  C_21
REMARK    9  A    between atoms: N_28  and  C_29
REMARK                            x       y       z     vdW  Elec       q    Type
REMARK                         _______ _______ _______ _____ _____    ______ ____
ROOT
ATOM      1  N   UNL     1       0.300  10.262  19.912  0.00  0.00    +0.000 N 
ATOM      2  C   UNL     1       0.738  11.356  20.653  0.00  0.00    +0.000 A 
ATOM      3  C   UNL     1      -0.177  12.414  20.552  0.00  0.00    +0.000 A 
ATOM      4  C   UNL     1      -1.127  11.914  19.716  0.00  0.00    +0.000 A 
ATOM      5  C   UNL     1      -2.296  12.515  19.405  0.00  0.00    +0.000 A 
ATOM      6  C   UNL     1      -3.230  11.861  18.590  0.00  0.00    +0.000 A 
ATOM      7  C   UNL     1      -2.923  10.586  18.092  0.00  0.00    +0.000 A 
ATOM      8  C   UNL     1      -1.719   9.953  18.469  0.00  0.00    +0.000 A 
ATOM      9  C   UNL     1      -0.834  10.660  19.307  0.00  0.00    +0.000 A 
ATOM     10  C   UNL     1      -2.682  13.633  20.255  0.00  0.00    +0.000 C 
ATOM     11  C   UNL     1      -3.107  12.982  21.569  0.00  0.00    +0.000 C 
ATOM     12  C   UNL     1      -4.220  13.835  22.031  0.00  0.00    +0.000 C 
ATOM     13  C   UNL     1      -3.434  15.122  22.559  0.00  0.00    +0.000 C 
ATOM     14  N   UNL     1      -2.307  15.616  21.609  0.00  0.00    +0.000 NA
ATOM     15  C   UNL     1      -2.770  16.800  20.845  0.00  0.00    +0.000 C 
ATOM     16  C   UNL     1      -1.624  14.607  20.677  0.00  0.00    +0.000 C 
ATOM     17  C   UNL     1      -0.318  13.824  21.220  0.00  0.00    +0.000 C 
ENDROOT
BRANCH  12  18
ATOM     18  C   UNL     1      -5.178  12.751  22.541  0.00  0.00    +0.000 C 
ATOM     19  O   UNL     1      -5.050  12.232  23.639  0.00  0.00    +0.000 OA
BRANCH  18  20
ATOM     20  O   UNL     1      -5.834  12.101  21.499  0.00  0.00    +0.000 OA
BRANCH  20  21
ATOM     21  C   UNL     1      -7.179  12.041  21.114  0.00  0.00    +0.000 C 
ATOM     22  C   UNL     1      -7.549  13.184  20.169  0.00  0.00    +0.000 C 
ATOM     23  C   UNL     1      -6.701  13.100  18.887  0.00  0.00    +0.000 C 
ATOM     24  C   UNL     1      -6.916  11.758  18.164  0.00  0.00    +0.000 C 
ATOM     25  C   UNL     1      -6.620  10.579  19.098  0.00  0.00    +0.000 C 
ATOM     26  C   UNL     1      -7.470  10.700  20.370  0.00  0.00    +0.000 C 
ENDBRANCH  20  21
ENDBRANCH  18  20
ENDBRANCH  12  18
BRANCH   1  27
ATOM     27  C   UNL     1       0.835   8.885  19.907  0.00  0.00    +0.000 C 
BRANCH  27  29
ATOM     28  C   UNL     1       1.924   9.080  17.597  0.00  0.00    +0.000 C 
ATOM     29  C   UNL     1       2.141   8.737  19.064  0.00  0.00    +0.000 C 
ENDBRANCH  27  29
BRANCH  27  30
ATOM     30  C   UNL     1       0.937   8.335  21.358  0.00  0.00    +0.000 C 
ATOM     31  C   UNL     1      -0.338   8.448  22.187  0.00  0.00    +0.000 C 
ENDBRANCH  27  30
ENDBRANCH   1  27
TORSDOF 6
ENDMDL
MODEL 7
REMARK VINA RESULT:      -7.2      2.233      7.601
REMARK  Name = 
REMARK  9 active torsions:
REMARK  status: ('A' for Active; 'I' for Inactive)
REMARK    1  A    between atoms: C_1  and  C_2
REMARK    2  A    between atoms: C_2  and  C_3
REMARK    3  A    between atoms: C_3  and  C_4
REMARK    4  A    between atoms: C_3  and  N_6
REMARK    5  A    between atoms: C_4  and  C_5
REMARK    6  A    between atoms: C_17  and  C_18
REMARK    7  A    between atoms: C_18  and  O_20
REMARK    8  A    between atoms: O_20  and  C_21
REMARK    9  A    between atoms: N_28  and  C_29
REMARK                            x       y       z     vdW  Elec       q    Type
REMARK                         _______ _______ _______ _____ _____    ______ ____
ROOT
ATOM      1  N   UNL     1       5.897   3.813  15.469  0.00  0.00    +0.000 N 
ATOM      2  C   UNL     1       4.810   3.022  15.834  0.00  0.00    +0.000 A 
ATOM      3  C   UNL     1       4.427   3.296  17.154  0.00  0.00    +0.000 A 
ATOM      4  C   UNL     1       5.334   4.233  17.545  0.00  0.00    +0.000 A 
ATOM      5  C   UNL     1       5.309   4.914  18.712  0.00  0.00    +0.000 A 
ATOM      6  C   UNL     1       6.257   5.913  18.965  0.00  0.00    +0.000 A 
ATOM      7  C   UNL     1       7.239   6.180  17.998  0.00  0.00    +0.000 A 
ATOM      8  C   UNL     1       7.218   5.494  16.764  0.00  0.00    +0.000 A 
ATOM      9  C   UNL     1       6.224   4.516  16.569  0.00  0.00    +0.000 A 
ATOM     10  C   UNL     1       4.063   4.842  19.463  0.00  0.00    +0.000 C 
ATOM     11  C   UNL     1       3.092   5.716  18.672  0.00  0.00    +0.000 C 
ATOM     12  C   UNL     1       2.262   6.343  19.720  0.00  0.00    +0.000 C 
ATOM     13  C   UNL     1       1.317   5.128  20.145  0.00  0.00    +0.000 C 
ATOM     14  N   UNL     1       2.059   3.775  20.328  0.00  0.00    +0.000 NA
ATOM     15  C   UNL     1       2.260   3.498  21.772  0.00  0.00    +0.000 C 
ATOM     16  C   UNL     1       3.354   3.524  19.545  0.00  0.00    +0.000 C 
ATOM     17  C   UNL     1       3.247   2.846  18.082  0.00  0.00    +0.000 C 
ENDROOT
BRANCH  12  18
ATOM     18  C   UNL     1       2.168   7.766  19.155  0.00  0.00    +0.000 C 
ATOM     19  O   UNL     1       2.930   8.176  18.293  0.00  0.00    +0.000 OA
BRANCH  18  20
ATOM     20  O   UNL     1       1.520   8.634  20.028  0.00  0.00    +0.000 OA
BRANCH  20  21
ATOM     21  C   UNL     1       0.231   9.182  20.041  0.00  0.00    +0.000 C 
ATOM     22  C   UNL     1      -0.012  10.031  21.288  0.00  0.00    +0.000 C 
ATOM     23  C   UNL     1       0.984  11.204  21.326  0.00  0.00    +0.000 C 
ATOM     24  C   UNL     1       0.847  12.092  20.076  0.00  0.00    +0.000 C 
ATOM     25  C   UNL     1       1.017  11.267  18.796  0.00  0.00    +0.000 C 
ATOM     26  C   UNL     1       0.021  10.099  18.795  0.00  0.00    +0.000 C 
ENDBRANCH  20  21
ENDBRANCH  18  20
ENDBRANCH  12  18
BRANCH   1  27
ATOM     27  C   UNL     1       6.480   4.004  14.125  0.00  0.00    +0.000 C 
BRANCH  27  29
ATOM     28  C   UNL     1       5.738   2.817  11.980  0.00  0.00    +0.000 C 
ATOM     29  C   UNL     1       5.422   3.920  12.980  0.00  0.00    +0.000 C 
ENDBRANCH  27  29
BRANCH  27  30
ATOM     30  C   UNL     1       7.368   5.279  14.093  0.00  0.00    +0.000 C 
ATOM     31  C   UNL     1       8.040   5.571  12.756  0.00  0.00    +0.000 C 
ENDBRANCH  27  30
ENDBRANCH   1  27
TORSDOF 6
ENDMDL
MODEL 8
REMARK VINA RESULT:      -7.2      5.963     11.680
REMARK  Name = 
REMARK  9 active torsions:
REMARK  status: ('A' for Active; 'I' for Inactive)
REMARK    1  A    between atoms: C_1  and  C_2
REMARK    2  A    between atoms: C_2  and  C_3
REMARK    3  A    between atoms: C_3  and  C_4
REMARK    4  A    between atoms: C_3  and  N_6
REMARK    5  A    between atoms: C_4  and  C_5
REMARK    6  A    between atoms: C_17  and  C_18
REMARK    7  A    between atoms: C_18  and  O_20
REMARK    8  A    between atoms: O_20  and  C_21
REMARK    9  A    between atoms: N_28  and  C_29
REMARK                            x       y       z     vdW  Elec       q    Type
REMARK                         _______ _______ _______ _____ _____    ______ ____
ROOT
ATOM      1  N   UNL     1      -0.114  11.348  20.113  0.00  0.00    +0.000 N 
ATOM      2  C   UNL     1       0.408  12.251  21.035  0.00  0.00    +0.000 A 
ATOM      3  C   UNL     1      -0.545  13.227  21.359  0.00  0.00    +0.000 A 
ATOM      4  C   UNL     1      -1.608  12.882  20.580  0.00  0.00    +0.000 A 
ATOM      5  C   UNL     1      -2.833  13.451  20.625  0.00  0.00    +0.000 A 
ATOM      6  C   UNL     1      -3.870  12.953  19.825  0.00  0.00    +0.000 A 
ATOM      7  C   UNL     1      -3.610  11.871  18.969  0.00  0.00    +0.000 A 
ATOM      8  C   UNL     1      -2.339  11.258  18.974  0.00  0.00    +0.000 A 
ATOM      9  C   UNL     1      -1.348  11.797  19.818  0.00  0.00    +0.000 A 
ATOM     10  C   UNL     1      -3.104  14.286  21.786  0.00  0.00    +0.000 C 
ATOM     11  C   UNL     1      -3.276  13.295  22.935  0.00  0.00    +0.000 C 
ATOM     12  C   UNL     1      -4.320  13.917  23.773  0.00  0.00    +0.000 C 
ATOM     13  C   UNL     1      -3.500  15.086  24.487  0.00  0.00    +0.000 C 
ATOM     14  N   UNL     1      -2.570  15.887  23.534  0.00  0.00    +0.000 NA
ATOM     15  C   UNL     1      -3.196  17.187  23.188  0.00  0.00    +0.000 C 
ATOM     16  C   UNL     1      -2.022  15.200  22.276  0.00  0.00    +0.000 C 
ATOM     17  C   UNL     1      -0.618  14.409  22.384  0.00  0.00    +0.000 C 
ENDROOT
BRANCH  12  18
ATOM     18  C   UNL     1      -5.140  12.669  24.126  0.00  0.00    +0.000 C 
ATOM     19  O   UNL     1      -4.771  11.864  24.966  0.00  0.00    +0.000 OA
BRANCH  18  20
ATOM     20  O   UNL     1      -6.009  12.306  23.100  0.00  0.00    +0.000 OA
BRANCH  20  21
ATOM     21  C   UNL     1      -7.388  12.474  22.920  0.00  0.00    +0.000 C 
ATOM     22  C   UNL     1      -7.731  13.889  22.458  0.00  0.00    +0.000 C 
ATOM     23  C   UNL     1      -7.053  14.179  21.107  0.00  0.00    +0.000 C 
ATOM     24  C   UNL     1      -7.504  13.174  20.031  0.00  0.00    +0.000 C 
ATOM     25  C   UNL     1      -7.240  11.733  20.481  0.00  0.00    +0.000 C 
ATOM     26  C   UNL     1      -7.916  11.482  21.836  0.00  0.00    +0.000 C 
ENDBRANCH  20  21
ENDBRANCH  18  20
ENDBRANCH  12  18
BRANCH   1  27
ATOM     27  C   UNL     1       0.459  10.061  19.665  0.00  0.00    +0.000 C 
BRANCH  27  29
ATOM     28  C   UNL     1       1.812   8.855  17.856  0.00  0.00    +0.000 C 
ATOM     29  C   UNL     1       1.382  10.203  18.414  0.00  0.00    +0.000 C 
ENDBRANCH  27  29
BRANCH  27  30
ATOM     30  C   UNL     1       1.102   9.306  20.862  0.00  0.00    +0.000 C 
ATOM     31  C   UNL     1       0.232   8.224  21.493  0.00  0.00    +0.000 C 
ENDBRANCH  27  30
ENDBRANCH   1  27
TORSDOF 6
ENDMDL
MODEL 9
REMARK VINA RESULT:      -7.1      2.175      7.686
REMARK  Name = 
REMARK  9 active torsions:
REMARK  status: ('A' for Active; 'I' for Inactive)
REMARK    1  A    between atoms: C_1  and  C_2
REMARK    2  A    between atoms: C_2  and  C_3
REMARK    3  A    between atoms: C_3  and  C_4
REMARK    4  A    between atoms: C_3  and  N_6
REMARK    5  A    between atoms: C_4  and  C_5
REMARK    6  A    between atoms: C_17  and  C_18
REMARK    7  A    between atoms: C_18  and  O_20
REMARK    8  A    between atoms: O_20  and  C_21
REMARK    9  A    between atoms: N_28  and  C_29
REMARK                            x       y       z     vdW  Elec       q    Type
REMARK                         _______ _______ _______ _____ _____    ______ ____
ROOT
ATOM      1  N   UNL     1       5.889   3.781  15.493  0.00  0.00    +0.000 N 
ATOM      2  C   UNL     1       4.816   2.962  15.835  0.00  0.00    +0.000 A 
ATOM      3  C   UNL     1       4.431   3.190  17.164  0.00  0.00    +0.000 A 
ATOM      4  C   UNL     1       5.324   4.129  17.581  0.00  0.00    +0.000 A 
ATOM      5  C   UNL     1       5.291   4.774  18.768  0.00  0.00    +0.000 A 
ATOM      6  C   UNL     1       6.224   5.780  19.050  0.00  0.00    +0.000 A 
ATOM      7  C   UNL     1       7.199   6.092  18.090  0.00  0.00    +0.000 A 
ATOM      8  C   UNL     1       7.186   5.443  16.836  0.00  0.00    +0.000 A 
ATOM      9  C   UNL     1       6.207   4.455  16.612  0.00  0.00    +0.000 A 
ATOM     10  C   UNL     1       4.048   4.659  19.519  0.00  0.00    +0.000 C 
ATOM     11  C   UNL     1       3.061   5.541  18.756  0.00  0.00    +0.000 C 
ATOM     12  C   UNL     1       2.224   6.122  19.825  0.00  0.00    +0.000 C 
ATOM     13  C   UNL     1       1.299   4.880  20.213  0.00  0.00    +0.000 C 
ATOM     14  N   UNL     1       2.063   3.534  20.355  0.00  0.00    +0.000 NA
ATOM     15  C   UNL     1       2.271   3.217  21.789  0.00  0.00    +0.000 C 
ATOM     16  C   UNL     1       3.360   3.328  19.562  0.00  0.00    +0.000 C 
ATOM     17  C   UNL     1       3.261   2.693  18.079  0.00  0.00    +0.000 C 
ENDROOT
BRANCH  12  18
ATOM     18  C   UNL     1       2.105   7.560  19.302  0.00  0.00    +0.000 C 
ATOM     19  O   UNL     1       2.905   8.032  18.509  0.00  0.00    +0.000 OA
BRANCH  18  20
ATOM     20  O   UNL     1       1.363   8.369  20.159  0.00  0.00    +0.000 OA
BRANCH  20  21
ATOM     21  C   UNL     1       1.696   9.484  20.937  0.00  0.00    +0.000 C 
ATOM     22  C   UNL     1       1.024  10.756  20.422  0.00  0.00    +0.000 C 
ATOM     23  C   UNL     1      -0.506  10.600  20.475  0.00  0.00    +0.000 C 
ATOM     24  C   UNL     1      -0.988  10.321  21.910  0.00  0.00    +0.000 C 
ATOM     25  C   UNL     1      -0.288   9.088  22.494  0.00  0.00    +0.000 C 
ATOM     26  C   UNL     1       1.234   9.270  22.413  0.00  0.00    +0.000 C 
ENDBRANCH  20  21
ENDBRANCH  18  20
ENDBRANCH  12  18
BRANCH   1  27
ATOM     27  C   UNL     1       6.467   4.022  14.154  0.00  0.00    +0.000 C 
BRANCH  27  29
ATOM     28  C   UNL     1       5.791   2.852  11.978  0.00  0.00    +0.000 C 
ATOM     29  C   UNL     1       5.416   3.911  13.004  0.00  0.00    +0.000 C 
ENDBRANCH  27  29
BRANCH  27  30
ATOM     30  C   UNL     1       7.297   5.336  14.147  0.00  0.00    +0.000 C 
ATOM     31  C   UNL     1       8.170   5.549  12.915  0.00  0.00    +0.000 C 
ENDBRANCH  27  30
ENDBRANCH   1  27
TORSDOF 6
ENDMDL
