MODEL 1
REMARK VINA RESULT:      -8.2      0.000      0.000
REMARK  Name = 
REMARK  6 active torsions:
REMARK  status: ('A' for Active; 'I' for Inactive)
REMARK    1  A    between atoms: C_1  and  C_2
REMARK    2  A    between atoms: C_2  and  C_3
REMARK    3  A    between atoms: C_5  and  N_6
REMARK    4  A    between atoms: C_7  and  C_9
REMARK    5  A    between atoms: C_20  and  C_21
REMARK    6  A    between atoms: C_20  and  C_22
REMARK                            x       y       z     vdW  Elec       q    Type
REMARK                         _______ _______ _______ _____ _____    ______ ____
ROOT
ATOM      1  N   UNL     1       2.782   6.727  18.747  0.00  0.00    +0.000 N 
ATOM      2  C   UNL     1       2.657   7.848  17.956  0.00  0.00    +0.000 C 
ATOM      3  O   UNL     1       3.155   8.032  16.855  0.00  0.00    +0.000 OA
ATOM      4  H   UNL     1       2.349   6.794  19.668  0.00  0.00    +0.000 HD
ENDROOT
BRANCH   1   9
ATOM      5  C   UNL     1       4.228   2.296  20.377  0.00  0.00    +0.000 C 
ATOM      6  C   UNL     1       4.222   3.205  19.124  0.00  0.00    +0.000 C 
ATOM      7  C   UNL     1       3.563   2.386  18.000  0.00  0.00    +0.000 C 
ATOM      8  C   UNL     1       3.408   4.469  19.451  0.00  0.00    +0.000 C 
ATOM      9  C   UNL     1       3.567   5.554  18.386  0.00  0.00    +0.000 C 
ATOM     10  C   UNL     1       5.051   5.898  18.248  0.00  0.00    +0.000 C 
ATOM     11  C   UNL     1       5.913   4.657  17.920  0.00  0.00    +0.000 C 
ATOM     12  C   UNL     1       7.402   5.019  18.133  0.00  0.00    +0.000 C 
ATOM     13  C   UNL     1       5.778   4.262  16.438  0.00  0.00    +0.000 C 
ATOM     14  N   UNL     1       5.630   3.522  18.822  0.00  0.00    +0.000 NA
ATOM     15  H   UNL     1       6.118   3.688  19.705  0.00  0.00    +0.000 HD
ENDBRANCH   1   9
BRANCH   2  16
ATOM     16  C   UNL     1       1.771   8.934  18.594  0.00  0.00    +0.000 C 
ATOM     17  O   UNL     1       1.474   9.891  17.885  0.00  0.00    +0.000 OA
ATOM     18  N   UNL     1       1.436   8.664  19.904  0.00  0.00    +0.000 N 
ATOM     19  C   UNL     1       0.632   9.496  20.688  0.00  0.00    +0.000 A 
ATOM     20  C   UNL     1       0.316   9.102  21.987  0.00  0.00    +0.000 A 
ATOM     21  C   UNL     1      -0.514   9.920  22.762  0.00  0.00    +0.000 A 
ATOM     22  C   UNL     1      -0.999  11.105  22.221  0.00  0.00    +0.000 A 
ATOM     23  I   UNL     1      -2.258  12.343  23.294  0.00  0.00    +0.000 I 
ATOM     24  C   UNL     1      -0.623  11.428  20.932  0.00  0.00    +0.000 A 
ATOM     25  N   UNL     1       0.176  10.648  20.171  0.00  0.00    +0.000 NA
ATOM     26  H   UNL     1       1.790   7.797  20.289  0.00  0.00    +0.000 HD
ENDBRANCH   2  16
TORSDOF 2
ENDMDL
MODEL 2
REMARK VINA RESULT:      -7.8      1.357      1.700
REMARK  Name = 
REMARK  6 active torsions:
REMARK  status: ('A' for Active; 'I' for Inactive)
REMARK    1  A    between atoms: C_1  and  C_2
REMARK    2  A    between atoms: C_2  and  C_3
REMARK    3  A    between atoms: C_5  and  N_6
REMARK    4  A    between atoms: C_7  and  C_9
REMARK    5  A    between atoms: C_20  and  C_21
REMARK    6  A    between atoms: C_20  and  C_22
REMARK                            x       y       z     vdW  Elec       q    Type
REMARK                         _______ _______ _______ _____ _____    ______ ____
ROOT
ATOM      1  N   UNL     1       2.626   6.480  19.984  0.00  0.00    +0.000 N 
ATOM      2  C   UNL     1       2.123   7.655  19.469  0.00  0.00    +0.000 C 
ATOM      3  O   UNL     1       2.230   8.061  18.321  0.00  0.00    +0.000 OA
ATOM      4  H   UNL     1       2.494   6.353  20.987  0.00  0.00    +0.000 HD
ENDROOT
BRANCH   1   9
ATOM      5  C   UNL     1       4.423   1.882  20.093  0.00  0.00    +0.000 C 
ATOM      6  C   UNL     1       4.229   3.106  19.166  0.00  0.00    +0.000 C 
ATOM      7  C   UNL     1       3.467   2.596  17.930  0.00  0.00    +0.000 C 
ATOM      8  C   UNL     1       3.417   4.165  19.931  0.00  0.00    +0.000 C 
ATOM      9  C   UNL     1       3.403   5.516  19.217  0.00  0.00    +0.000 C 
ATOM     10  C   UNL     1       4.845   5.989  19.025  0.00  0.00    +0.000 C 
ATOM     11  C   UNL     1       5.705   4.956  18.260  0.00  0.00    +0.000 C 
ATOM     12  C   UNL     1       7.195   5.346  18.408  0.00  0.00    +0.000 C 
ATOM     13  C   UNL     1       5.403   4.989  16.751  0.00  0.00    +0.000 C 
ATOM     14  N   UNL     1       5.577   3.594  18.819  0.00  0.00    +0.000 NA
ATOM     15  H   UNL     1       6.163   3.536  19.654  0.00  0.00    +0.000 HD
ENDBRANCH   1   9
BRANCH   2  16
ATOM     16  C   UNL     1       1.347   8.481  20.512  0.00  0.00    +0.000 C 
ATOM     17  O   UNL     1       1.527   8.189  21.691  0.00  0.00    +0.000 OA
ATOM     18  N   UNL     1       0.542   9.449  19.952  0.00  0.00    +0.000 N 
ATOM     19  C   UNL     1      -0.249  10.330  20.696  0.00  0.00    +0.000 A 
ATOM     20  C   UNL     1      -0.988  11.303  20.027  0.00  0.00    +0.000 A 
ATOM     21  C   UNL     1      -1.756  12.204  20.774  0.00  0.00    +0.000 A 
ATOM     22  C   UNL     1      -1.766  12.104  22.160  0.00  0.00    +0.000 A 
ATOM     23  I   UNL     1      -2.847  13.423  23.327  0.00  0.00    +0.000 I 
ATOM     24  C   UNL     1      -1.017  11.099  22.741  0.00  0.00    +0.000 A 
ATOM     25  N   UNL     1      -0.270  10.223  22.034  0.00  0.00    +0.000 NA
ATOM     26  H   UNL     1       0.558   9.518  18.941  0.00  0.00    +0.000 HD
ENDBRANCH   2  16
TORSDOF 2
ENDMDL
MODEL 3
REMARK VINA RESULT:      -7.8      1.490      2.716
REMARK  Name = 
REMARK  6 active torsions:
REMARK  status: ('A' for Active; 'I' for Inactive)
REMARK    1  A    between atoms: C_1  and  C_2
REMARK    2  A    between atoms: C_2  and  C_3
REMARK    3  A    between atoms: C_5  and  N_6
REMARK    4  A    between atoms: C_7  and  C_9
REMARK    5  A    between atoms: C_20  and  C_21
REMARK    6  A    between atoms: C_20  and  C_22
REMARK                            x       y       z     vdW  Elec       q    Type
REMARK                         _______ _______ _______ _____ _____    ______ ____
ROOT
ATOM      1  N   UNL     1       2.927   6.910  18.988  0.00  0.00    +0.000 N 
ATOM      2  C   UNL     1       2.071   7.018  20.063  0.00  0.00    +0.000 C 
ATOM      3  O   UNL     1       1.860   6.176  20.924  0.00  0.00    +0.000 OA
ATOM      4  H   UNL     1       2.909   7.696  18.339  0.00  0.00    +0.000 HD
ENDROOT
BRANCH   1   9
ATOM      5  C   UNL     1       5.880   4.896  15.583  0.00  0.00    +0.000 C 
ATOM      6  C   UNL     1       5.368   4.713  17.031  0.00  0.00    +0.000 C 
ATOM      7  C   UNL     1       6.619   4.621  17.923  0.00  0.00    +0.000 C 
ATOM      8  C   UNL     1       4.506   5.934  17.395  0.00  0.00    +0.000 C 
ATOM      9  C   UNL     1       3.728   5.730  18.695  0.00  0.00    +0.000 C 
ATOM     10  C   UNL     1       2.852   4.483  18.556  0.00  0.00    +0.000 C 
ATOM     11  C   UNL     1       3.674   3.227  18.189  0.00  0.00    +0.000 C 
ATOM     12  C   UNL     1       2.699   2.111  17.740  0.00  0.00    +0.000 C 
ATOM     13  C   UNL     1       4.420   2.671  19.417  0.00  0.00    +0.000 C 
ATOM     14  N   UNL     1       4.585   3.463  17.051  0.00  0.00    +0.000 NA
ATOM     15  H   UNL     1       4.036   3.416  16.189  0.00  0.00    +0.000 HD
ENDBRANCH   1   9
BRANCH   2  16
ATOM     16  C   UNL     1       1.350   8.378  20.120  0.00  0.00    +0.000 C 
ATOM     17  O   UNL     1       1.393   9.067  19.106  0.00  0.00    +0.000 OA
ATOM     18  N   UNL     1       0.750   8.627  21.336  0.00  0.00    +0.000 N 
ATOM     19  C   UNL     1       0.028   9.788  21.624  0.00  0.00    +0.000 A 
ATOM     20  C   UNL     1      -0.579   9.915  22.872  0.00  0.00    +0.000 A 
ATOM     21  C   UNL     1      -1.327  11.065  23.149  0.00  0.00    +0.000 A 
ATOM     22  C   UNL     1      -1.444  12.052  22.177  0.00  0.00    +0.000 A 
ATOM     23  I   UNL     1      -2.562  13.758  22.504  0.00  0.00    +0.000 I 
ATOM     24  C   UNL     1      -0.795  11.854  20.974  0.00  0.00    +0.000 A 
ATOM     25  N   UNL     1      -0.071  10.749  20.691  0.00  0.00    +0.000 NA
ATOM     26  H   UNL     1       0.836   7.900  22.037  0.00  0.00    +0.000 HD
ENDBRANCH   2  16
TORSDOF 2
ENDMDL
MODEL 4
REMARK VINA RESULT:      -7.7      1.260      1.300
REMARK  Name = 
REMARK  6 active torsions:
REMARK  status: ('A' for Active; 'I' for Inactive)
REMARK    1  A    between atoms: C_1  and  C_2
REMARK    2  A    between atoms: C_2  and  C_3
REMARK    3  A    between atoms: C_5  and  N_6
REMARK    4  A    between atoms: C_7  and  C_9
REMARK    5  A    between atoms: C_20  and  C_21
REMARK    6  A    between atoms: C_20  and  C_22
REMARK                            x       y       z     vdW  Elec       q    Type
REMARK                         _______ _______ _______ _____ _____    ______ ____
ROOT
ATOM      1  N   UNL     1       2.936   6.830  18.682  0.00  0.00    +0.000 N 
ATOM      2  C   UNL     1       2.149   6.907  19.811  0.00  0.00    +0.000 C 
ATOM      3  O   UNL     1       1.930   6.015  20.618  0.00  0.00    +0.000 OA
ATOM      4  H   UNL     1       2.935   7.663  18.095  0.00  0.00    +0.000 HD
ENDROOT
BRANCH   1   9
ATOM      5  C   UNL     1       4.298   2.321  20.164  0.00  0.00    +0.000 C 
ATOM      6  C   UNL     1       4.242   3.244  18.923  0.00  0.00    +0.000 C 
ATOM      7  C   UNL     1       3.467   2.468  17.843  0.00  0.00    +0.000 C 
ATOM      8  C   UNL     1       3.511   4.538  19.320  0.00  0.00    +0.000 C 
ATOM      9  C   UNL     1       3.640   5.628  18.255  0.00  0.00    +0.000 C 
ATOM     10  C   UNL     1       5.124   5.908  18.012  0.00  0.00    +0.000 C 
ATOM     11  C   UNL     1       5.904   4.635  17.611  0.00  0.00    +0.000 C 
ATOM     12  C   UNL     1       7.419   4.929  17.719  0.00  0.00    +0.000 C 
ATOM     13  C   UNL     1       5.645   4.264  16.140  0.00  0.00    +0.000 C 
ATOM     14  N   UNL     1       5.637   3.503  18.522  0.00  0.00    +0.000 NA
ATOM     15  H   UNL     1       6.194   3.636  19.368  0.00  0.00    +0.000 HD
ENDBRANCH   1   9
BRANCH   2  16
ATOM     16  C   UNL     1       1.525   8.301  20.010  0.00  0.00    +0.000 C 
ATOM     17  O   UNL     1       1.682   9.110  19.102  0.00  0.00    +0.000 OA
ATOM     18  N   UNL     1       0.866   8.436  21.214  0.00  0.00    +0.000 N 
ATOM     19  C   UNL     1       0.211   9.604  21.615  0.00  0.00    +0.000 A 
ATOM     20  C   UNL     1      -0.465   9.614  22.833  0.00  0.00    +0.000 A 
ATOM     21  C   UNL     1      -1.147  10.774  23.221  0.00  0.00    +0.000 A 
ATOM     22  C   UNL     1      -1.129  11.886  22.386  0.00  0.00    +0.000 A 
ATOM     23  I   UNL     1      -2.143  13.617  22.877  0.00  0.00    +0.000 I 
ATOM     24  C   UNL     1      -0.420  11.794  21.204  0.00  0.00    +0.000 A 
ATOM     25  N   UNL     1       0.241  10.682  20.816  0.00  0.00    +0.000 NA
ATOM     26  H   UNL     1       0.855   7.620  21.815  0.00  0.00    +0.000 HD
ENDBRANCH   2  16
TORSDOF 2
ENDMDL
MODEL 5
REMARK VINA RESULT:      -7.7      1.579      1.832
REMARK  Name = 
REMARK  6 active torsions:
REMARK  status: ('A' for Active; 'I' for Inactive)
REMARK    1  A    between atoms: C_1  and  C_2
REMARK    2  A    between atoms: C_2  and  C_3
REMARK    3  A    between atoms: C_5  and  N_6
REMARK    4  A    between atoms: C_7  and  C_9
REMARK    5  A    between atoms: C_20  and  C_21
REMARK    6  A    between atoms: C_20  and  C_22
REMARK                            x       y       z     vdW  Elec       q    Type
REMARK                         _______ _______ _______ _____ _____    ______ ____
ROOT
ATOM      1  N   UNL     1       1.834   7.435  19.633  0.00  0.00    +0.000 N 
ATOM      2  C   UNL     1       1.833   8.465  18.717  0.00  0.00    +0.000 C 
ATOM      3  O   UNL     1       2.135   8.397  17.534  0.00  0.00    +0.000 OA
ATOM      4  H   UNL     1       1.619   7.707  20.592  0.00  0.00    +0.000 HD
ENDROOT
BRANCH   1   9
ATOM      5  C   UNL     1       2.063   2.880  21.526  0.00  0.00    +0.000 C 
ATOM      6  C   UNL     1       2.229   3.675  20.209  0.00  0.00    +0.000 C 
ATOM      7  C   UNL     1       1.285   3.018  19.186  0.00  0.00    +0.000 C 
ATOM      8  C   UNL     1       1.836   5.138  20.478  0.00  0.00    +0.000 C 
ATOM      9  C   UNL     1       2.223   6.065  19.325  0.00  0.00    +0.000 C 
ATOM     10  C   UNL     1       3.730   5.954  19.086  0.00  0.00    +0.000 C 
ATOM     11  C   UNL     1       4.175   4.500  18.812  0.00  0.00    +0.000 C 
ATOM     12  C   UNL     1       5.717   4.426  18.922  0.00  0.00    +0.000 C 
ATOM     13  C   UNL     1       3.829   4.073  17.374  0.00  0.00    +0.000 C 
ATOM     14  N   UNL     1       3.644   3.551  19.812  0.00  0.00    +0.000 NA
ATOM     15  H   UNL     1       4.219   3.621  20.654  0.00  0.00    +0.000 HD
ENDBRANCH   1   9
BRANCH   2  16
ATOM     16  C   UNL     1       1.381   9.805  19.324  0.00  0.00    +0.000 C 
ATOM     17  O   UNL     1       1.705  10.822  18.719  0.00  0.00    +0.000 OA
ATOM     18  N   UNL     1       0.662   9.660  20.492  0.00  0.00    +0.000 N 
ATOM     19  C   UNL     1       0.137  10.731  21.220  0.00  0.00    +0.000 A 
ATOM     20  C   UNL     1      -0.616  10.467  22.363  0.00  0.00    +0.000 A 
ATOM     21  C   UNL     1      -1.167  11.538  23.075  0.00  0.00    +0.000 A 
ATOM     22  C   UNL     1      -0.948  12.837  22.630  0.00  0.00    +0.000 A 
ATOM     23  I   UNL     1      -1.762  14.463  23.610  0.00  0.00    +0.000 I 
ATOM     24  C   UNL     1      -0.176  13.010  21.498  0.00  0.00    +0.000 A 
ATOM     25  N   UNL     1       0.362  11.986  20.799  0.00  0.00    +0.000 NA
ATOM     26  H   UNL     1       0.504   8.710  20.808  0.00  0.00    +0.000 HD
ENDBRANCH   2  16
TORSDOF 2
ENDMDL
MODEL 6
REMARK VINA RESULT:      -7.5      1.033      2.462
REMARK  Name = 
REMARK  6 active torsions:
REMARK  status: ('A' for Active; 'I' for Inactive)
REMARK    1  A    between atoms: C_1  and  C_2
REMARK    2  A    between atoms: C_2  and  C_3
REMARK    3  A    between atoms: C_5  and  N_6
REMARK    4  A    between atoms: C_7  and  C_9
REMARK    5  A    between atoms: C_20  and  C_21
REMARK    6  A    between atoms: C_20  and  C_22
REMARK                            x       y       z     vdW  Elec       q    Type
REMARK                         _______ _______ _______ _____ _____    ______ ____
ROOT
ATOM      1  N   UNL     1       2.357   7.256  19.137  0.00  0.00    +0.000 N 
ATOM      2  C   UNL     1       2.153   8.328  18.295  0.00  0.00    +0.000 C 
ATOM      3  O   UNL     1       2.638   8.494  17.185  0.00  0.00    +0.000 OA
ATOM      4  H   UNL     1       1.920   7.336  20.054  0.00  0.00    +0.000 HD
ENDROOT
BRANCH   1   9
ATOM      5  C   UNL     1       5.510   5.508  15.763  0.00  0.00    +0.000 C 
ATOM      6  C   UNL     1       4.963   5.249  17.187  0.00  0.00    +0.000 C 
ATOM      7  C   UNL     1       6.188   5.185  18.116  0.00  0.00    +0.000 C 
ATOM      8  C   UNL     1       4.031   6.414  17.564  0.00  0.00    +0.000 C 
ATOM      9  C   UNL     1       3.224   6.127  18.830  0.00  0.00    +0.000 C 
ATOM     10  C   UNL     1       2.415   4.845  18.621  0.00  0.00    +0.000 C 
ATOM     11  C   UNL     1       3.308   3.643  18.238  0.00  0.00    +0.000 C 
ATOM     12  C   UNL     1       2.404   2.499  17.719  0.00  0.00    +0.000 C 
ATOM     13  C   UNL     1       4.042   3.081  19.470  0.00  0.00    +0.000 C 
ATOM     14  N   UNL     1       4.241   3.963  17.139  0.00  0.00    +0.000 NA
ATOM     15  H   UNL     1       3.723   3.920  16.258  0.00  0.00    +0.000 HD
ENDBRANCH   1   9
BRANCH   2  16
ATOM     16  C   UNL     1       1.191   9.377  18.884  0.00  0.00    +0.000 C 
ATOM     17  O   UNL     1       0.765  10.229  18.110  0.00  0.00    +0.000 OA
ATOM     18  N   UNL     1       0.948   9.199  20.229  0.00  0.00    +0.000 N 
ATOM     19  C   UNL     1       0.101  10.018  20.981  0.00  0.00    +0.000 A 
ATOM     20  C   UNL     1      -0.111   9.717  22.325  0.00  0.00    +0.000 A 
ATOM     21  C   UNL     1      -0.983  10.519  23.070  0.00  0.00    +0.000 A 
ATOM     22  C   UNL     1      -1.612  11.595  22.455  0.00  0.00    +0.000 A 
ATOM     23  I   UNL     1      -2.939  12.798  23.484  0.00  0.00    +0.000 I 
ATOM     24  C   UNL     1      -1.332  11.832  21.124  0.00  0.00    +0.000 A 
ATOM     25  N   UNL     1      -0.495  11.066  20.390  0.00  0.00    +0.000 NA
ATOM     26  H   UNL     1       1.407   8.410  20.669  0.00  0.00    +0.000 HD
ENDBRANCH   2  16
TORSDOF 2
ENDMDL
MODEL 7
REMARK VINA RESULT:      -7.4      1.741      3.041
REMARK  Name = 
REMARK  6 active torsions:
REMARK  status: ('A' for Active; 'I' for Inactive)
REMARK    1  A    between atoms: C_1  and  C_2
REMARK    2  A    between atoms: C_2  and  C_3
REMARK    3  A    between atoms: C_5  and  N_6
REMARK    4  A    between atoms: C_7  and  C_9
REMARK    5  A    between atoms: C_20  and  C_21
REMARK    6  A    between atoms: C_20  and  C_22
REMARK                            x       y       z     vdW  Elec       q    Type
REMARK                         _______ _______ _______ _____ _____    ______ ____
ROOT
ATOM      1  N   UNL     1       2.252   7.780  18.939  0.00  0.00    +0.000 N 
ATOM      2  C   UNL     1       1.644   8.005  20.156  0.00  0.00    +0.000 C 
ATOM      3  O   UNL     1       1.741   7.321  21.164  0.00  0.00    +0.000 OA
ATOM      4  H   UNL     1       1.989   8.427  18.196  0.00  0.00    +0.000 HD
ENDROOT
BRANCH   1   9
ATOM      5  C   UNL     1       5.458   5.998  15.633  0.00  0.00    +0.000 C 
ATOM      6  C   UNL     1       4.885   5.751  17.049  0.00  0.00    +0.000 C 
ATOM      7  C   UNL     1       6.094   5.690  18.000  0.00  0.00    +0.000 C 
ATOM      8  C   UNL     1       3.950   6.921  17.401  0.00  0.00    +0.000 C 
ATOM      9  C   UNL     1       3.120   6.646  18.655  0.00  0.00    +0.000 C 
ATOM     10  C   UNL     1       2.311   5.365  18.441  0.00  0.00    +0.000 C 
ATOM     11  C   UNL     1       3.207   4.158  18.082  0.00  0.00    +0.000 C 
ATOM     12  C   UNL     1       2.308   3.014  17.555  0.00  0.00    +0.000 C 
ATOM     13  C   UNL     1       3.917   3.602  19.330  0.00  0.00    +0.000 C 
ATOM     14  N   UNL     1       4.160   4.467  16.997  0.00  0.00    +0.000 NA
ATOM     15  H   UNL     1       3.657   4.420  16.108  0.00  0.00    +0.000 HD
ENDBRANCH   1   9
BRANCH   2  16
ATOM     16  C   UNL     1       0.778   9.279  20.165  0.00  0.00    +0.000 C 
ATOM     17  O   UNL     1       0.660   9.873  19.098  0.00  0.00    +0.000 OA
ATOM     18  N   UNL     1       0.254   9.572  21.406  0.00  0.00    +0.000 N 
ATOM     19  C   UNL     1      -0.572  10.671  21.661  0.00  0.00    +0.000 A 
ATOM     20  C   UNL     1      -1.087  10.845  22.944  0.00  0.00    +0.000 A 
ATOM     21  C   UNL     1      -1.938  11.928  23.192  0.00  0.00    +0.000 A 
ATOM     22  C   UNL     1      -2.246  12.804  22.157  0.00  0.00    +0.000 A 
ATOM     23  I   UNL     1      -3.524  14.401  22.442  0.00  0.00    +0.000 I 
ATOM     24  C   UNL     1      -1.678  12.566  20.920  0.00  0.00    +0.000 A 
ATOM     25  N   UNL     1      -0.856  11.525  20.665  0.00  0.00    +0.000 NA
ATOM     26  H   UNL     1       0.479   8.927  22.154  0.00  0.00    +0.000 HD
ENDBRANCH   2  16
TORSDOF 2
ENDMDL
MODEL 8
REMARK VINA RESULT:      -7.3      1.984      2.659
REMARK  Name = 
REMARK  6 active torsions:
REMARK  status: ('A' for Active; 'I' for Inactive)
REMARK    1  A    between atoms: C_1  and  C_2
REMARK    2  A    between atoms: C_2  and  C_3
REMARK    3  A    between atoms: C_5  and  N_6
REMARK    4  A    between atoms: C_7  and  C_9
REMARK    5  A    between atoms: C_20  and  C_21
REMARK    6  A    between atoms: C_20  and  C_22
REMARK                            x       y       z     vdW  Elec       q    Type
REMARK                         _______ _______ _______ _____ _____    ______ ____
ROOT
ATOM      1  N   UNL     1       1.584   7.204  20.723  0.00  0.00    +0.000 N 
ATOM      2  C   UNL     1       1.444   8.415  20.079  0.00  0.00    +0.000 C 
ATOM      3  O   UNL     1       1.678   8.654  18.904  0.00  0.00    +0.000 OA
ATOM      4  H   UNL     1       1.407   7.224  21.727  0.00  0.00    +0.000 HD
ENDROOT
BRANCH   1   9
ATOM      5  C   UNL     1       2.460   2.411  21.523  0.00  0.00    +0.000 C 
ATOM      6  C   UNL     1       2.396   3.481  20.407  0.00  0.00    +0.000 C 
ATOM      7  C   UNL     1       1.406   2.949  19.355  0.00  0.00    +0.000 C 
ATOM      8  C   UNL     1       1.901   4.797  21.031  0.00  0.00    +0.000 C 
ATOM      9  C   UNL     1       2.062   5.986  20.083  0.00  0.00    +0.000 C 
ATOM     10  C   UNL     1       3.535   6.106  19.686  0.00  0.00    +0.000 C 
ATOM     11  C   UNL     1       4.080   4.806  19.055  0.00  0.00    +0.000 C 
ATOM     12  C   UNL     1       5.625   4.891  19.002  0.00  0.00    +0.000 C 
ATOM     13  C   UNL     1       3.611   4.655  17.596  0.00  0.00    +0.000 C 
ATOM     14  N   UNL     1       3.761   3.611  19.863  0.00  0.00    +0.000 NA
ATOM     15  H   UNL     1       4.421   3.567  20.642  0.00  0.00    +0.000 HD
ENDBRANCH   1   9
BRANCH   2  16
ATOM     16  C   UNL     1       0.924   9.529  21.006  0.00  0.00    +0.000 C 
ATOM     17  O   UNL     1       1.454   9.620  22.109  0.00  0.00    +0.000 OA
ATOM     18  N   UNL     1      -0.089  10.276  20.445  0.00  0.00    +0.000 N 
ATOM     19  C   UNL     1      -0.713  11.349  21.089  0.00  0.00    +0.000 A 
ATOM     20  C   UNL     1      -1.694  12.067  20.409  0.00  0.00    +0.000 A 
ATOM     21  C   UNL     1      -2.297  13.159  21.043  0.00  0.00    +0.000 A 
ATOM     22  C   UNL     1      -1.907  13.499  22.333  0.00  0.00    +0.000 A 
ATOM     23  I   UNL     1      -2.727  15.121  23.315  0.00  0.00    +0.000 I 
ATOM     24  C   UNL     1      -0.939  12.723  22.940  0.00  0.00    +0.000 A 
ATOM     25  N   UNL     1      -0.346  11.667  22.341  0.00  0.00    +0.000 NA
ATOM     26  H   UNL     1      -0.365  10.025  19.503  0.00  0.00    +0.000 HD
ENDBRANCH   2  16
TORSDOF 2
ENDMDL
MODEL 9
REMARK VINA RESULT:      -7.3      2.848      3.347
REMARK  Name = 
REMARK  6 active torsions:
REMARK  status: ('A' for Active; 'I' for Inactive)
REMARK    1  A    between atoms: C_1  and  C_2
REMARK    2  A    between atoms: C_2  and  C_3
REMARK    3  A    between atoms: C_5  and  N_6
REMARK    4  A    between atoms: C_7  and  C_9
REMARK    5  A    between atoms: C_20  and  C_21
REMARK    6  A    between atoms: C_20  and  C_22
REMARK                            x       y       z     vdW  Elec       q    Type
REMARK                         _______ _______ _______ _____ _____    ______ ____
ROOT
ATOM      1  N   UNL     1       1.877   7.695  19.385  0.00  0.00    +0.000 N 
ATOM      2  C   UNL     1       1.888   8.676  18.417  0.00  0.00    +0.000 C 
ATOM      3  O   UNL     1       2.207   8.549  17.244  0.00  0.00    +0.000 OA
ATOM      4  H   UNL     1       1.648   8.016  20.325  0.00  0.00    +0.000 HD
ENDROOT
BRANCH   1   9
ATOM      5  C   UNL     1       2.163   3.263  21.542  0.00  0.00    +0.000 C 
ATOM      6  C   UNL     1       2.307   3.979  20.178  0.00  0.00    +0.000 C 
ATOM      7  C   UNL     1       1.356   3.256  19.208  0.00  0.00    +0.000 C 
ATOM      8  C   UNL     1       1.906   5.453  20.364  0.00  0.00    +0.000 C 
ATOM      9  C   UNL     1       2.272   6.312  19.154  0.00  0.00    +0.000 C 
ATOM     10  C   UNL     1       3.777   6.198  18.903  0.00  0.00    +0.000 C 
ATOM     11  C   UNL     1       4.230   4.733  18.710  0.00  0.00    +0.000 C 
ATOM     12  C   UNL     1       5.773   4.675  18.804  0.00  0.00    +0.000 C 
ATOM     13  C   UNL     1       3.869   4.219  17.304  0.00  0.00    +0.000 C 
ATOM     14  N   UNL     1       3.718   3.842  19.772  0.00  0.00    +0.000 NA
ATOM     15  H   UNL     1       4.303   3.965  20.601  0.00  0.00    +0.000 HD
ENDBRANCH   1   9
BRANCH   2  16
ATOM     16  C   UNL     1       1.425  10.046  18.948  0.00  0.00    +0.000 C 
ATOM     17  O   UNL     1       0.574  10.035  19.832  0.00  0.00    +0.000 OA
ATOM     18  N   UNL     1       2.050  11.109  18.331  0.00  0.00    +0.000 N 
ATOM     19  C   UNL     1       1.804  12.447  18.651  0.00  0.00    +0.000 A 
ATOM     20  C   UNL     1       2.529  13.442  17.998  0.00  0.00    +0.000 A 
ATOM     21  C   UNL     1       2.304  14.781  18.339  0.00  0.00    +0.000 A 
ATOM     22  C   UNL     1       1.363  15.085  19.316  0.00  0.00    +0.000 A 
ATOM     23  I   UNL     1       1.007  17.036  19.897  0.00  0.00    +0.000 I 
ATOM     24  C   UNL     1       0.677  14.039  19.901  0.00  0.00    +0.000 A 
ATOM     25  N   UNL     1       0.885  12.742  19.583  0.00  0.00    +0.000 NA
ATOM     26  H   UNL     1       2.737  10.878  17.623  0.00  0.00    +0.000 HD
ENDBRANCH   2  16
TORSDOF 2
ENDMDL
