MODEL 1
REMARK VINA RESULT:      -8.0      0.000      0.000
REMARK  Name = 
REMARK  8 active torsions:
REMARK  status: ('A' for Active; 'I' for Inactive)
REMARK    1  A    between atoms: C_1  and  C_2
REMARK    2  A    between atoms: C_5  and  C_6
REMARK    3  A    between atoms: C_14  and  C_15
REMARK    4  A    between atoms: N_17  and  C_18
REMARK    5  A    between atoms: C_18  and  C_19
REMARK    6  A    between atoms: C_19  and  C_20
REMARK    7  A    between atoms: C_23  and  S_24
REMARK    8  A    between atoms: S_24  and  N_25
REMARK                            x       y       z     vdW  Elec       q    Type
REMARK                         _______ _______ _______ _____ _____    ______ ____
ROOT
ATOM      1  C   UNL     1       4.225   6.634  17.519  0.00  0.00    +0.000 C 
ATOM      2  O   UNL     1       4.430   6.810  16.317  0.00  0.00    +0.000 OA
ATOM      3  N   UNL     1       3.341   7.409  18.254  0.00  0.00    +0.000 N 
ATOM      4  H   UNL     1       3.456   7.390  19.259  0.00  0.00    +0.000 HD
ENDROOT
BRANCH   1  10
ATOM      5  C   UNL     1       7.463   6.503  18.113  0.00  0.00    +0.000 C 
ATOM      6  C   UNL     1       6.330   5.645  18.509  0.00  0.00    +0.000 A 
ATOM      7  O   UNL     1       6.647   4.590  19.294  0.00  0.00    +0.000 OA
ATOM      8  N   UNL     1       5.521   3.857  19.566  0.00  0.00    +0.000 NA
ATOM      9  C   UNL     1       4.484   4.492  18.993  0.00  0.00    +0.000 A 
ATOM     10  C   UNL     1       4.966   5.651  18.283  0.00  0.00    +0.000 A 
BRANCH   9  11
ATOM     11  C   UNL     1       3.126   3.925  19.105  0.00  0.00    +0.000 A 
ATOM     12  C   UNL     1       2.156   4.493  19.968  0.00  0.00    +0.000 A 
ATOM     13 CL   UNL     1       2.422   5.925  20.914  0.00  0.00    +0.000 Cl
ATOM     14  C   UNL     1       0.879   3.922  20.112  0.00  0.00    +0.000 A 
ATOM     15  C   UNL     1       0.511   2.813  19.361  0.00  0.00    +0.000 A 
ATOM     16  C   UNL     1       1.441   2.240  18.503  0.00  0.00    +0.000 A 
ATOM     17  C   UNL     1       2.745   2.753  18.414  0.00  0.00    +0.000 A 
ATOM     18 CL   UNL     1       3.854   1.756  17.525  0.00  0.00    +0.000 Cl
ENDBRANCH   9  11
ENDBRANCH   1  10
BRANCH   3  19
ATOM     19  C   UNL     1       2.779   8.615  17.663  0.00  0.00    +0.000 C 
BRANCH  19  20
ATOM     20  C   UNL     1       1.250   8.622  17.689  0.00  0.00    +0.000 C 
BRANCH  20  21
ATOM     21  C   UNL     1       0.694   9.509  18.779  0.00  0.00    +0.000 A 
ATOM     22  C   UNL     1      -0.065  10.641  18.449  0.00  0.00    +0.000 A 
ATOM     23  C   UNL     1      -0.589  11.463  19.450  0.00  0.00    +0.000 A 
ATOM     24  C   UNL     1      -0.357  11.149  20.791  0.00  0.00    +0.000 A 
ATOM     25  C   UNL     1       0.421  10.042  21.137  0.00  0.00    +0.000 A 
ATOM     26  C   UNL     1       0.943   9.224  20.131  0.00  0.00    +0.000 A 
BRANCH  24  27
ATOM     27  S   UNL     1      -1.021  12.191  22.056  0.00  0.00    +0.000 S 
ATOM     28  O   UNL     1      -0.056  13.213  22.392  0.00  0.00    +0.000 OA
ATOM     29  O   UNL     1      -2.398  12.497  21.749  0.00  0.00    +0.000 OA
BRANCH  27  30
ATOM     30  N   UNL     1      -1.063  11.148  23.372  0.00  0.00    +0.000 NA
ATOM     31  H   UNL     1      -1.083  11.684  24.239  0.00  0.00    +0.000 HD
ATOM     32  H   UNL     1      -1.840  10.495  23.272  0.00  0.00    +0.000 HD
ENDBRANCH  27  30
ENDBRANCH  24  27
ENDBRANCH  20  21
ENDBRANCH  19  20
ENDBRANCH   3  19
TORSDOF 7
ENDMDL
MODEL 2
REMARK VINA RESULT:      -8.0      0.674      1.200
REMARK  Name = 
REMARK  8 active torsions:
REMARK  status: ('A' for Active; 'I' for Inactive)
REMARK    1  A    between atoms: C_1  and  C_2
REMARK    2  A    between atoms: C_5  and  C_6
REMARK    3  A    between atoms: C_14  and  C_15
REMARK    4  A    between atoms: N_17  and  C_18
REMARK    5  A    between atoms: C_18  and  C_19
REMARK    6  A    between atoms: C_19  and  C_20
REMARK    7  A    between atoms: C_23  and  S_24
REMARK    8  A    between atoms: S_24  and  N_25
REMARK                            x       y       z     vdW  Elec       q    Type
REMARK                         _______ _______ _______ _____ _____    ______ ____
ROOT
ATOM      1  C   UNL     1       4.204   6.637  17.541  0.00  0.00    +0.000 C 
ATOM      2  O   UNL     1       4.429   6.840  16.347  0.00  0.00    +0.000 OA
ATOM      3  N   UNL     1       3.299   7.388  18.276  0.00  0.00    +0.000 N 
ATOM      4  H   UNL     1       3.395   7.350  19.281  0.00  0.00    +0.000 HD
ENDROOT
BRANCH   1  10
ATOM      5  C   UNL     1       7.442   6.493  18.132  0.00  0.00    +0.000 C 
ATOM      6  C   UNL     1       6.306   5.635  18.524  0.00  0.00    +0.000 A 
ATOM      7  O   UNL     1       6.620   4.575  19.303  0.00  0.00    +0.000 OA
ATOM      8  N   UNL     1       5.492   3.844  19.570  0.00  0.00    +0.000 NA
ATOM      9  C   UNL     1       4.457   4.486  19.001  0.00  0.00    +0.000 A 
ATOM     10  C   UNL     1       4.942   5.648  18.299  0.00  0.00    +0.000 A 
BRANCH   9  11
ATOM     11  C   UNL     1       3.097   3.922  19.111  0.00  0.00    +0.000 A 
ATOM     12  C   UNL     1       2.132   4.483  19.984  0.00  0.00    +0.000 A 
ATOM     13 CL   UNL     1       2.407   5.902  20.948  0.00  0.00    +0.000 Cl
ATOM     14  C   UNL     1       0.854   3.915  20.125  0.00  0.00    +0.000 A 
ATOM     15  C   UNL     1       0.479   2.818  19.362  0.00  0.00    +0.000 A 
ATOM     16  C   UNL     1       1.403   2.252  18.493  0.00  0.00    +0.000 A 
ATOM     17  C   UNL     1       2.709   2.761  18.406  0.00  0.00    +0.000 A 
ATOM     18 CL   UNL     1       3.811   1.771  17.501  0.00  0.00    +0.000 Cl
ENDBRANCH   9  11
ENDBRANCH   1  10
BRANCH   3  19
ATOM     19  C   UNL     1       2.734   8.600  17.698  0.00  0.00    +0.000 C 
BRANCH  19  20
ATOM     20  C   UNL     1       1.204   8.609  17.738  0.00  0.00    +0.000 C 
BRANCH  20  21
ATOM     21  C   UNL     1       0.660   9.515  18.818  0.00  0.00    +0.000 A 
ATOM     22  C   UNL     1       1.029   9.318  20.157  0.00  0.00    +0.000 A 
ATOM     23  C   UNL     1       0.536  10.155  21.161  0.00  0.00    +0.000 A 
ATOM     24  C   UNL     1      -0.328  11.199  20.825  0.00  0.00    +0.000 A 
ATOM     25  C   UNL     1      -0.729  11.391  19.502  0.00  0.00    +0.000 A 
ATOM     26  C   UNL     1      -0.233  10.551  18.501  0.00  0.00    +0.000 A 
BRANCH  24  27
ATOM     27  S   UNL     1      -0.951  12.257  22.098  0.00  0.00    +0.000 S 
ATOM     28  O   UNL     1      -2.086  12.996  21.595  0.00  0.00    +0.000 OA
ATOM     29  O   UNL     1      -0.991  11.530  23.346  0.00  0.00    +0.000 OA
BRANCH  27  30
ATOM     30  N   UNL     1       0.293  13.374  22.255  0.00  0.00    +0.000 NA
ATOM     31  H   UNL     1       0.023  14.104  22.914  0.00  0.00    +0.000 HD
ATOM     32  H   UNL     1       1.160  12.895  22.502  0.00  0.00    +0.000 HD
ENDBRANCH  27  30
ENDBRANCH  24  27
ENDBRANCH  20  21
ENDBRANCH  19  20
ENDBRANCH   3  19
TORSDOF 7
ENDMDL
MODEL 3
REMARK VINA RESULT:      -8.0      0.672      2.094
REMARK  Name = 
REMARK  8 active torsions:
REMARK  status: ('A' for Active; 'I' for Inactive)
REMARK    1  A    between atoms: C_1  and  C_2
REMARK    2  A    between atoms: C_5  and  C_6
REMARK    3  A    between atoms: C_14  and  C_15
REMARK    4  A    between atoms: N_17  and  C_18
REMARK    5  A    between atoms: C_18  and  C_19
REMARK    6  A    between atoms: C_19  and  C_20
REMARK    7  A    between atoms: C_23  and  S_24
REMARK    8  A    between atoms: S_24  and  N_25
REMARK                            x       y       z     vdW  Elec       q    Type
REMARK                         _______ _______ _______ _____ _____    ______ ____
ROOT
ATOM      1  C   UNL     1       4.252   6.623  17.534  0.00  0.00    +0.000 C 
ATOM      2  O   UNL     1       4.435   6.759  16.324  0.00  0.00    +0.000 OA
ATOM      3  N   UNL     1       3.385   7.425  18.261  0.00  0.00    +0.000 N 
ATOM      4  H   UNL     1       3.519   7.438  19.263  0.00  0.00    +0.000 HD
ENDROOT
BRANCH   1  10
ATOM      5  C   UNL     1       7.491   6.542  18.130  0.00  0.00    +0.000 C 
ATOM      6  C   UNL     1       6.369   5.677  18.541  0.00  0.00    +0.000 A 
ATOM      7  O   UNL     1       6.698   4.640  19.345  0.00  0.00    +0.000 OA
ATOM      8  N   UNL     1       5.582   3.899  19.630  0.00  0.00    +0.000 NA
ATOM      9  C   UNL     1       4.537   4.511  19.045  0.00  0.00    +0.000 A 
ATOM     10  C   UNL     1       5.005   5.663  18.316  0.00  0.00    +0.000 A 
BRANCH   9  11
ATOM     11  C   UNL     1       3.185   3.930  19.168  0.00  0.00    +0.000 A 
ATOM     12  C   UNL     1       2.773   2.842  18.359  0.00  0.00    +0.000 A 
ATOM     13 CL   UNL     1       3.802   2.042  17.212  0.00  0.00    +0.000 Cl
ATOM     14  C   UNL     1       1.468   2.322  18.441  0.00  0.00    +0.000 A 
ATOM     15  C   UNL     1       0.563   2.825  19.366  0.00  0.00    +0.000 A 
ATOM     16  C   UNL     1       0.944   3.887  20.176  0.00  0.00    +0.000 A 
ATOM     17  C   UNL     1       2.217   4.467  20.044  0.00  0.00    +0.000 A 
ATOM     18 CL   UNL     1       2.426   5.953  20.917  0.00  0.00    +0.000 Cl
ENDBRANCH   9  11
ENDBRANCH   1  10
BRANCH   3  19
ATOM     19  C   UNL     1       2.816   8.614  17.641  0.00  0.00    +0.000 C 
BRANCH  19  20
ATOM     20  C   UNL     1       1.287   8.629  17.702  0.00  0.00    +0.000 C 
BRANCH  20  21
ATOM     21  C   UNL     1       0.762   9.480  18.835  0.00  0.00    +0.000 A 
ATOM     22  C   UNL     1       0.972   9.090  20.166  0.00  0.00    +0.000 A 
ATOM     23  C   UNL     1       0.496   9.873  21.220  0.00  0.00    +0.000 A 
ATOM     24  C   UNL     1      -0.189  11.058  20.943  0.00  0.00    +0.000 A 
ATOM     25  C   UNL     1      -0.433  11.447  19.624  0.00  0.00    +0.000 A 
ATOM     26  C   UNL     1       0.045  10.659  18.574  0.00  0.00    +0.000 A 
BRANCH  24  27
ATOM     27  S   UNL     1      -0.790  12.048  22.280  0.00  0.00    +0.000 S 
ATOM     28  O   UNL     1      -0.998  11.213  23.440  0.00  0.00    +0.000 OA
ATOM     29  O   UNL     1      -0.039  13.280  22.336  0.00  0.00    +0.000 OA
BRANCH  27  30
ATOM     30  N   UNL     1      -2.322  12.467  21.734  0.00  0.00    +0.000 NA
ATOM     31  H   UNL     1      -2.870  11.626  21.556  0.00  0.00    +0.000 HD
ATOM     32  H   UNL     1      -2.760  13.113  22.393  0.00  0.00    +0.000 HD
ENDBRANCH  27  30
ENDBRANCH  24  27
ENDBRANCH  20  21
ENDBRANCH  19  20
ENDBRANCH   3  19
TORSDOF 7
ENDMDL
MODEL 4
REMARK VINA RESULT:      -7.9      0.157      1.717
REMARK  Name = 
REMARK  8 active torsions:
REMARK  status: ('A' for Active; 'I' for Inactive)
REMARK    1  A    between atoms: C_1  and  C_2
REMARK    2  A    between atoms: C_5  and  C_6
REMARK    3  A    between atoms: C_14  and  C_15
REMARK    4  A    between atoms: N_17  and  C_18
REMARK    5  A    between atoms: C_18  and  C_19
REMARK    6  A    between atoms: C_19  and  C_20
REMARK    7  A    between atoms: C_23  and  S_24
REMARK    8  A    between atoms: S_24  and  N_25
REMARK                            x       y       z     vdW  Elec       q    Type
REMARK                         _______ _______ _______ _____ _____    ______ ____
ROOT
ATOM      1  C   UNL     1       4.244   6.628  17.518  0.00  0.00    +0.000 C 
ATOM      2  O   UNL     1       4.476   6.816  16.323  0.00  0.00    +0.000 OA
ATOM      3  N   UNL     1       3.318   7.372  18.233  0.00  0.00    +0.000 N 
ATOM      4  H   UNL     1       3.406   7.352  19.240  0.00  0.00    +0.000 HD
ENDROOT
BRANCH   1  10
ATOM      5  C   UNL     1       7.486   6.521  18.094  0.00  0.00    +0.000 C 
ATOM      6  C   UNL     1       6.359   5.667  18.515  0.00  0.00    +0.000 A 
ATOM      7  O   UNL     1       6.684   4.630  19.320  0.00  0.00    +0.000 OA
ATOM      8  N   UNL     1       5.563   3.899  19.614  0.00  0.00    +0.000 NA
ATOM      9  C   UNL     1       4.520   4.518  19.034  0.00  0.00    +0.000 A 
ATOM     10  C   UNL     1       4.993   5.664  18.298  0.00  0.00    +0.000 A 
BRANCH   9  11
ATOM     11  C   UNL     1       3.164   3.948  19.166  0.00  0.00    +0.000 A 
ATOM     12  C   UNL     1       2.752   2.836  18.392  0.00  0.00    +0.000 A 
ATOM     13 CL   UNL     1       3.784   1.992  17.279  0.00  0.00    +0.000 Cl
ATOM     14  C   UNL     1       1.444   2.326  18.481  0.00  0.00    +0.000 A 
ATOM     15  C   UNL     1       0.535   2.864  19.383  0.00  0.00    +0.000 A 
ATOM     16  C   UNL     1       0.916   3.951  20.158  0.00  0.00    +0.000 A 
ATOM     17  C   UNL     1       2.193   4.520  20.017  0.00  0.00    +0.000 A 
ATOM     18 CL   UNL     1       2.404   6.034  20.840  0.00  0.00    +0.000 Cl
ENDBRANCH   9  11
ENDBRANCH   1  10
BRANCH   3  19
ATOM     19  C   UNL     1       2.737   8.565  17.631  0.00  0.00    +0.000 C 
BRANCH  19  20
ATOM     20  C   UNL     1       1.207   8.556  17.677  0.00  0.00    +0.000 C 
BRANCH  20  21
ATOM     21  C   UNL     1       0.656   9.457  18.758  0.00  0.00    +0.000 A 
ATOM     22  C   UNL     1      -0.358  10.379  18.460  0.00  0.00    +0.000 A 
ATOM     23  C   UNL     1      -0.878  11.210  19.455  0.00  0.00    +0.000 A 
ATOM     24  C   UNL     1      -0.386  11.117  20.758  0.00  0.00    +0.000 A 
ATOM     25  C   UNL     1       0.644  10.225  21.066  0.00  0.00    +0.000 A 
ATOM     26  C   UNL     1       1.161   9.396  20.067  0.00  0.00    +0.000 A 
BRANCH  24  27
ATOM     27  S   UNL     1      -1.046  12.170  22.015  0.00  0.00    +0.000 S 
ATOM     28  O   UNL     1      -0.055  13.154  22.387  0.00  0.00    +0.000 OA
ATOM     29  O   UNL     1      -2.403  12.528  21.674  0.00  0.00    +0.000 OA
BRANCH  27  30
ATOM     30  N   UNL     1      -1.161  11.118  23.319  0.00  0.00    +0.000 NA
ATOM     31  H   UNL     1      -0.871  11.591  24.174  0.00  0.00    +0.000 HD
ATOM     32  H   UNL     1      -2.102  10.724  23.364  0.00  0.00    +0.000 HD
ENDBRANCH  27  30
ENDBRANCH  24  27
ENDBRANCH  20  21
ENDBRANCH  19  20
ENDBRANCH   3  19
TORSDOF 7
ENDMDL
MODEL 5
REMARK VINA RESULT:      -7.9      2.090      2.480
REMARK  Name = 
REMARK  8 active torsions:
REMARK  status: ('A' for Active; 'I' for Inactive)
REMARK    1  A    between atoms: C_1  and  C_2
REMARK    2  A    between atoms: C_5  and  C_6
REMARK    3  A    between atoms: C_14  and  C_15
REMARK    4  A    between atoms: N_17  and  C_18
REMARK    5  A    between atoms: C_18  and  C_19
REMARK    6  A    between atoms: C_19  and  C_20
REMARK    7  A    between atoms: C_23  and  S_24
REMARK    8  A    between atoms: S_24  and  N_25
REMARK                            x       y       z     vdW  Elec       q    Type
REMARK                         _______ _______ _______ _____ _____    ______ ____
ROOT
ATOM      1  C   UNL     1       4.067   6.682  17.463  0.00  0.00    +0.000 C 
ATOM      2  O   UNL     1       4.371   7.010  16.315  0.00  0.00    +0.000 OA
ATOM      3  N   UNL     1       3.008   7.251  18.154  0.00  0.00    +0.000 N 
ATOM      4  H   UNL     1       3.017   7.141  19.159  0.00  0.00    +0.000 HD
ENDROOT
BRANCH   1  10
ATOM      5  C   UNL     1       7.322   6.652  17.968  0.00  0.00    +0.000 C 
ATOM      6  C   UNL     1       6.226   5.767  18.406  0.00  0.00    +0.000 A 
ATOM      7  O   UNL     1       6.594   4.732  19.195  0.00  0.00    +0.000 OA
ATOM      8  N   UNL     1       5.498   3.972  19.507  0.00  0.00    +0.000 NA
ATOM      9  C   UNL     1       4.428   4.569  18.955  0.00  0.00    +0.000 A 
ATOM     10  C   UNL     1       4.857   5.731  18.218  0.00  0.00    +0.000 A 
BRANCH   9  11
ATOM     11  C   UNL     1       3.090   3.964  19.112  0.00  0.00    +0.000 A 
ATOM     12  C   UNL     1       2.139   4.499  20.017  0.00  0.00    +0.000 A 
ATOM     13 CL   UNL     1       2.403   5.927  20.968  0.00  0.00    +0.000 Cl
ATOM     14  C   UNL     1       0.884   3.892  20.203  0.00  0.00    +0.000 A 
ATOM     15  C   UNL     1       0.517   2.782  19.454  0.00  0.00    +0.000 A 
ATOM     16  C   UNL     1       1.428   2.241  18.556  0.00  0.00    +0.000 A 
ATOM     17  C   UNL     1       2.715   2.790  18.423  0.00  0.00    +0.000 A 
ATOM     18 CL   UNL     1       3.815   1.831  17.483  0.00  0.00    +0.000 Cl
ENDBRANCH   9  11
ENDBRANCH   1  10
BRANCH   3  19
ATOM     19  C   UNL     1       2.344   8.428  17.610  0.00  0.00    +0.000 C 
BRANCH  19  20
ATOM     20  C   UNL     1       1.942   9.426  18.698  0.00  0.00    +0.000 C 
BRANCH  20  21
ATOM     21  C   UNL     1       0.505   9.875  18.567  0.00  0.00    +0.000 A 
ATOM     22  C   UNL     1      -0.079  10.672  19.562  0.00  0.00    +0.000 A 
ATOM     23  C   UNL     1      -1.405  11.098  19.446  0.00  0.00    +0.000 A 
ATOM     24  C   UNL     1      -2.151  10.729  18.324  0.00  0.00    +0.000 A 
ATOM     25  C   UNL     1      -1.595   9.912  17.338  0.00  0.00    +0.000 A 
ATOM     26  C   UNL     1      -0.269   9.489  17.460  0.00  0.00    +0.000 A 
BRANCH  24  27
ATOM     27  S   UNL     1      -3.829  11.269  18.179  0.00  0.00    +0.000 S 
ATOM     28  O   UNL     1      -4.699  10.118  18.105  0.00  0.00    +0.000 OA
ATOM     29  O   UNL     1      -4.061  12.357  19.100  0.00  0.00    +0.000 OA
BRANCH  27  30
ATOM     30  N   UNL     1      -3.838  11.953  16.646  0.00  0.00    +0.000 NA
ATOM     31  H   UNL     1      -3.025  11.635  16.119  0.00  0.00    +0.000 HD
ATOM     32  H   UNL     1      -4.728  11.760  16.185  0.00  0.00    +0.000 HD
ENDBRANCH  27  30
ENDBRANCH  24  27
ENDBRANCH  20  21
ENDBRANCH  19  20
ENDBRANCH   3  19
TORSDOF 7
ENDMDL
MODEL 6
REMARK VINA RESULT:      -7.7      1.170      2.293
REMARK  Name = 
REMARK  8 active torsions:
REMARK  status: ('A' for Active; 'I' for Inactive)
REMARK    1  A    between atoms: C_1  and  C_2
REMARK    2  A    between atoms: C_5  and  C_6
REMARK    3  A    between atoms: C_14  and  C_15
REMARK    4  A    between atoms: N_17  and  C_18
REMARK    5  A    between atoms: C_18  and  C_19
REMARK    6  A    between atoms: C_19  and  C_20
REMARK    7  A    between atoms: C_23  and  S_24
REMARK    8  A    between atoms: S_24  and  N_25
REMARK                            x       y       z     vdW  Elec       q    Type
REMARK                         _______ _______ _______ _____ _____    ______ ____
ROOT
ATOM      1  C   UNL     1       4.214   6.620  17.534  0.00  0.00    +0.000 C 
ATOM      2  O   UNL     1       4.416   6.764  16.328  0.00  0.00    +0.000 OA
ATOM      3  N   UNL     1       3.323   7.406  18.248  0.00  0.00    +0.000 N 
ATOM      4  H   UNL     1       3.439   7.417  19.253  0.00  0.00    +0.000 HD
ENDROOT
BRANCH   1  10
ATOM      5  C   UNL     1       7.451   6.548  18.138  0.00  0.00    +0.000 C 
ATOM      6  C   UNL     1       6.329   5.685  18.554  0.00  0.00    +0.000 A 
ATOM      7  O   UNL     1       6.658   4.654  19.366  0.00  0.00    +0.000 OA
ATOM      8  N   UNL     1       5.542   3.914  19.654  0.00  0.00    +0.000 NA
ATOM      9  C   UNL     1       4.498   4.520  19.062  0.00  0.00    +0.000 A 
ATOM     10  C   UNL     1       4.966   5.667  18.325  0.00  0.00    +0.000 A 
BRANCH   9  11
ATOM     11  C   UNL     1       3.146   3.938  19.186  0.00  0.00    +0.000 A 
ATOM     12  C   UNL     1       2.751   2.816  18.416  0.00  0.00    +0.000 A 
ATOM     13 CL   UNL     1       3.802   1.976  17.318  0.00  0.00    +0.000 Cl
ATOM     14  C   UNL     1       1.448   2.294  18.497  0.00  0.00    +0.000 A 
ATOM     15  C   UNL     1       0.526   2.830  19.386  0.00  0.00    +0.000 A 
ATOM     16  C   UNL     1       0.889   3.926  20.158  0.00  0.00    +0.000 A 
ATOM     17  C   UNL     1       2.162   4.506  20.024  0.00  0.00    +0.000 A 
ATOM     18 CL   UNL     1       2.350   6.027  20.840  0.00  0.00    +0.000 Cl
ENDBRANCH   9  11
ENDBRANCH   1  10
BRANCH   3  19
ATOM     19  C   UNL     1       2.748   8.590  17.624  0.00  0.00    +0.000 C 
BRANCH  19  20
ATOM     20  C   UNL     1       1.269   8.774  17.970  0.00  0.00    +0.000 C 
BRANCH  20  21
ATOM     21  C   UNL     1       1.031   9.964  18.871  0.00  0.00    +0.000 A 
ATOM     22  C   UNL     1       0.233   9.833  20.017  0.00  0.00    +0.000 A 
ATOM     23  C   UNL     1       0.013  10.927  20.859  0.00  0.00    +0.000 A 
ATOM     24  C   UNL     1       0.598  12.158  20.556  0.00  0.00    +0.000 A 
ATOM     25  C   UNL     1       1.371  12.314  19.404  0.00  0.00    +0.000 A 
ATOM     26  C   UNL     1       1.587  11.217  18.565  0.00  0.00    +0.000 A 
BRANCH  24  27
ATOM     27  S   UNL     1       0.318  13.540  21.624  0.00  0.00    +0.000 S 
ATOM     28  O   UNL     1      -0.697  13.198  22.595  0.00  0.00    +0.000 OA
ATOM     29  O   UNL     1       1.587  14.118  21.999  0.00  0.00    +0.000 OA
BRANCH  27  30
ATOM     30  N   UNL     1      -0.399  14.641  20.578  0.00  0.00    +0.000 NA
ATOM     31  H   UNL     1       0.135  15.510  20.568  0.00  0.00    +0.000 HD
ATOM     32  H   UNL     1      -0.516  14.218  19.656  0.00  0.00    +0.000 HD
ENDBRANCH  27  30
ENDBRANCH  24  27
ENDBRANCH  20  21
ENDBRANCH  19  20
ENDBRANCH   3  19
TORSDOF 7
ENDMDL
MODEL 7
REMARK VINA RESULT:      -7.7      1.466      1.675
REMARK  Name = 
REMARK  8 active torsions:
REMARK  status: ('A' for Active; 'I' for Inactive)
REMARK    1  A    between atoms: C_1  and  C_2
REMARK    2  A    between atoms: C_5  and  C_6
REMARK    3  A    between atoms: C_14  and  C_15
REMARK    4  A    between atoms: N_17  and  C_18
REMARK    5  A    between atoms: C_18  and  C_19
REMARK    6  A    between atoms: C_19  and  C_20
REMARK    7  A    between atoms: C_23  and  S_24
REMARK    8  A    between atoms: S_24  and  N_25
REMARK                            x       y       z     vdW  Elec       q    Type
REMARK                         _______ _______ _______ _____ _____    ______ ____
ROOT
ATOM      1  C   UNL     1       4.198   6.619  17.495  0.00  0.00    +0.000 C 
ATOM      2  O   UNL     1       4.432   6.791  16.298  0.00  0.00    +0.000 OA
ATOM      3  N   UNL     1       3.282   7.381  18.202  0.00  0.00    +0.000 N 
ATOM      4  H   UNL     1       3.370   7.370  19.209  0.00  0.00    +0.000 HD
ENDROOT
BRANCH   1  10
ATOM      5  C   UNL     1       7.433   6.507  18.109  0.00  0.00    +0.000 C 
ATOM      6  C   UNL     1       6.299   5.655  18.518  0.00  0.00    +0.000 A 
ATOM      7  O   UNL     1       6.614   4.618  19.327  0.00  0.00    +0.000 OA
ATOM      8  N   UNL     1       5.488   3.890  19.608  0.00  0.00    +0.000 NA
ATOM      9  C   UNL     1       4.453   4.510  19.015  0.00  0.00    +0.000 A 
ATOM     10  C   UNL     1       4.937   5.654  18.284  0.00  0.00    +0.000 A 
BRANCH   9  11
ATOM     11  C   UNL     1       3.095   3.942  19.132  0.00  0.00    +0.000 A 
ATOM     12  C   UNL     1       2.125   4.518  19.989  0.00  0.00    +0.000 A 
ATOM     13 CL   UNL     1       2.389   5.959  20.922  0.00  0.00    +0.000 Cl
ATOM     14  C   UNL     1       0.848   3.947  20.138  0.00  0.00    +0.000 A 
ATOM     15  C   UNL     1       0.482   2.831  19.398  0.00  0.00    +0.000 A 
ATOM     16  C   UNL     1       1.412   2.251  18.546  0.00  0.00    +0.000 A 
ATOM     17  C   UNL     1       2.716   2.764  18.452  0.00  0.00    +0.000 A 
ATOM     18 CL   UNL     1       3.826   1.759  17.573  0.00  0.00    +0.000 Cl
ENDBRANCH   9  11
ENDBRANCH   1  10
BRANCH   3  19
ATOM     19  C   UNL     1       2.714   8.574  17.588  0.00  0.00    +0.000 C 
BRANCH  19  20
ATOM     20  C   UNL     1       1.297   8.869  18.086  0.00  0.00    +0.000 C 
BRANCH  20  21
ATOM     21  C   UNL     1       1.225  10.135  18.908  0.00  0.00    +0.000 A 
ATOM     22  C   UNL     1       1.801  11.321  18.430  0.00  0.00    +0.000 A 
ATOM     23  C   UNL     1       1.733  12.498  19.181  0.00  0.00    +0.000 A 
ATOM     24  C   UNL     1       1.081  12.490  20.416  0.00  0.00    +0.000 A 
ATOM     25  C   UNL     1       0.528  11.311  20.921  0.00  0.00    +0.000 A 
ATOM     26  C   UNL     1       0.599  10.137  20.166  0.00  0.00    +0.000 A 
BRANCH  24  27
ATOM     27  S   UNL     1       0.997  13.980  21.365  0.00  0.00    +0.000 S 
ATOM     28  O   UNL     1      -0.252  14.017  22.091  0.00  0.00    +0.000 OA
ATOM     29  O   UNL     1       2.271  14.213  22.003  0.00  0.00    +0.000 OA
BRANCH  27  30
ATOM     30  N   UNL     1       0.864  15.145  20.162  0.00  0.00    +0.000 NA
ATOM     31  H   UNL     1       0.599  14.706  19.281  0.00  0.00    +0.000 HD
ATOM     32  H   UNL     1       0.226  15.883  20.463  0.00  0.00    +0.000 HD
ENDBRANCH  27  30
ENDBRANCH  24  27
ENDBRANCH  20  21
ENDBRANCH  19  20
ENDBRANCH   3  19
TORSDOF 7
ENDMDL
MODEL 8
REMARK VINA RESULT:      -7.7      5.061      6.811
REMARK  Name = 
REMARK  8 active torsions:
REMARK  status: ('A' for Active; 'I' for Inactive)
REMARK    1  A    between atoms: C_1  and  C_2
REMARK    2  A    between atoms: C_5  and  C_6
REMARK    3  A    between atoms: C_14  and  C_15
REMARK    4  A    between atoms: N_17  and  C_18
REMARK    5  A    between atoms: C_18  and  C_19
REMARK    6  A    between atoms: C_19  and  C_20
REMARK    7  A    between atoms: C_23  and  S_24
REMARK    8  A    between atoms: S_24  and  N_25
REMARK                            x       y       z     vdW  Elec       q    Type
REMARK                         _______ _______ _______ _____ _____    ______ ____
ROOT
ATOM      1  C   UNL     1       6.820   6.053  17.933  0.00  0.00    +0.000 C 
ATOM      2  O   UNL     1       7.065   5.724  19.094  0.00  0.00    +0.000 OA
ATOM      3  N   UNL     1       7.325   7.207  17.353  0.00  0.00    +0.000 N 
ATOM      4  H   UNL     1       6.848   7.541  16.527  0.00  0.00    +0.000 HD
ENDROOT
BRANCH   1  10
ATOM      5  C   UNL     1       7.313   4.819  14.918  0.00  0.00    +0.000 C 
ATOM      6  C   UNL     1       6.163   4.794  15.842  0.00  0.00    +0.000 A 
ATOM      7  O   UNL     1       5.078   4.116  15.402  0.00  0.00    +0.000 OA
ATOM      8  N   UNL     1       4.073   4.192  16.330  0.00  0.00    +0.000 NA
ATOM      9  C   UNL     1       4.554   4.875  17.383  0.00  0.00    +0.000 A 
ATOM     10  C   UNL     1       5.904   5.297  17.103  0.00  0.00    +0.000 A 
BRANCH   9  11
ATOM     11  C   UNL     1       3.685   5.131  18.549  0.00  0.00    +0.000 A 
ATOM     12  C   UNL     1       3.358   4.103  19.467  0.00  0.00    +0.000 A 
ATOM     13 CL   UNL     1       3.981   2.485  19.372  0.00  0.00    +0.000 Cl
ATOM     14  C   UNL     1       2.489   4.335  20.548  0.00  0.00    +0.000 A 
ATOM     15  C   UNL     1       1.973   5.603  20.781  0.00  0.00    +0.000 A 
ATOM     16  C   UNL     1       2.282   6.630  19.899  0.00  0.00    +0.000 A 
ATOM     17  C   UNL     1       3.083   6.389  18.770  0.00  0.00    +0.000 A 
ATOM     18 CL   UNL     1       3.132   7.696  17.628  0.00  0.00    +0.000 Cl
ENDBRANCH   9  11
ENDBRANCH   1  10
BRANCH   3  19
ATOM     19  C   UNL     1       7.999   8.194  18.186  0.00  0.00    +0.000 C 
BRANCH  19  20
ATOM     20  C   UNL     1       8.477   9.407  17.385  0.00  0.00    +0.000 C 
BRANCH  20  21
ATOM     21  C   UNL     1       8.839  10.578  18.269  0.00  0.00    +0.000 A 
ATOM     22  C   UNL     1       9.337  10.359  19.561  0.00  0.00    +0.000 A 
ATOM     23  C   UNL     1       9.680  11.436  20.383  0.00  0.00    +0.000 A 
ATOM     24  C   UNL     1       9.529  12.741  19.908  0.00  0.00    +0.000 A 
ATOM     25  C   UNL     1       9.007  12.977  18.635  0.00  0.00    +0.000 A 
ATOM     26  C   UNL     1       8.665  11.897  17.817  0.00  0.00    +0.000 A 
BRANCH  24  27
ATOM     27  S   UNL     1       9.964  14.102  20.950  0.00  0.00    +0.000 S 
ATOM     28  O   UNL     1       9.627  13.785  22.319  0.00  0.00    +0.000 OA
ATOM     29  O   UNL     1      11.265  14.598  20.568  0.00  0.00    +0.000 OA
BRANCH  27  30
ATOM     30  N   UNL     1       8.863  15.272  20.463  0.00  0.00    +0.000 NA
ATOM     31  H   UNL     1       8.026  14.827  20.086  0.00  0.00    +0.000 HD
ATOM     32  H   UNL     1       8.676  15.914  21.234  0.00  0.00    +0.000 HD
ENDBRANCH  27  30
ENDBRANCH  24  27
ENDBRANCH  20  21
ENDBRANCH  19  20
ENDBRANCH   3  19
TORSDOF 7
ENDMDL
MODEL 9
REMARK VINA RESULT:      -7.6      2.308      3.798
REMARK  Name = 
REMARK  8 active torsions:
REMARK  status: ('A' for Active; 'I' for Inactive)
REMARK    1  A    between atoms: C_1  and  C_2
REMARK    2  A    between atoms: C_5  and  C_6
REMARK    3  A    between atoms: C_14  and  C_15
REMARK    4  A    between atoms: N_17  and  C_18
REMARK    5  A    between atoms: C_18  and  C_19
REMARK    6  A    between atoms: C_19  and  C_20
REMARK    7  A    between atoms: C_23  and  S_24
REMARK    8  A    between atoms: S_24  and  N_25
REMARK                            x       y       z     vdW  Elec       q    Type
REMARK                         _______ _______ _______ _____ _____    ______ ____
ROOT
ATOM      1  C   UNL     1       2.509   5.458  19.459  0.00  0.00    +0.000 C 
ATOM      2  O   UNL     1       2.109   5.711  18.322  0.00  0.00    +0.000 OA
ATOM      3  N   UNL     1       2.325   6.316  20.532  0.00  0.00    +0.000 N 
ATOM      4  H   UNL     1       2.926   6.171  21.332  0.00  0.00    +0.000 HD
ENDROOT
BRANCH   1  10
ATOM      5  C   UNL     1       2.048   3.212  21.825  0.00  0.00    +0.000 C 
ATOM      6  C   UNL     1       3.049   3.353  20.750  0.00  0.00    +0.000 A 
ATOM      7  O   UNL     1       3.970   2.365  20.681  0.00  0.00    +0.000 OA
ATOM      8  N   UNL     1       4.856   2.625  19.669  0.00  0.00    +0.000 NA
ATOM      9  C   UNL     1       4.452   3.756  19.066  0.00  0.00    +0.000 A 
ATOM     10  C   UNL     1       3.290   4.271  19.745  0.00  0.00    +0.000 A 
BRANCH   9  11
ATOM     11  C   UNL     1       5.229   4.300  17.934  0.00  0.00    +0.000 A 
ATOM     12  C   UNL     1       6.375   5.106  18.142  0.00  0.00    +0.000 A 
ATOM     13 CL   UNL     1       7.025   5.479  19.709  0.00  0.00    +0.000 Cl
ATOM     14  C   UNL     1       7.084   5.665  17.064  0.00  0.00    +0.000 A 
ATOM     15  C   UNL     1       6.712   5.390  15.755  0.00  0.00    +0.000 A 
ATOM     16  C   UNL     1       5.595   4.598  15.522  0.00  0.00    +0.000 A 
ATOM     17  C   UNL     1       4.832   4.103  16.592  0.00  0.00    +0.000 A 
ATOM     18 CL   UNL     1       3.321   3.383  16.130  0.00  0.00    +0.000 Cl
ENDBRANCH   9  11
ENDBRANCH   1  10
BRANCH   3  19
ATOM     19  C   UNL     1       1.832   7.666  20.296  0.00  0.00    +0.000 C 
BRANCH  19  20
ATOM     20  C   UNL     1       1.370   8.353  21.583  0.00  0.00    +0.000 C 
BRANCH  20  21
ATOM     21  C   UNL     1       0.429   9.505  21.318  0.00  0.00    +0.000 A 
ATOM     22  C   UNL     1      -0.107  10.239  22.386  0.00  0.00    +0.000 A 
ATOM     23  C   UNL     1      -0.972  11.311  22.150  0.00  0.00    +0.000 A 
ATOM     24  C   UNL     1      -1.299  11.655  20.837  0.00  0.00    +0.000 A 
ATOM     25  C   UNL     1      -0.798  10.917  19.762  0.00  0.00    +0.000 A 
ATOM     26  C   UNL     1       0.067   9.846  20.005  0.00  0.00    +0.000 A 
BRANCH  24  27
ATOM     27  S   UNL     1      -2.394  13.012  20.540  0.00  0.00    +0.000 S 
ATOM     28  O   UNL     1      -1.627  14.168  20.134  0.00  0.00    +0.000 OA
ATOM     29  O   UNL     1      -3.543  12.546  19.800  0.00  0.00    +0.000 OA
BRANCH  27  30
ATOM     30  N   UNL     1      -2.949  13.350  22.089  0.00  0.00    +0.000 NA
ATOM     31  H   UNL     1      -2.604  12.647  22.742  0.00  0.00    +0.000 HD
ATOM     32  H   UNL     1      -2.703  14.307  22.344  0.00  0.00    +0.000 HD
ENDBRANCH  27  30
ENDBRANCH  24  27
ENDBRANCH  20  21
ENDBRANCH  19  20
ENDBRANCH   3  19
TORSDOF 7
ENDMDL
