MODEL 1
REMARK VINA RESULT:      -8.1      0.000      0.000
REMARK  Name = 
REMARK  7 active torsions:
REMARK  status: ('A' for Active; 'I' for Inactive)
REMARK    1  A    between atoms: C_1  and  C_2
REMARK    2  A    between atoms: C_2  and  C_10
REMARK    3  A    between atoms: N_3  and  N_4
REMARK    4  A    between atoms: N_13  and  C_14
REMARK    5  A    between atoms: C_17  and  C_18
REMARK    6  A    between atoms: C_19  and  C_20
REMARK    7  A    between atoms: C_28  and  C_29
REMARK                            x       y       z     vdW  Elec       q    Type
REMARK                         _______ _______ _______ _____ _____    ______ ____
ROOT
ATOM      1  C   UNL     1      -2.024  12.270  21.533  0.00  0.00    +0.000 A 
ATOM      2  C   UNL     1      -1.968  12.751  20.210  0.00  0.00    +0.000 A 
ATOM      3  N   UNL     1      -1.075  12.111  19.462  0.00  0.00    +0.000 NA
ATOM      4  N   UNL     1      -0.615  11.106  20.254  0.00  0.00    +0.000 N 
ATOM      5  C   UNL     1      -1.106  11.224  21.552  0.00  0.00    +0.000 A 
ATOM      6  C   UNL     1      -0.611  10.465  22.735  0.00  0.00    +0.000 C 
ENDROOT
BRANCH   4   7
ATOM      7  C   UNL     1       0.280  10.146  19.707  0.00  0.00    +0.000 A 
ATOM      8  C   UNL     1       0.620  10.224  18.348  0.00  0.00    +0.000 A 
ATOM      9  C   UNL     1       1.555   9.337  17.809  0.00  0.00    +0.000 A 
ATOM     10  C   UNL     1       2.127   8.349  18.613  0.00  0.00    +0.000 A 
ATOM     11  C   UNL     1       1.750   8.235  19.951  0.00  0.00    +0.000 A 
ATOM     12  C   UNL     1       0.820   9.124  20.495  0.00  0.00    +0.000 A 
BRANCH  10  13
ATOM     13  C   UNL     1       3.081   7.441  18.061  0.00  0.00    +0.000 C 
ATOM     14  C   UNL     1       3.890   6.695  17.582  0.00  0.00    +0.000 C 
BRANCH  14  15
ATOM     15  C   UNL     1       4.868   5.835  16.984  0.00  0.00    +0.000 A 
ATOM     16  C   UNL     1       6.151   6.321  16.729  0.00  0.00    +0.000 A 
ATOM     17  C   UNL     1       7.101   5.497  16.124  0.00  0.00    +0.000 A 
ATOM     18  C   UNL     1       6.768   4.187  15.776  0.00  0.00    +0.000 A 
ATOM     19  C   UNL     1       5.488   3.699  16.039  0.00  0.00    +0.000 A 
ATOM     20  C   UNL     1       4.537   4.524  16.643  0.00  0.00    +0.000 A 
ENDBRANCH  14  15
ENDBRANCH  10  13
ENDBRANCH   4   7
BRANCH   1  22
ATOM     21  C   UNL     1      -2.260  13.955  23.428  0.00  0.00    +0.000 C 
ATOM     22  C   UNL     1      -2.821  12.788  22.643  0.00  0.00    +0.000 C 
ATOM     23  N   UNL     1      -3.955  12.188  22.874  0.00  0.00    +0.000 NA
BRANCH  23  24
ATOM     24  N   UNL     1      -4.782  12.718  23.829  0.00  0.00    +0.000 N 
ATOM     25  C   UNL     1      -6.040  13.175  23.570  0.00  0.00    +0.000 C 
ATOM     26  N   UNL     1      -6.611  14.154  24.220  0.00  0.00    +0.000 NA
ATOM     27  C   UNL     1      -7.917  14.320  23.515  0.00  0.00    +0.000 C 
ATOM     28  C   UNL     1      -7.820  13.495  22.224  0.00  0.00    +0.000 C 
ATOM     29  N   UNL     1      -6.730  12.608  22.545  0.00  0.00    +0.000 N 
ATOM     30  H   UNL     1      -4.362  13.295  24.556  0.00  0.00    +0.000 HD
ATOM     31  H   UNL     1      -6.130  12.276  21.799  0.00  0.00    +0.000 HD
ENDBRANCH  23  24
ENDBRANCH   1  22
TORSDOF 5
ENDMDL
MODEL 2
REMARK VINA RESULT:      -7.8      5.288     12.633
REMARK  Name = 
REMARK  7 active torsions:
REMARK  status: ('A' for Active; 'I' for Inactive)
REMARK    1  A    between atoms: C_1  and  C_2
REMARK    2  A    between atoms: C_2  and  C_10
REMARK    3  A    between atoms: N_3  and  N_4
REMARK    4  A    between atoms: N_13  and  C_14
REMARK    5  A    between atoms: C_17  and  C_18
REMARK    6  A    between atoms: C_19  and  C_20
REMARK    7  A    between atoms: C_28  and  C_29
REMARK                            x       y       z     vdW  Elec       q    Type
REMARK                         _______ _______ _______ _____ _____    ______ ____
ROOT
ATOM      1  C   UNL     1       4.683   5.034  16.738  0.00  0.00    +0.000 A 
ATOM      2  C   UNL     1       3.769   4.186  17.393  0.00  0.00    +0.000 A 
ATOM      3  N   UNL     1       2.976   4.832  18.240  0.00  0.00    +0.000 NA
ATOM      4  N   UNL     1       3.272   6.147  18.059  0.00  0.00    +0.000 N 
ATOM      5  C   UNL     1       4.369   6.303  17.216  0.00  0.00    +0.000 A 
ATOM      6  C   UNL     1       5.126   7.570  17.010  0.00  0.00    +0.000 C 
ENDROOT
BRANCH   4   7
ATOM      7  C   UNL     1       2.504   7.131  18.739  0.00  0.00    +0.000 A 
ATOM      8  C   UNL     1       2.148   6.916  20.079  0.00  0.00    +0.000 A 
ATOM      9  C   UNL     1       1.457   7.904  20.786  0.00  0.00    +0.000 A 
ATOM     10  C   UNL     1       1.089   9.091  20.152  0.00  0.00    +0.000 A 
ATOM     11  C   UNL     1       1.395   9.285  18.804  0.00  0.00    +0.000 A 
ATOM     12  C   UNL     1       2.090   8.301  18.095  0.00  0.00    +0.000 A 
BRANCH  10  13
ATOM     13  C   UNL     1       0.382  10.100  20.874  0.00  0.00    +0.000 C 
ATOM     14  C   UNL     1      -0.193  10.961  21.480  0.00  0.00    +0.000 C 
BRANCH  14  15
ATOM     15  C   UNL     1      -0.846  12.015  22.200  0.00  0.00    +0.000 A 
ATOM     16  C   UNL     1      -2.020  11.745  22.904  0.00  0.00    +0.000 A 
ATOM     17  C   UNL     1      -2.676  12.771  23.586  0.00  0.00    +0.000 A 
ATOM     18  C   UNL     1      -2.156  14.066  23.564  0.00  0.00    +0.000 A 
ATOM     19  C   UNL     1      -0.978  14.334  22.866  0.00  0.00    +0.000 A 
ATOM     20  C   UNL     1      -0.323  13.307  22.183  0.00  0.00    +0.000 A 
ENDBRANCH  14  15
ENDBRANCH  10  13
ENDBRANCH   4   7
BRANCH   1  22
ATOM     21  C   UNL     1       7.097   4.294  16.403  0.00  0.00    +0.000 C 
ATOM     22  C   UNL     1       5.751   4.660  15.813  0.00  0.00    +0.000 C 
ATOM     23  N   UNL     1       5.456   4.685  14.544  0.00  0.00    +0.000 NA
BRANCH  23  24
ATOM     24  N   UNL     1       6.394   4.229  13.655  0.00  0.00    +0.000 N 
ATOM     25  C   UNL     1       6.101   3.428  12.591  0.00  0.00    +0.000 C 
ATOM     26  N   UNL     1       6.918   2.537  12.098  0.00  0.00    +0.000 NA
ATOM     27  C   UNL     1       6.110   1.885  11.025  0.00  0.00    +0.000 C 
ATOM     28  C   UNL     1       4.663   2.354  11.226  0.00  0.00    +0.000 C 
ATOM     29  N   UNL     1       4.865   3.532  12.033  0.00  0.00    +0.000 N 
ATOM     30  H   UNL     1       7.311   3.975  14.018  0.00  0.00    +0.000 HD
ATOM     31  H   UNL     1       4.150   3.800  12.699  0.00  0.00    +0.000 HD
ENDBRANCH  23  24
ENDBRANCH   1  22
TORSDOF 5
ENDMDL
MODEL 3
REMARK VINA RESULT:      -7.8      1.272      1.694
REMARK  Name = 
REMARK  7 active torsions:
REMARK  status: ('A' for Active; 'I' for Inactive)
REMARK    1  A    between atoms: C_1  and  C_2
REMARK    2  A    between atoms: C_2  and  C_10
REMARK    3  A    between atoms: N_3  and  N_4
REMARK    4  A    between atoms: N_13  and  C_14
REMARK    5  A    between atoms: C_17  and  C_18
REMARK    6  A    between atoms: C_19  and  C_20
REMARK    7  A    between atoms: C_28  and  C_29
REMARK                            x       y       z     vdW  Elec       q    Type
REMARK                         _______ _______ _______ _____ _____    ______ ____
ROOT
ATOM      1  C   UNL     1      -1.541  11.705  21.978  0.00  0.00    +0.000 A 
ATOM      2  C   UNL     1      -1.109  10.817  22.981  0.00  0.00    +0.000 A 
ATOM      3  N   UNL     1      -0.361   9.825  22.510  0.00  0.00    +0.000 NA
ATOM      4  N   UNL     1      -0.183  10.120  21.194  0.00  0.00    +0.000 N 
ATOM      5  C   UNL     1      -0.960  11.210  20.814  0.00  0.00    +0.000 A 
ATOM      6  C   UNL     1      -1.217  11.641  19.410  0.00  0.00    +0.000 C 
ENDROOT
BRANCH   4   7
ATOM      7  C   UNL     1       0.684   9.308  20.413  0.00  0.00    +0.000 A 
ATOM      8  C   UNL     1       1.006   9.709  19.108  0.00  0.00    +0.000 A 
ATOM      9  C   UNL     1       1.915   8.965  18.351  0.00  0.00    +0.000 A 
ATOM     10  C   UNL     1       2.478   7.802  18.878  0.00  0.00    +0.000 A 
ATOM     11  C   UNL     1       2.119   7.371  20.156  0.00  0.00    +0.000 A 
ATOM     12  C   UNL     1       1.214   8.116  20.917  0.00  0.00    +0.000 A 
BRANCH  10  13
ATOM     13  C   UNL     1       3.406   7.041  18.104  0.00  0.00    +0.000 C 
ATOM     14  C   UNL     1       4.189   6.420  17.440  0.00  0.00    +0.000 C 
BRANCH  14  15
ATOM     15  C   UNL     1       5.133   5.714  16.625  0.00  0.00    +0.000 A 
ATOM     16  C   UNL     1       6.165   4.995  17.230  0.00  0.00    +0.000 A 
ATOM     17  C   UNL     1       7.103   4.327  16.443  0.00  0.00    +0.000 A 
ATOM     18  C   UNL     1       7.008   4.375  15.052  0.00  0.00    +0.000 A 
ATOM     19  C   UNL     1       5.971   5.087  14.447  0.00  0.00    +0.000 A 
ATOM     20  C   UNL     1       5.033   5.757  15.235  0.00  0.00    +0.000 A 
ENDBRANCH  14  15
ENDBRANCH  10  13
ENDBRANCH   4   7
BRANCH   1  22
ATOM     21  C   UNL     1      -1.888  14.222  21.794  0.00  0.00    +0.000 C 
ATOM     22  C   UNL     1      -2.440  12.850  22.118  0.00  0.00    +0.000 C 
ATOM     23  N   UNL     1      -3.650  12.592  22.526  0.00  0.00    +0.000 NA
BRANCH  23  24
ATOM     24  N   UNL     1      -4.554  13.622  22.558  0.00  0.00    +0.000 N 
ATOM     25  C   UNL     1      -5.872  13.481  22.239  0.00  0.00    +0.000 C 
ATOM     26  N   UNL     1      -6.600  14.423  21.703  0.00  0.00    +0.000 NA
ATOM     27  C   UNL     1      -7.916  13.755  21.477  0.00  0.00    +0.000 C 
ATOM     28  C   UNL     1      -7.683  12.254  21.693  0.00  0.00    +0.000 C 
ATOM     29  N   UNL     1      -6.457  12.271  22.452  0.00  0.00    +0.000 N 
ATOM     30  H   UNL     1      -4.236  14.543  22.260  0.00  0.00    +0.000 HD
ATOM     31  H   UNL     1      -5.811  11.497  22.360  0.00  0.00    +0.000 HD
ENDBRANCH  23  24
ENDBRANCH   1  22
TORSDOF 5
ENDMDL
MODEL 4
REMARK VINA RESULT:      -7.7      1.182      1.889
REMARK  Name = 
REMARK  7 active torsions:
REMARK  status: ('A' for Active; 'I' for Inactive)
REMARK    1  A    between atoms: C_1  and  C_2
REMARK    2  A    between atoms: C_2  and  C_10
REMARK    3  A    between atoms: N_3  and  N_4
REMARK    4  A    between atoms: N_13  and  C_14
REMARK    5  A    between atoms: C_17  and  C_18
REMARK    6  A    between atoms: C_19  and  C_20
REMARK    7  A    between atoms: C_28  and  C_29
REMARK                            x       y       z     vdW  Elec       q    Type
REMARK                         _______ _______ _______ _____ _____    ______ ____
ROOT
ATOM      1  C   UNL     1      -1.309  11.357  22.284  0.00  0.00    +0.000 A 
ATOM      2  C   UNL     1      -1.016  10.272  23.134  0.00  0.00    +0.000 A 
ATOM      3  N   UNL     1      -0.284   9.333  22.544  0.00  0.00    +0.000 NA
ATOM      4  N   UNL     1       0.026   9.850  21.325  0.00  0.00    +0.000 N 
ATOM      5  C   UNL     1      -0.653  11.043  21.097  0.00  0.00    +0.000 A 
ATOM      6  C   UNL     1      -0.760  11.739  19.784  0.00  0.00    +0.000 C 
ENDROOT
BRANCH   4   7
ATOM      7  C   UNL     1       0.915   9.136  20.475  0.00  0.00    +0.000 A 
ATOM      8  C   UNL     1       1.467   7.927  20.924  0.00  0.00    +0.000 A 
ATOM      9  C   UNL     1       2.283   7.173  20.075  0.00  0.00    +0.000 A 
ATOM     10  C   UNL     1       2.578   7.638  18.793  0.00  0.00    +0.000 A 
ATOM     11  C   UNL     1       2.074   8.867  18.364  0.00  0.00    +0.000 A 
ATOM     12  C   UNL     1       1.253   9.620  19.208  0.00  0.00    +0.000 A 
BRANCH  10  13
ATOM     13  C   UNL     1       3.413   6.869  17.927  0.00  0.00    +0.000 C 
ATOM     14  C   UNL     1       4.134   6.232  17.210  0.00  0.00    +0.000 C 
BRANCH  14  15
ATOM     15  C   UNL     1       5.028   5.486  16.373  0.00  0.00    +0.000 A 
ATOM     16  C   UNL     1       6.375   5.847  16.309  0.00  0.00    +0.000 A 
ATOM     17  C   UNL     1       7.246   5.142  15.477  0.00  0.00    +0.000 A 
ATOM     18  C   UNL     1       6.770   4.076  14.713  0.00  0.00    +0.000 A 
ATOM     19  C   UNL     1       5.426   3.710  14.785  0.00  0.00    +0.000 A 
ATOM     20  C   UNL     1       4.554   4.417  15.615  0.00  0.00    +0.000 A 
ENDBRANCH  14  15
ENDBRANCH  10  13
ENDBRANCH   4   7
BRANCH   1  22
ATOM     21  C   UNL     1      -1.548  13.647  23.372  0.00  0.00    +0.000 C 
ATOM     22  C   UNL     1      -2.153  12.516  22.567  0.00  0.00    +0.000 C 
ATOM     23  N   UNL     1      -3.372  12.474  22.107  0.00  0.00    +0.000 NA
BRANCH  23  24
ATOM     24  N   UNL     1      -4.154  13.589  22.251  0.00  0.00    +0.000 N 
ATOM     25  C   UNL     1      -5.399  13.572  22.807  0.00  0.00    +0.000 C 
ATOM     26  N   UNL     1      -6.364  14.384  22.467  0.00  0.00    +0.000 NA
ATOM     27  C   UNL     1      -7.518  13.911  23.287  0.00  0.00    +0.000 C 
ATOM     28  C   UNL     1      -7.103  12.557  23.878  0.00  0.00    +0.000 C 
ATOM     29  N   UNL     1      -5.669  12.625  23.745  0.00  0.00    +0.000 N 
ATOM     30  H   UNL     1      -4.132  14.286  21.508  0.00  0.00    +0.000 HD
ATOM     31  H   UNL     1      -5.147  11.769  23.606  0.00  0.00    +0.000 HD
ENDBRANCH  23  24
ENDBRANCH   1  22
TORSDOF 5
ENDMDL
MODEL 5
REMARK VINA RESULT:      -7.7      1.520      2.298
REMARK  Name = 
REMARK  7 active torsions:
REMARK  status: ('A' for Active; 'I' for Inactive)
REMARK    1  A    between atoms: C_1  and  C_2
REMARK    2  A    between atoms: C_2  and  C_10
REMARK    3  A    between atoms: N_3  and  N_4
REMARK    4  A    between atoms: N_13  and  C_14
REMARK    5  A    between atoms: C_17  and  C_18
REMARK    6  A    between atoms: C_19  and  C_20
REMARK    7  A    between atoms: C_28  and  C_29
REMARK                            x       y       z     vdW  Elec       q    Type
REMARK                         _______ _______ _______ _____ _____    ______ ____
ROOT
ATOM      1  C   UNL     1      -1.887  12.096  21.972  0.00  0.00    +0.000 A 
ATOM      2  C   UNL     1      -1.183  11.492  23.031  0.00  0.00    +0.000 A 
ATOM      3  N   UNL     1      -0.338  10.551  22.623  0.00  0.00    +0.000 NA
ATOM      4  N   UNL     1      -0.381  10.612  21.265  0.00  0.00    +0.000 N 
ATOM      5  C   UNL     1      -1.378  11.481  20.832  0.00  0.00    +0.000 A 
ATOM      6  C   UNL     1      -1.880  11.592  19.433  0.00  0.00    +0.000 C 
ENDROOT
BRANCH   4   7
ATOM      7  C   UNL     1       0.511   9.806  20.506  0.00  0.00    +0.000 A 
ATOM      8  C   UNL     1       0.999   8.614  21.063  0.00  0.00    +0.000 A 
ATOM      9  C   UNL     1       1.816   7.771  20.306  0.00  0.00    +0.000 A 
ATOM     10  C   UNL     1       2.178   8.128  19.007  0.00  0.00    +0.000 A 
ATOM     11  C   UNL     1       1.738   9.339  18.469  0.00  0.00    +0.000 A 
ATOM     12  C   UNL     1       0.916  10.182  19.222  0.00  0.00    +0.000 A 
BRANCH  10  13
ATOM     13  C   UNL     1       3.015   7.267  18.234  0.00  0.00    +0.000 C 
ATOM     14  C   UNL     1       3.700   6.541  17.568  0.00  0.00    +0.000 C 
BRANCH  14  15
ATOM     15  C   UNL     1       4.489   5.672  16.745  0.00  0.00    +0.000 A 
ATOM     16  C   UNL     1       4.504   4.301  17.004  0.00  0.00    +0.000 A 
ATOM     17  C   UNL     1       5.289   3.453  16.222  0.00  0.00    +0.000 A 
ATOM     18  C   UNL     1       6.057   3.975  15.182  0.00  0.00    +0.000 A 
ATOM     19  C   UNL     1       6.035   5.346  14.917  0.00  0.00    +0.000 A 
ATOM     20  C   UNL     1       5.250   6.195  15.700  0.00  0.00    +0.000 A 
ENDBRANCH  14  15
ENDBRANCH  10  13
ENDBRANCH   4   7
BRANCH   1  22
ATOM     21  C   UNL     1      -2.601  14.441  22.666  0.00  0.00    +0.000 C 
ATOM     22  C   UNL     1      -2.948  13.099  22.056  0.00  0.00    +0.000 C 
ATOM     23  N   UNL     1      -4.118  12.746  21.604  0.00  0.00    +0.000 NA
BRANCH  23  24
ATOM     24  N   UNL     1      -5.105  13.695  21.559  0.00  0.00    +0.000 N 
ATOM     25  C   UNL     1      -6.217  13.593  20.776  0.00  0.00    +0.000 C 
ATOM     26  N   UNL     1      -6.843  14.614  20.256  0.00  0.00    +0.000 NA
ATOM     27  C   UNL     1      -7.917  13.979  19.436  0.00  0.00    +0.000 C 
ATOM     28  C   UNL     1      -7.578  12.484  19.362  0.00  0.00    +0.000 C 
ATOM     29  N   UNL     1      -6.681  12.348  20.482  0.00  0.00    +0.000 N 
ATOM     30  H   UNL     1      -4.828  14.674  21.615  0.00  0.00    +0.000 HD
ATOM     31  H   UNL     1      -5.948  11.651  20.444  0.00  0.00    +0.000 HD
ENDBRANCH  23  24
ENDBRANCH   1  22
TORSDOF 5
ENDMDL
MODEL 6
REMARK VINA RESULT:      -7.7      1.540      2.034
REMARK  Name = 
REMARK  7 active torsions:
REMARK  status: ('A' for Active; 'I' for Inactive)
REMARK    1  A    between atoms: C_1  and  C_2
REMARK    2  A    between atoms: C_2  and  C_10
REMARK    3  A    between atoms: N_3  and  N_4
REMARK    4  A    between atoms: N_13  and  C_14
REMARK    5  A    between atoms: C_17  and  C_18
REMARK    6  A    between atoms: C_19  and  C_20
REMARK    7  A    between atoms: C_28  and  C_29
REMARK                            x       y       z     vdW  Elec       q    Type
REMARK                         _______ _______ _______ _____ _____    ______ ____
ROOT
ATOM      1  C   UNL     1      -0.787  10.956  22.444  0.00  0.00    +0.000 A 
ATOM      2  C   UNL     1      -0.446   9.836  23.226  0.00  0.00    +0.000 A 
ATOM      3  N   UNL     1       0.202   8.901  22.539  0.00  0.00    +0.000 NA
ATOM      4  N   UNL     1       0.410   9.452  21.314  0.00  0.00    +0.000 N 
ATOM      5  C   UNL     1      -0.255  10.669  21.190  0.00  0.00    +0.000 A 
ATOM      6  C   UNL     1      -0.466  11.413  19.916  0.00  0.00    +0.000 C 
ENDROOT
BRANCH   4   7
ATOM      7  C   UNL     1       1.196   8.747  20.361  0.00  0.00    +0.000 A 
ATOM      8  C   UNL     1       1.474   9.349  19.124  0.00  0.00    +0.000 A 
ATOM      9  C   UNL     1       2.306   8.705  18.204  0.00  0.00    +0.000 A 
ATOM     10  C   UNL     1       2.832   7.446  18.498  0.00  0.00    +0.000 A 
ATOM     11  C   UNL     1       2.513   6.822  19.705  0.00  0.00    +0.000 A 
ATOM     12  C   UNL     1       1.686   7.466  20.629  0.00  0.00    +0.000 A 
BRANCH  10  13
ATOM     13  C   UNL     1       3.680   6.787  17.557  0.00  0.00    +0.000 C 
ATOM     14  C   UNL     1       4.404   6.222  16.785  0.00  0.00    +0.000 C 
BRANCH  14  15
ATOM     15  C   UNL     1       5.286   5.527  15.894  0.00  0.00    +0.000 A 
ATOM     16  C   UNL     1       6.667   5.638  16.063  0.00  0.00    +0.000 A 
ATOM     17  C   UNL     1       7.531   4.984  15.184  0.00  0.00    +0.000 A 
ATOM     18  C   UNL     1       7.015   4.219  14.138  0.00  0.00    +0.000 A 
ATOM     19  C   UNL     1       5.634   4.101  13.974  0.00  0.00    +0.000 A 
ATOM     20  C   UNL     1       4.769   4.757  14.853  0.00  0.00    +0.000 A 
ENDBRANCH  14  15
ENDBRANCH  10  13
ENDBRANCH   4   7
BRANCH   1  22
ATOM     21  C   UNL     1      -0.917  13.486  22.714  0.00  0.00    +0.000 C 
ATOM     22  C   UNL     1      -1.569  12.125  22.843  0.00  0.00    +0.000 C 
ATOM     23  N   UNL     1      -2.771  11.895  23.291  0.00  0.00    +0.000 NA
BRANCH  23  24
ATOM     24  N   UNL     1      -3.575  12.970  23.564  0.00  0.00    +0.000 N 
ATOM     25  C   UNL     1      -4.635  13.337  22.789  0.00  0.00    +0.000 C 
ATOM     26  N   UNL     1      -5.041  14.569  22.640  0.00  0.00    +0.000 NA
ATOM     27  C   UNL     1      -6.153  14.449  21.651  0.00  0.00    +0.000 C 
ATOM     28  C   UNL     1      -6.073  13.027  21.080  0.00  0.00    +0.000 C 
ATOM     29  N   UNL     1      -5.286  12.367  22.093  0.00  0.00    +0.000 N 
ATOM     30  H   UNL     1      -3.137  13.807  23.946  0.00  0.00    +0.000 HD
ATOM     31  H   UNL     1      -4.683  11.599  21.824  0.00  0.00    +0.000 HD
ENDBRANCH  23  24
ENDBRANCH   1  22
TORSDOF 5
ENDMDL
MODEL 7
REMARK VINA RESULT:      -7.6      0.880      1.282
REMARK  Name = 
REMARK  7 active torsions:
REMARK  status: ('A' for Active; 'I' for Inactive)
REMARK    1  A    between atoms: C_1  and  C_2
REMARK    2  A    between atoms: C_2  and  C_10
REMARK    3  A    between atoms: N_3  and  N_4
REMARK    4  A    between atoms: N_13  and  C_14
REMARK    5  A    between atoms: C_17  and  C_18
REMARK    6  A    between atoms: C_19  and  C_20
REMARK    7  A    between atoms: C_28  and  C_29
REMARK                            x       y       z     vdW  Elec       q    Type
REMARK                         _______ _______ _______ _____ _____    ______ ____
ROOT
ATOM      1  C   UNL     1      -2.544  12.680  20.972  0.00  0.00    +0.000 A 
ATOM      2  C   UNL     1      -3.080  12.262  19.739  0.00  0.00    +0.000 A 
ATOM      3  N   UNL     1      -2.234  11.525  19.027  0.00  0.00    +0.000 NA
ATOM      4  N   UNL     1      -1.164  11.339  19.845  0.00  0.00    +0.000 N 
ATOM      5  C   UNL     1      -1.279  12.101  21.005  0.00  0.00    +0.000 A 
ATOM      6  C   UNL     1      -0.187  12.347  21.988  0.00  0.00    +0.000 C 
ENDROOT
BRANCH   4   7
ATOM      7  C   UNL     1      -0.112  10.479  19.426  0.00  0.00    +0.000 A 
ATOM      8  C   UNL     1       0.303   9.442  20.275  0.00  0.00    +0.000 A 
ATOM      9  C   UNL     1       1.283   8.540  19.851  0.00  0.00    +0.000 A 
ATOM     10  C   UNL     1       1.875   8.690  18.596  0.00  0.00    +0.000 A 
ATOM     11  C   UNL     1       1.502   9.752  17.771  0.00  0.00    +0.000 A 
ATOM     12  C   UNL     1       0.519  10.652  18.190  0.00  0.00    +0.000 A 
BRANCH  10  13
ATOM     13  C   UNL     1       2.878   7.770  18.163  0.00  0.00    +0.000 C 
ATOM     14  C   UNL     1       3.724   7.010  17.780  0.00  0.00    +0.000 C 
BRANCH  14  15
ATOM     15  C   UNL     1       4.745   6.130  17.292  0.00  0.00    +0.000 A 
ATOM     16  C   UNL     1       6.059   6.588  17.185  0.00  0.00    +0.000 A 
ATOM     17  C   UNL     1       7.053   5.745  16.687  0.00  0.00    +0.000 A 
ATOM     18  C   UNL     1       6.733   4.444  16.297  0.00  0.00    +0.000 A 
ATOM     19  C   UNL     1       5.420   3.983  16.412  0.00  0.00    +0.000 A 
ATOM     20  C   UNL     1       4.425   4.828  16.910  0.00  0.00    +0.000 A 
ENDBRANCH  14  15
ENDBRANCH  10  13
ENDBRANCH   4   7
BRANCH   1  22
ATOM     21  C   UNL     1      -2.867  15.048  21.854  0.00  0.00    +0.000 C 
ATOM     22  C   UNL     1      -3.154  13.565  21.963  0.00  0.00    +0.000 C 
ATOM     23  N   UNL     1      -3.893  12.996  22.873  0.00  0.00    +0.000 NA
BRANCH  23  24
ATOM     24  N   UNL     1      -4.575  13.803  23.747  0.00  0.00    +0.000 N 
ATOM     25  C   UNL     1      -5.895  14.113  23.615  0.00  0.00    +0.000 C 
ATOM     26  N   UNL     1      -6.425  15.241  24.005  0.00  0.00    +0.000 NA
ATOM     27  C   UNL     1      -7.848  15.124  23.569  0.00  0.00    +0.000 C 
ATOM     28  C   UNL     1      -7.915  13.909  22.634  0.00  0.00    +0.000 C 
ATOM     29  N   UNL     1      -6.707  13.211  23.001  0.00  0.00    +0.000 N 
ATOM     30  H   UNL     1      -4.082  14.604  24.138  0.00  0.00    +0.000 HD
ATOM     31  H   UNL     1      -6.228  12.658  22.301  0.00  0.00    +0.000 HD
ENDBRANCH  23  24
ENDBRANCH   1  22
TORSDOF 5
ENDMDL
MODEL 8
REMARK VINA RESULT:      -7.5      0.628      1.093
REMARK  Name = 
REMARK  7 active torsions:
REMARK  status: ('A' for Active; 'I' for Inactive)
REMARK    1  A    between atoms: C_1  and  C_2
REMARK    2  A    between atoms: C_2  and  C_10
REMARK    3  A    between atoms: N_3  and  N_4
REMARK    4  A    between atoms: N_13  and  C_14
REMARK    5  A    between atoms: C_17  and  C_18
REMARK    6  A    between atoms: C_19  and  C_20
REMARK    7  A    between atoms: C_28  and  C_29
REMARK                            x       y       z     vdW  Elec       q    Type
REMARK                         _______ _______ _______ _____ _____    ______ ____
ROOT
ATOM      1  C   UNL     1      -1.857  12.551  21.369  0.00  0.00    +0.000 A 
ATOM      2  C   UNL     1      -1.934  12.897  20.006  0.00  0.00    +0.000 A 
ATOM      3  N   UNL     1      -1.094  12.202  19.246  0.00  0.00    +0.000 NA
ATOM      4  N   UNL     1      -0.537  11.291  20.088  0.00  0.00    +0.000 N 
ATOM      5  C   UNL     1      -0.911  11.530  21.407  0.00  0.00    +0.000 A 
ATOM      6  C   UNL     1      -0.290  10.905  22.608  0.00  0.00    +0.000 C 
ENDROOT
BRANCH   4   7
ATOM      7  C   UNL     1       0.332  10.299  19.558  0.00  0.00    +0.000 A 
ATOM      8  C   UNL     1       0.810  10.437  18.246  0.00  0.00    +0.000 A 
ATOM      9  C   UNL     1       1.724   9.513  17.733  0.00  0.00    +0.000 A 
ATOM     10  C   UNL     1       2.137   8.430  18.512  0.00  0.00    +0.000 A 
ATOM     11  C   UNL     1       1.622   8.261  19.798  0.00  0.00    +0.000 A 
ATOM     12  C   UNL     1       0.712   9.186  20.315  0.00  0.00    +0.000 A 
BRANCH  10  13
ATOM     13  C   UNL     1       3.069   7.485  17.987  0.00  0.00    +0.000 C 
ATOM     14  C   UNL     1       3.847   6.697  17.523  0.00  0.00    +0.000 C 
BRANCH  14  15
ATOM     15  C   UNL     1       4.767   5.771  16.932  0.00  0.00    +0.000 A 
ATOM     16  C   UNL     1       4.386   4.441  16.750  0.00  0.00    +0.000 A 
ATOM     17  C   UNL     1       5.286   3.528  16.198  0.00  0.00    +0.000 A 
ATOM     18  C   UNL     1       6.564   3.945  15.827  0.00  0.00    +0.000 A 
ATOM     19  C   UNL     1       6.942   5.278  16.002  0.00  0.00    +0.000 A 
ATOM     20  C   UNL     1       6.042   6.191  16.555  0.00  0.00    +0.000 A 
ENDBRANCH  14  15
ENDBRANCH  10  13
ENDBRANCH   4   7
BRANCH   1  22
ATOM     21  C   UNL     1      -1.760  13.512  23.726  0.00  0.00    +0.000 C 
ATOM     22  C   UNL     1      -2.566  13.163  22.492  0.00  0.00    +0.000 C 
ATOM     23  N   UNL     1      -3.846  13.349  22.339  0.00  0.00    +0.000 NA
BRANCH  23  24
ATOM     24  N   UNL     1      -4.521  14.025  23.321  0.00  0.00    +0.000 N 
ATOM     25  C   UNL     1      -5.807  13.749  23.682  0.00  0.00    +0.000 C 
ATOM     26  N   UNL     1      -6.649  14.641  24.129  0.00  0.00    +0.000 NA
ATOM     27  C   UNL     1      -7.915  13.867  24.295  0.00  0.00    +0.000 C 
ATOM     28  C   UNL     1      -7.696  12.522  23.590  0.00  0.00    +0.000 C 
ATOM     29  N   UNL     1      -6.256  12.474  23.528  0.00  0.00    +0.000 N 
ATOM     30  H   UNL     1      -4.361  15.028  23.406  0.00  0.00    +0.000 HD
ATOM     31  H   UNL     1      -5.813  11.988  22.757  0.00  0.00    +0.000 HD
ENDBRANCH  23  24
ENDBRANCH   1  22
TORSDOF 5
ENDMDL
MODEL 9
REMARK VINA RESULT:      -7.5      2.329      3.197
REMARK  Name = 
REMARK  7 active torsions:
REMARK  status: ('A' for Active; 'I' for Inactive)
REMARK    1  A    between atoms: C_1  and  C_2
REMARK    2  A    between atoms: C_2  and  C_10
REMARK    3  A    between atoms: N_3  and  N_4
REMARK    4  A    between atoms: N_13  and  C_14
REMARK    5  A    between atoms: C_17  and  C_18
REMARK    6  A    between atoms: C_19  and  C_20
REMARK    7  A    between atoms: C_28  and  C_29
REMARK                            x       y       z     vdW  Elec       q    Type
REMARK                         _______ _______ _______ _____ _____    ______ ____
ROOT
ATOM      1  C   UNL     1      -1.819  12.086  22.071  0.00  0.00    +0.000 A 
ATOM      2  C   UNL     1      -1.343  11.219  23.074  0.00  0.00    +0.000 A 
ATOM      3  N   UNL     1      -0.565  10.253  22.598  0.00  0.00    +0.000 NA
ATOM      4  N   UNL     1      -0.413  10.547  21.279  0.00  0.00    +0.000 N 
ATOM      5  C   UNL     1      -1.234  11.606  20.903  0.00  0.00    +0.000 A 
ATOM      6  C   UNL     1      -1.522  12.020  19.501  0.00  0.00    +0.000 C 
ENDROOT
BRANCH   4   7
ATOM      7  C   UNL     1       0.475   9.764  20.492  0.00  0.00    +0.000 A 
ATOM      8  C   UNL     1       1.014   8.588  21.034  0.00  0.00    +0.000 A 
ATOM      9  C   UNL     1       1.829   7.766  20.251  0.00  0.00    +0.000 A 
ATOM     10  C   UNL     1       2.136   8.130  18.939  0.00  0.00    +0.000 A 
ATOM     11  C   UNL     1       1.645   9.326  18.415  0.00  0.00    +0.000 A 
ATOM     12  C   UNL     1       0.826  10.148  19.194  0.00  0.00    +0.000 A 
BRANCH  10  13
ATOM     13  C   UNL     1       2.970   7.291  18.140  0.00  0.00    +0.000 C 
ATOM     14  C   UNL     1       3.668   6.568  17.484  0.00  0.00    +0.000 C 
BRANCH  14  15
ATOM     15  C   UNL     1       4.493   5.673  16.726  0.00  0.00    +0.000 A 
ATOM     16  C   UNL     1       4.511   4.314  17.045  0.00  0.00    +0.000 A 
ATOM     17  C   UNL     1       5.331   3.441  16.329  0.00  0.00    +0.000 A 
ATOM     18  C   UNL     1       6.131   3.927  15.294  0.00  0.00    +0.000 A 
ATOM     19  C   UNL     1       6.106   5.284  14.970  0.00  0.00    +0.000 A 
ATOM     20  C   UNL     1       5.286   6.158  15.688  0.00  0.00    +0.000 A 
ENDBRANCH  14  15
ENDBRANCH  10  13
ENDBRANCH   4   7
BRANCH   1  22
ATOM     21  C   UNL     1      -4.219  12.861  22.430  0.00  0.00    +0.000 C 
ATOM     22  C   UNL     1      -2.758  13.197  22.217  0.00  0.00    +0.000 C 
ATOM     23  N   UNL     1      -2.255  14.397  22.138  0.00  0.00    +0.000 NA
BRANCH  23  24
ATOM     24  N   UNL     1      -3.082  15.461  22.386  0.00  0.00    +0.000 N 
ATOM     25  C   UNL     1      -3.210  16.529  21.549  0.00  0.00    +0.000 C 
ATOM     26  N   UNL     1      -3.476  17.744  21.949  0.00  0.00    +0.000 NA
ATOM     27  C   UNL     1      -3.426  18.541  20.687  0.00  0.00    +0.000 C 
ATOM     28  C   UNL     1      -2.804  17.627  19.622  0.00  0.00    +0.000 C 
ATOM     29  N   UNL     1      -3.005  16.330  20.219  0.00  0.00    +0.000 N 
ATOM     30  H   UNL     1      -3.172  15.780  23.349  0.00  0.00    +0.000 HD
ATOM     31  H   UNL     1      -2.340  15.591  20.027  0.00  0.00    +0.000 HD
ENDBRANCH  23  24
ENDBRANCH   1  22
TORSDOF 5
ENDMDL
