MODEL 1
REMARK VINA RESULT:      -8.1      0.000      0.000
REMARK  Name = 
REMARK  5 active torsions:
REMARK  status: ('A' for Active; 'I' for Inactive)
REMARK    1  A    between atoms: C_2  and  C_3
REMARK    2  A    between atoms: C_3  and  C_4
REMARK    3  A    between atoms: N_14  and  C_15
REMARK    4  A    between atoms: C_21  and  C_22
REMARK    5  A    between atoms: C_22  and  O_24
REMARK                            x       y       z     vdW  Elec       q    Type
REMARK                         _______ _______ _______ _____ _____    ______ ____
ROOT
ATOM      1  O   UNL     1       0.821   5.305  20.602  0.00  0.00    +0.000 OA
ATOM      2  C   UNL     1       1.978   5.710  20.494  0.00  0.00    +0.000 C 
ATOM      3  N   UNL     1       2.358   7.038  20.388  0.00  0.00    +0.000 N 
ATOM      4  H   UNL     1       3.302   7.227  20.048  0.00  0.00    +0.000 HD
ENDROOT
BRANCH   3   5
ATOM      5  C   UNL     1       1.509   8.179  20.490  0.00  0.00    +0.000 A 
ATOM      6  C   UNL     1       0.905   8.529  21.706  0.00  0.00    +0.000 A 
ATOM      7  C   UNL     1       0.025   9.608  21.787  0.00  0.00    +0.000 A 
ATOM      8 CL   UNL     1      -0.715   9.994  23.292  0.00  0.00    +0.000 Cl
ATOM      9  C   UNL     1      -0.269  10.366  20.662  0.00  0.00    +0.000 A 
ATOM     10  C   UNL     1       0.346  10.064  19.446  0.00  0.00    +0.000 A 
ATOM     11  C   UNL     1       1.261   8.995  19.361  0.00  0.00    +0.000 A 
BRANCH  11  12
ATOM     12  C   UNL     1       1.924   8.709  18.059  0.00  0.00    +0.000 C 
ATOM     13  O   UNL     1       2.309   7.593  17.748  0.00  0.00    +0.000 OA
BRANCH  12  14
ATOM     14  O   UNL     1       2.133   9.794  17.283  0.00  0.00    +0.000 OA
ATOM     15  H   UNL     1       1.673  10.611  17.554  0.00  0.00    +0.000 HD
ENDBRANCH  12  14
ENDBRANCH  11  12
ENDBRANCH   3   5
BRANCH   2  16
ATOM     16  C   UNL     1       3.128   4.714  20.459  0.00  0.00    +0.000 C 
BRANCH  16  17
ATOM     17  C   UNL     1       3.596   4.425  19.046  0.00  0.00    +0.000 A 
ATOM     18  C   UNL     1       2.683   3.820  18.163  0.00  0.00    +0.000 A 
ATOM     19  C   UNL     1       3.051   3.499  16.859  0.00  0.00    +0.000 A 
ATOM     20  C   UNL     1       4.345   3.767  16.420  0.00  0.00    +0.000 A 
ATOM     21  C   UNL     1       5.285   4.359  17.276  0.00  0.00    +0.000 A 
ATOM     22  C   UNL     1       6.588   4.610  16.816  0.00  0.00    +0.000 A 
ATOM     23  C   UNL     1       7.542   5.195  17.647  0.00  0.00    +0.000 A 
ATOM     24  C   UNL     1       7.202   5.541  18.945  0.00  0.00    +0.000 A 
ATOM     25  C   UNL     1       5.910   5.303  19.415  0.00  0.00    +0.000 A 
ATOM     26  C   UNL     1       4.921   4.701  18.604  0.00  0.00    +0.000 A 
ENDBRANCH  16  17
ENDBRANCH   2  16
TORSDOF 5
ENDMDL
MODEL 2
REMARK VINA RESULT:      -7.9      3.342      7.140
REMARK  Name = 
REMARK  5 active torsions:
REMARK  status: ('A' for Active; 'I' for Inactive)
REMARK    1  A    between atoms: C_2  and  C_3
REMARK    2  A    between atoms: C_3  and  C_4
REMARK    3  A    between atoms: N_14  and  C_15
REMARK    4  A    between atoms: C_21  and  C_22
REMARK    5  A    between atoms: C_22  and  O_24
REMARK                            x       y       z     vdW  Elec       q    Type
REMARK                         _______ _______ _______ _____ _____    ______ ____
ROOT
ATOM      1  O   UNL     1       3.158   4.098  18.949  0.00  0.00    +0.000 OA
ATOM      2  C   UNL     1       3.490   5.259  19.190  0.00  0.00    +0.000 C 
ATOM      3  N   UNL     1       4.572   5.918  18.631  0.00  0.00    +0.000 N 
ATOM      4  H   UNL     1       4.890   6.769  19.097  0.00  0.00    +0.000 HD
ENDROOT
BRANCH   3   5
ATOM      5  C   UNL     1       5.432   5.428  17.605  0.00  0.00    +0.000 A 
ATOM      6  C   UNL     1       4.931   5.080  16.342  0.00  0.00    +0.000 A 
ATOM      7  C   UNL     1       5.765   4.542  15.362  0.00  0.00    +0.000 A 
ATOM      8 CL   UNL     1       5.111   4.104  13.832  0.00  0.00    +0.000 Cl
ATOM      9  C   UNL     1       7.116   4.342  15.614  0.00  0.00    +0.000 A 
ATOM     10  C   UNL     1       7.649   4.714  16.849  0.00  0.00    +0.000 A 
ATOM     11  C   UNL     1       6.821   5.289  17.835  0.00  0.00    +0.000 A 
BRANCH  11  12
ATOM     12  C   UNL     1       7.419   5.701  19.134  0.00  0.00    +0.000 C 
ATOM     13  O   UNL     1       7.081   5.208  20.200  0.00  0.00    +0.000 OA
BRANCH  12  14
ATOM     14  O   UNL     1       8.308   6.714  19.049  0.00  0.00    +0.000 OA
ATOM     15  H   UNL     1       9.060   6.575  18.443  0.00  0.00    +0.000 HD
ENDBRANCH  12  14
ENDBRANCH  11  12
ENDBRANCH   3   5
BRANCH   2  16
ATOM     16  C   UNL     1       2.687   6.083  20.186  0.00  0.00    +0.000 C 
BRANCH  16  17
ATOM     17  C   UNL     1       2.139   7.355  19.571  0.00  0.00    +0.000 A 
ATOM     18  C   UNL     1       2.369   7.573  18.199  0.00  0.00    +0.000 A 
ATOM     19  C   UNL     1       1.920   8.732  17.572  0.00  0.00    +0.000 A 
ATOM     20  C   UNL     1       1.245   9.701  18.311  0.00  0.00    +0.000 A 
ATOM     21  C   UNL     1       1.009   9.523  19.682  0.00  0.00    +0.000 A 
ATOM     22  C   UNL     1       0.335  10.518  20.409  0.00  0.00    +0.000 A 
ATOM     23  C   UNL     1       0.090  10.367  21.773  0.00  0.00    +0.000 A 
ATOM     24  C   UNL     1       0.509   9.218  22.423  0.00  0.00    +0.000 A 
ATOM     25  C   UNL     1       1.174   8.217  21.712  0.00  0.00    +0.000 A 
ATOM     26  C   UNL     1       1.451   8.342  20.332  0.00  0.00    +0.000 A 
ENDBRANCH  16  17
ENDBRANCH   2  16
TORSDOF 5
ENDMDL
MODEL 3
REMARK VINA RESULT:      -7.8      1.029      1.154
REMARK  Name = 
REMARK  5 active torsions:
REMARK  status: ('A' for Active; 'I' for Inactive)
REMARK    1  A    between atoms: C_2  and  C_3
REMARK    2  A    between atoms: C_3  and  C_4
REMARK    3  A    between atoms: N_14  and  C_15
REMARK    4  A    between atoms: C_21  and  C_22
REMARK    5  A    between atoms: C_22  and  O_24
REMARK                            x       y       z     vdW  Elec       q    Type
REMARK                         _______ _______ _______ _____ _____    ______ ____
ROOT
ATOM      1  O   UNL     1       0.736   5.602  20.544  0.00  0.00    +0.000 OA
ATOM      2  C   UNL     1       1.882   6.045  20.479  0.00  0.00    +0.000 C 
ATOM      3  N   UNL     1       2.223   7.386  20.409  0.00  0.00    +0.000 N 
ATOM      4  H   UNL     1       3.171   7.610  20.100  0.00  0.00    +0.000 HD
ENDROOT
BRANCH   3   5
ATOM      5  C   UNL     1       1.336   8.497  20.506  0.00  0.00    +0.000 A 
ATOM      6  C   UNL     1       0.732   8.841  21.724  0.00  0.00    +0.000 A 
ATOM      7  C   UNL     1      -0.184   9.890  21.802  0.00  0.00    +0.000 A 
ATOM      8 CL   UNL     1      -0.923  10.267  23.309  0.00  0.00    +0.000 Cl
ATOM      9  C   UNL     1      -0.515  10.624  20.671  0.00  0.00    +0.000 A 
ATOM     10  C   UNL     1       0.098  10.329  19.453  0.00  0.00    +0.000 A 
ATOM     11  C   UNL     1       1.049   9.291  19.370  0.00  0.00    +0.000 A 
BRANCH  11  12
ATOM     12  C   UNL     1       1.709   9.014  18.065  0.00  0.00    +0.000 C 
ATOM     13  O   UNL     1       1.952   7.881  17.679  0.00  0.00    +0.000 OA
BRANCH  12  14
ATOM     14  O   UNL     1       2.083  10.113  17.378  0.00  0.00    +0.000 OA
ATOM     15  H   UNL     1       3.035  10.191  17.178  0.00  0.00    +0.000 HD
ENDBRANCH  12  14
ENDBRANCH  11  12
ENDBRANCH   3   5
BRANCH   2  16
ATOM     16  C   UNL     1       3.063   5.085  20.460  0.00  0.00    +0.000 C 
BRANCH  16  17
ATOM     17  C   UNL     1       3.168   4.327  19.151  0.00  0.00    +0.000 A 
ATOM     18  C   UNL     1       2.439   3.129  19.027  0.00  0.00    +0.000 A 
ATOM     19  C   UNL     1       2.509   2.365  17.865  0.00  0.00    +0.000 A 
ATOM     20  C   UNL     1       3.320   2.780  16.812  0.00  0.00    +0.000 A 
ATOM     21  C   UNL     1       4.069   3.962  16.905  0.00  0.00    +0.000 A 
ATOM     22  C   UNL     1       4.888   4.357  15.834  0.00  0.00    +0.000 A 
ATOM     23  C   UNL     1       5.644   5.526  15.902  0.00  0.00    +0.000 A 
ATOM     24  C   UNL     1       5.584   6.317  17.039  0.00  0.00    +0.000 A 
ATOM     25  C   UNL     1       4.769   5.941  18.108  0.00  0.00    +0.000 A 
ATOM     26  C   UNL     1       3.999   4.757  18.079  0.00  0.00    +0.000 A 
ENDBRANCH  16  17
ENDBRANCH   2  16
TORSDOF 5
ENDMDL
MODEL 4
REMARK VINA RESULT:      -7.6      2.609      3.472
REMARK  Name = 
REMARK  5 active torsions:
REMARK  status: ('A' for Active; 'I' for Inactive)
REMARK    1  A    between atoms: C_2  and  C_3
REMARK    2  A    between atoms: C_3  and  C_4
REMARK    3  A    between atoms: N_14  and  C_15
REMARK    4  A    between atoms: C_21  and  C_22
REMARK    5  A    between atoms: C_22  and  O_24
REMARK                            x       y       z     vdW  Elec       q    Type
REMARK                         _______ _______ _______ _____ _____    ______ ____
ROOT
ATOM      1  O   UNL     1       2.228   8.656  17.395  0.00  0.00    +0.000 OA
ATOM      2  C   UNL     1       2.022   8.403  18.582  0.00  0.00    +0.000 C 
ATOM      3  N   UNL     1       1.107   9.051  19.395  0.00  0.00    +0.000 N 
ATOM      4  H   UNL     1       1.212   8.932  20.404  0.00  0.00    +0.000 HD
ENDROOT
BRANCH   3   5
ATOM      5  C   UNL     1       0.165  10.045  18.995  0.00  0.00    +0.000 A 
ATOM      6  C   UNL     1      -0.705   9.830  17.917  0.00  0.00    +0.000 A 
ATOM      7  C   UNL     1      -1.581  10.828  17.490  0.00  0.00    +0.000 A 
ATOM      8 CL   UNL     1      -2.616  10.537  16.147  0.00  0.00    +0.000 Cl
ATOM      9  C   UNL     1      -1.614  12.060  18.130  0.00  0.00    +0.000 A 
ATOM     10  C   UNL     1      -0.787  12.289  19.229  0.00  0.00    +0.000 A 
ATOM     11  C   UNL     1       0.079  11.275  19.689  0.00  0.00    +0.000 A 
BRANCH  11  12
ATOM     12  C   UNL     1       0.933  11.535  20.881  0.00  0.00    +0.000 C 
ATOM     13  O   UNL     1       1.715  12.471  20.938  0.00  0.00    +0.000 OA
BRANCH  12  14
ATOM     14  O   UNL     1       0.827  10.613  21.861  0.00  0.00    +0.000 OA
ATOM     15  H   UNL     1       0.743   9.685  21.570  0.00  0.00    +0.000 HD
ENDBRANCH  12  14
ENDBRANCH  11  12
ENDBRANCH   3   5
BRANCH   2  16
ATOM     16  C   UNL     1       2.818   7.304  19.270  0.00  0.00    +0.000 C 
BRANCH  16  17
ATOM     17  C   UNL     1       2.872   6.031  18.448  0.00  0.00    +0.000 A 
ATOM     18  C   UNL     1       1.801   5.126  18.569  0.00  0.00    +0.000 A 
ATOM     19  C   UNL     1       1.795   3.924  17.867  0.00  0.00    +0.000 A 
ATOM     20  C   UNL     1       2.868   3.601  17.040  0.00  0.00    +0.000 A 
ATOM     21  C   UNL     1       3.957   4.473  16.905  0.00  0.00    +0.000 A 
ATOM     22  C   UNL     1       5.034   4.122  16.074  0.00  0.00    +0.000 A 
ATOM     23  C   UNL     1       6.130   4.969  15.922  0.00  0.00    +0.000 A 
ATOM     24  C   UNL     1       6.159   6.181  16.595  0.00  0.00    +0.000 A 
ATOM     25  C   UNL     1       5.093   6.546  17.419  0.00  0.00    +0.000 A 
ATOM     26  C   UNL     1       3.972   5.707  17.606  0.00  0.00    +0.000 A 
ENDBRANCH  16  17
ENDBRANCH   2  16
TORSDOF 5
ENDMDL
MODEL 5
REMARK VINA RESULT:      -7.6      2.681      4.202
REMARK  Name = 
REMARK  5 active torsions:
REMARK  status: ('A' for Active; 'I' for Inactive)
REMARK    1  A    between atoms: C_2  and  C_3
REMARK    2  A    between atoms: C_3  and  C_4
REMARK    3  A    between atoms: N_14  and  C_15
REMARK    4  A    between atoms: C_21  and  C_22
REMARK    5  A    between atoms: C_22  and  O_24
REMARK                            x       y       z     vdW  Elec       q    Type
REMARK                         _______ _______ _______ _____ _____    ______ ____
ROOT
ATOM      1  O   UNL     1       2.019   8.472  17.642  0.00  0.00    +0.000 OA
ATOM      2  C   UNL     1       1.818   8.334  18.848  0.00  0.00    +0.000 C 
ATOM      3  N   UNL     1       0.960   9.106  19.614  0.00  0.00    +0.000 N 
ATOM      4  H   UNL     1       1.075   9.065  20.628  0.00  0.00    +0.000 HD
ENDROOT
BRANCH   3   5
ATOM      5  C   UNL     1       0.077  10.122  19.143  0.00  0.00    +0.000 A 
ATOM      6  C   UNL     1      -0.775   9.895  18.052  0.00  0.00    +0.000 A 
ATOM      7  C   UNL     1      -1.592  10.911  17.555  0.00  0.00    +0.000 A 
ATOM      8 CL   UNL     1      -2.606  10.603  16.200  0.00  0.00    +0.000 Cl
ATOM      9  C   UNL     1      -1.583  12.173  18.135  0.00  0.00    +0.000 A 
ATOM     10  C   UNL     1      -0.773  12.416  19.245  0.00  0.00    +0.000 A 
ATOM     11  C   UNL     1       0.032  11.387  19.775  0.00  0.00    +0.000 A 
BRANCH  11  12
ATOM     12  C   UNL     1       0.867  11.664  20.975  0.00  0.00    +0.000 C 
ATOM     13  O   UNL     1       1.733  12.526  20.990  0.00  0.00    +0.000 OA
BRANCH  12  14
ATOM     14  O   UNL     1       0.643  10.839  22.020  0.00  0.00    +0.000 OA
ATOM     15  H   UNL     1       0.690   9.884  21.830  0.00  0.00    +0.000 HD
ENDBRANCH  12  14
ENDBRANCH  11  12
ENDBRANCH   3   5
BRANCH   2  16
ATOM     16  C   UNL     1       2.554   7.247  19.618  0.00  0.00    +0.000 C 
BRANCH  16  17
ATOM     17  C   UNL     1       3.004   6.110  18.720  0.00  0.00    +0.000 A 
ATOM     18  C   UNL     1       4.025   6.375  17.788  0.00  0.00    +0.000 A 
ATOM     19  C   UNL     1       4.470   5.389  16.912  0.00  0.00    +0.000 A 
ATOM     20  C   UNL     1       3.889   4.122  16.945  0.00  0.00    +0.000 A 
ATOM     21  C   UNL     1       2.861   3.827  17.852  0.00  0.00    +0.000 A 
ATOM     22  C   UNL     1       2.283   2.547  17.860  0.00  0.00    +0.000 A 
ATOM     23  C   UNL     1       1.259   2.228  18.749  0.00  0.00    +0.000 A 
ATOM     24  C   UNL     1       0.805   3.183  19.645  0.00  0.00    +0.000 A 
ATOM     25  C   UNL     1       1.374   4.458  19.653  0.00  0.00    +0.000 A 
ATOM     26  C   UNL     1       2.406   4.820  18.758  0.00  0.00    +0.000 A 
ENDBRANCH  16  17
ENDBRANCH   2  16
TORSDOF 5
ENDMDL
MODEL 6
REMARK VINA RESULT:      -7.3      2.996      7.393
REMARK  Name = 
REMARK  5 active torsions:
REMARK  status: ('A' for Active; 'I' for Inactive)
REMARK    1  A    between atoms: C_2  and  C_3
REMARK    2  A    between atoms: C_3  and  C_4
REMARK    3  A    between atoms: N_14  and  C_15
REMARK    4  A    between atoms: C_21  and  C_22
REMARK    5  A    between atoms: C_22  and  O_24
REMARK                            x       y       z     vdW  Elec       q    Type
REMARK                         _______ _______ _______ _____ _____    ______ ____
ROOT
ATOM      1  O   UNL     1      -0.283   7.920  21.301  0.00  0.00    +0.000 OA
ATOM      2  C   UNL     1       0.891   8.281  21.392  0.00  0.00    +0.000 C 
ATOM      3  N   UNL     1       1.986   7.583  20.910  0.00  0.00    +0.000 N 
ATOM      4  H   UNL     1       2.904   7.850  21.270  0.00  0.00    +0.000 HD
ENDROOT
BRANCH   3   5
ATOM      5  C   UNL     1       1.961   6.386  20.135  0.00  0.00    +0.000 A 
ATOM      6  C   UNL     1       1.623   5.154  20.712  0.00  0.00    +0.000 A 
ATOM      7  C   UNL     1       1.660   3.976  19.965  0.00  0.00    +0.000 A 
ATOM      8 CL   UNL     1       1.263   2.479  20.713  0.00  0.00    +0.000 Cl
ATOM      9  C   UNL     1       2.030   3.999  18.627  0.00  0.00    +0.000 A 
ATOM     10  C   UNL     1       2.334   5.217  18.017  0.00  0.00    +0.000 A 
ATOM     11  C   UNL     1       2.268   6.416  18.754  0.00  0.00    +0.000 A 
BRANCH  11  12
ATOM     12  C   UNL     1       2.572   7.705  18.074  0.00  0.00    +0.000 C 
ATOM     13  O   UNL     1       1.766   8.619  18.005  0.00  0.00    +0.000 OA
BRANCH  12  14
ATOM     14  O   UNL     1       3.782   7.754  17.475  0.00  0.00    +0.000 OA
ATOM     15  H   UNL     1       3.967   8.554  16.949  0.00  0.00    +0.000 HD
ENDBRANCH  12  14
ENDBRANCH  11  12
ENDBRANCH   3   5
BRANCH   2  16
ATOM     16  C   UNL     1       1.227   9.591  22.090  0.00  0.00    +0.000 C 
BRANCH  16  17
ATOM     17  C   UNL     1       0.088  10.589  22.021  0.00  0.00    +0.000 A 
ATOM     18  C   UNL     1      -0.824  10.618  23.093  0.00  0.00    +0.000 A 
ATOM     19  C   UNL     1      -1.911  11.488  23.086  0.00  0.00    +0.000 A 
ATOM     20  C   UNL     1      -2.111  12.336  21.999  0.00  0.00    +0.000 A 
ATOM     21  C   UNL     1      -1.229  12.325  20.909  0.00  0.00    +0.000 A 
ATOM     22  C   UNL     1      -1.457  13.181  19.818  0.00  0.00    +0.000 A 
ATOM     23  C   UNL     1      -0.597  13.189  18.721  0.00  0.00    +0.000 A 
ATOM     24  C   UNL     1       0.503  12.346  18.705  0.00  0.00    +0.000 A 
ATOM     25  C   UNL     1       0.745  11.495  19.784  0.00  0.00    +0.000 A 
ATOM     26  C   UNL     1      -0.111  11.451  20.907  0.00  0.00    +0.000 A 
ENDBRANCH  16  17
ENDBRANCH   2  16
TORSDOF 5
ENDMDL
MODEL 7
REMARK VINA RESULT:      -7.2      2.870      7.708
REMARK  Name = 
REMARK  5 active torsions:
REMARK  status: ('A' for Active; 'I' for Inactive)
REMARK    1  A    between atoms: C_2  and  C_3
REMARK    2  A    between atoms: C_3  and  C_4
REMARK    3  A    between atoms: N_14  and  C_15
REMARK    4  A    between atoms: C_21  and  C_22
REMARK    5  A    between atoms: C_22  and  O_24
REMARK                            x       y       z     vdW  Elec       q    Type
REMARK                         _______ _______ _______ _____ _____    ______ ____
ROOT
ATOM      1  O   UNL     1      -0.278   7.876  21.365  0.00  0.00    +0.000 OA
ATOM      2  C   UNL     1       0.844   8.371  21.256  0.00  0.00    +0.000 C 
ATOM      3  N   UNL     1       1.960   7.727  20.748  0.00  0.00    +0.000 N 
ATOM      4  H   UNL     1       2.871   8.144  20.949  0.00  0.00    +0.000 HD
ENDROOT
BRANCH   3   5
ATOM      5  C   UNL     1       2.003   6.427  20.163  0.00  0.00    +0.000 A 
ATOM      6  C   UNL     1       1.628   5.290  20.892  0.00  0.00    +0.000 A 
ATOM      7  C   UNL     1       1.730   4.014  20.336  0.00  0.00    +0.000 A 
ATOM      8 CL   UNL     1       1.283   2.639  21.269  0.00  0.00    +0.000 Cl
ATOM      9  C   UNL     1       2.202   3.843  19.042  0.00  0.00    +0.000 A 
ATOM     10  C   UNL     1       2.547   4.960  18.280  0.00  0.00    +0.000 A 
ATOM     11  C   UNL     1       2.417   6.255  18.821  0.00  0.00    +0.000 A 
BRANCH  11  12
ATOM     12  C   UNL     1       2.766   7.432  17.979  0.00  0.00    +0.000 C 
ATOM     13  O   UNL     1       3.881   7.597  17.509  0.00  0.00    +0.000 OA
BRANCH  12  14
ATOM     14  O   UNL     1       1.775   8.338  17.837  0.00  0.00    +0.000 OA
ATOM     15  H   UNL     1       1.513   8.818  18.645  0.00  0.00    +0.000 HD
ENDBRANCH  12  14
ENDBRANCH  11  12
ENDBRANCH   3   5
BRANCH   2  16
ATOM     16  C   UNL     1       1.087   9.802  21.711  0.00  0.00    +0.000 C 
BRANCH  16  17
ATOM     17  C   UNL     1       0.227  10.799  20.959  0.00  0.00    +0.000 A 
ATOM     18  C   UNL     1       0.602  11.126  19.642  0.00  0.00    +0.000 A 
ATOM     19  C   UNL     1      -0.122  12.055  18.900  0.00  0.00    +0.000 A 
ATOM     20  C   UNL     1      -1.228  12.683  19.468  0.00  0.00    +0.000 A 
ATOM     21  C   UNL     1      -1.623  12.391  20.781  0.00  0.00    +0.000 A 
ATOM     22  C   UNL     1      -2.735  13.044  21.338  0.00  0.00    +0.000 A 
ATOM     23  C   UNL     1      -3.148  12.774  22.641  0.00  0.00    +0.000 A 
ATOM     24  C   UNL     1      -2.457  11.842  23.401  0.00  0.00    +0.000 A 
ATOM     25  C   UNL     1      -1.354  11.180  22.859  0.00  0.00    +0.000 A 
ATOM     26  C   UNL     1      -0.901  11.438  21.546  0.00  0.00    +0.000 A 
ENDBRANCH  16  17
ENDBRANCH   2  16
TORSDOF 5
ENDMDL
MODEL 8
REMARK VINA RESULT:      -7.1      2.662      3.851
REMARK  Name = 
REMARK  5 active torsions:
REMARK  status: ('A' for Active; 'I' for Inactive)
REMARK    1  A    between atoms: C_2  and  C_3
REMARK    2  A    between atoms: C_3  and  C_4
REMARK    3  A    between atoms: N_14  and  C_15
REMARK    4  A    between atoms: C_21  and  C_22
REMARK    5  A    between atoms: C_22  and  O_24
REMARK                            x       y       z     vdW  Elec       q    Type
REMARK                         _______ _______ _______ _____ _____    ______ ____
ROOT
ATOM      1  O   UNL     1      -0.614   7.840  21.447  0.00  0.00    +0.000 OA
ATOM      2  C   UNL     1       0.449   8.417  21.219  0.00  0.00    +0.000 C 
ATOM      3  N   UNL     1       0.580   9.748  20.858  0.00  0.00    +0.000 N 
ATOM      4  H   UNL     1       1.470  10.035  20.449  0.00  0.00    +0.000 HD
ENDROOT
BRANCH   3   5
ATOM      5  C   UNL     1      -0.462  10.719  20.789  0.00  0.00    +0.000 A 
ATOM      6  C   UNL     1      -0.938  11.358  21.942  0.00  0.00    +0.000 A 
ATOM      7  C   UNL     1      -2.000  12.261  21.878  0.00  0.00    +0.000 A 
ATOM      8 CL   UNL     1      -2.572  13.008  23.318  0.00  0.00    +0.000 Cl
ATOM      9  C   UNL     1      -2.609  12.551  20.664  0.00  0.00    +0.000 A 
ATOM     10  C   UNL     1      -2.132  11.958  19.495  0.00  0.00    +0.000 A 
ATOM     11  C   UNL     1      -1.038  11.069  19.544  0.00  0.00    +0.000 A 
BRANCH  11  12
ATOM     12  C   UNL     1      -0.532  10.470  18.279  0.00  0.00    +0.000 C 
ATOM     13  O   UNL     1      -1.250   9.848  17.512  0.00  0.00    +0.000 OA
BRANCH  12  14
ATOM     14  O   UNL     1       0.798  10.605  18.085  0.00  0.00    +0.000 OA
ATOM     15  H   UNL     1       1.348  10.631  18.890  0.00  0.00    +0.000 HD
ENDBRANCH  12  14
ENDBRANCH  11  12
ENDBRANCH   3   5
BRANCH   2  16
ATOM     16  C   UNL     1       1.761   7.652  21.314  0.00  0.00    +0.000 C 
BRANCH  16  17
ATOM     17  C   UNL     1       2.085   6.903  20.036  0.00  0.00    +0.000 A 
ATOM     18  C   UNL     1       2.580   7.647  18.948  0.00  0.00    +0.000 A 
ATOM     19  C   UNL     1       2.873   7.033  17.734  0.00  0.00    +0.000 A 
ATOM     20  C   UNL     1       2.662   5.664  17.583  0.00  0.00    +0.000 A 
ATOM     21  C   UNL     1       2.159   4.894  18.641  0.00  0.00    +0.000 A 
ATOM     22  C   UNL     1       1.944   3.517  18.463  0.00  0.00    +0.000 A 
ATOM     23  C   UNL     1       1.444   2.730  19.498  0.00  0.00    +0.000 A 
ATOM     24  C   UNL     1       1.157   3.308  20.725  0.00  0.00    +0.000 A 
ATOM     25  C   UNL     1       1.372   4.674  20.919  0.00  0.00    +0.000 A 
ATOM     26  C   UNL     1       1.867   5.505  19.888  0.00  0.00    +0.000 A 
ENDBRANCH  16  17
ENDBRANCH   2  16
TORSDOF 5
ENDMDL
MODEL 9
REMARK VINA RESULT:      -7.1      2.774      7.348
REMARK  Name = 
REMARK  5 active torsions:
REMARK  status: ('A' for Active; 'I' for Inactive)
REMARK    1  A    between atoms: C_2  and  C_3
REMARK    2  A    between atoms: C_3  and  C_4
REMARK    3  A    between atoms: N_14  and  C_15
REMARK    4  A    between atoms: C_21  and  C_22
REMARK    5  A    between atoms: C_22  and  O_24
REMARK                            x       y       z     vdW  Elec       q    Type
REMARK                         _______ _______ _______ _____ _____    ______ ____
ROOT
ATOM      1  O   UNL     1       1.878   7.911  19.737  0.00  0.00    +0.000 OA
ATOM      2  C   UNL     1       2.153   8.271  18.592  0.00  0.00    +0.000 C 
ATOM      3  N   UNL     1       2.708   7.468  17.609  0.00  0.00    +0.000 N 
ATOM      4  H   UNL     1       3.123   7.937  16.803  0.00  0.00    +0.000 HD
ENDROOT
BRANCH   3   5
ATOM      5  C   UNL     1       2.963   6.067  17.695  0.00  0.00    +0.000 A 
ATOM      6  C   UNL     1       1.969   5.173  18.118  0.00  0.00    +0.000 A 
ATOM      7  C   UNL     1       2.241   3.812  18.261  0.00  0.00    +0.000 A 
ATOM      8 CL   UNL     1       1.003   2.748  18.805  0.00  0.00    +0.000 Cl
ATOM      9  C   UNL     1       3.505   3.310  17.982  0.00  0.00    +0.000 A 
ATOM     10  C   UNL     1       4.503   4.172  17.523  0.00  0.00    +0.000 A 
ATOM     11  C   UNL     1       4.229   5.543  17.344  0.00  0.00    +0.000 A 
BRANCH  11  12
ATOM     12  C   UNL     1       5.303   6.436  16.829  0.00  0.00    +0.000 C 
ATOM     13  O   UNL     1       6.237   6.810  17.522  0.00  0.00    +0.000 OA
BRANCH  12  14
ATOM     14  O   UNL     1       5.123   6.859  15.559  0.00  0.00    +0.000 OA
ATOM     15  H   UNL     1       5.397   6.239  14.858  0.00  0.00    +0.000 HD
ENDBRANCH  12  14
ENDBRANCH  11  12
ENDBRANCH   3   5
BRANCH   2  16
ATOM     16  C   UNL     1       1.894   9.709  18.168  0.00  0.00    +0.000 C 
BRANCH  16  17
ATOM     17  C   UNL     1       0.441  10.107  18.339  0.00  0.00    +0.000 A 
ATOM     18  C   UNL     1      -0.497   9.567  17.438  0.00  0.00    +0.000 A 
ATOM     19  C   UNL     1      -1.844   9.909  17.515  0.00  0.00    +0.000 A 
ATOM     20  C   UNL     1      -2.274  10.808  18.488  0.00  0.00    +0.000 A 
ATOM     21  C   UNL     1      -1.366  11.374  19.394  0.00  0.00    +0.000 A 
ATOM     22  C   UNL     1      -1.821  12.287  20.360  0.00  0.00    +0.000 A 
ATOM     23  C   UNL     1      -0.940  12.865  21.272  0.00  0.00    +0.000 A 
ATOM     24  C   UNL     1       0.406  12.533  21.232  0.00  0.00    +0.000 A 
ATOM     25  C   UNL     1       0.871  11.623  20.281  0.00  0.00    +0.000 A 
ATOM     26  C   UNL     1       0.008  11.027  19.334  0.00  0.00    +0.000 A 
ENDBRANCH  16  17
ENDBRANCH   2  16
TORSDOF 5
ENDMDL
