MODEL 1
REMARK VINA RESULT:      -8.1      0.000      0.000
REMARK  Name = 
REMARK  4 active torsions:
REMARK  status: ('A' for Active; 'I' for Inactive)
REMARK    1  A    between atoms: C_1  and  N_2
REMARK    2  A    between atoms: N_5  and  C_6
REMARK    3  A    between atoms: C_6  and  C_7
REMARK    4  A    between atoms: C_17  and  C_18
REMARK                            x       y       z     vdW  Elec       q    Type
REMARK                         _______ _______ _______ _____ _____    ______ ____
ROOT
ATOM      1  C   UNL     1       5.390   3.610  19.668  0.00  0.00    +0.000 C 
ATOM      2  N   UNL     1       5.331   4.596  18.599  0.00  0.00    +0.000 N 
ATOM      3  C   UNL     1       6.310   4.619  17.621  0.00  0.00    +0.000 A 
ATOM      4  O   UNL     1       7.292   3.876  17.673  0.00  0.00    +0.000 OA
ATOM      5  N   UNL     1       6.140   5.540  16.594  0.00  0.00    +0.000 N 
ATOM      6  C   UNL     1       5.150   6.511  16.569  0.00  0.00    +0.000 A 
ATOM      7  O   UNL     1       5.034   7.361  15.692  0.00  0.00    +0.000 OA
ATOM      8  C   UNL     1       4.214   6.529  17.693  0.00  0.00    +0.000 A 
ATOM      9  C   UNL     1       3.246   7.536  17.805  0.00  0.00    +0.000 A 
ATOM     10  C   UNL     1       2.379   7.574  18.903  0.00  0.00    +0.000 A 
ATOM     11  C   UNL     1       2.538   6.534  19.819  0.00  0.00    +0.000 A 
ATOM     12  N   UNL     1       3.462   5.541  19.727  0.00  0.00    +0.000 NA
ATOM     13  C   UNL     1       4.308   5.560  18.669  0.00  0.00    +0.000 A 
ENDROOT
BRANCH  10  14
ATOM     14  C   UNL     1       1.388   8.655  19.083  0.00  0.00    +0.000 A 
ATOM     15  C   UNL     1       0.912   9.016  20.357  0.00  0.00    +0.000 A 
ATOM     16  C   UNL     1      -0.011  10.058  20.525  0.00  0.00    +0.000 A 
ATOM     17  C   UNL     1      -0.486  10.752  19.418  0.00  0.00    +0.000 A 
ATOM     18  C   UNL     1      -0.040  10.413  18.145  0.00  0.00    +0.000 A 
ATOM     19  C   UNL     1       0.892   9.381  17.983  0.00  0.00    +0.000 A 
ENDBRANCH  10  14
BRANCH   5  20
ATOM     20  C   UNL     1       7.156   5.593  15.551  0.00  0.00    +0.000 C 
BRANCH  20  21
ATOM     21  C   UNL     1       6.769   4.915  14.253  0.00  0.00    +0.000 A 
ATOM     22  C   UNL     1       7.608   4.976  13.132  0.00  0.00    +0.000 A 
ATOM     23  C   UNL     1       7.331   4.210  11.995  0.00  0.00    +0.000 A 
ATOM     24  C   UNL     1       6.205   3.390  11.962  0.00  0.00    +0.000 A 
ATOM     25  C   UNL     1       5.334   3.364  13.047  0.00  0.00    +0.000 A 
ATOM     26  C   UNL     1       5.606   4.129  14.183  0.00  0.00    +0.000 A 
ENDBRANCH  20  21
ENDBRANCH   5  20
TORSDOF 3
ENDMDL
MODEL 2
REMARK VINA RESULT:      -8.1      0.234      1.349
REMARK  Name = 
REMARK  4 active torsions:
REMARK  status: ('A' for Active; 'I' for Inactive)
REMARK    1  A    between atoms: C_1  and  N_2
REMARK    2  A    between atoms: N_5  and  C_6
REMARK    3  A    between atoms: C_6  and  C_7
REMARK    4  A    between atoms: C_17  and  C_18
REMARK                            x       y       z     vdW  Elec       q    Type
REMARK                         _______ _______ _______ _____ _____    ______ ____
ROOT
ATOM      1  C   UNL     1       5.088   3.668  19.689  0.00  0.00    +0.000 C 
ATOM      2  N   UNL     1       5.094   4.669  18.632  0.00  0.00    +0.000 N 
ATOM      3  C   UNL     1       6.107   4.677  17.689  0.00  0.00    +0.000 A 
ATOM      4  O   UNL     1       7.065   3.905  17.764  0.00  0.00    +0.000 OA
ATOM      5  N   UNL     1       5.999   5.615  16.669  0.00  0.00    +0.000 N 
ATOM      6  C   UNL     1       5.038   6.615  16.624  0.00  0.00    +0.000 A 
ATOM      7  O   UNL     1       4.977   7.480  15.756  0.00  0.00    +0.000 OA
ATOM      8  C   UNL     1       4.064   6.645  17.716  0.00  0.00    +0.000 A 
ATOM      9  C   UNL     1       3.122   7.678  17.808  0.00  0.00    +0.000 A 
ATOM     10  C   UNL     1       2.220   7.727  18.876  0.00  0.00    +0.000 A 
ATOM     11  C   UNL     1       2.316   6.671  19.783  0.00  0.00    +0.000 A 
ATOM     12  N   UNL     1       3.215   5.652  19.708  0.00  0.00    +0.000 NA
ATOM     13  C   UNL     1       4.097   5.661  18.681  0.00  0.00    +0.000 A 
ENDROOT
BRANCH  10  14
ATOM     14  C   UNL     1       1.253   8.833  19.038  0.00  0.00    +0.000 A 
ATOM     15  C   UNL     1       0.582   9.394  17.936  0.00  0.00    +0.000 A 
ATOM     16  C   UNL     1      -0.351  10.428  18.097  0.00  0.00    +0.000 A 
ATOM     17  C   UNL     1      -0.623  10.930  19.365  0.00  0.00    +0.000 A 
ATOM     18  C   UNL     1       0.031  10.401  20.472  0.00  0.00    +0.000 A 
ATOM     19  C   UNL     1       0.952   9.360  20.309  0.00  0.00    +0.000 A 
ENDBRANCH  10  14
BRANCH   5  20
ATOM     20  C   UNL     1       7.051   5.653  15.663  0.00  0.00    +0.000 C 
BRANCH  20  21
ATOM     21  C   UNL     1       6.771   4.832  14.422  0.00  0.00    +0.000 A 
ATOM     22  C   UNL     1       5.623   4.031  14.332  0.00  0.00    +0.000 A 
ATOM     23  C   UNL     1       5.282   3.411  13.127  0.00  0.00    +0.000 A 
ATOM     24  C   UNL     1       6.091   3.572  12.004  0.00  0.00    +0.000 A 
ATOM     25  C   UNL     1       7.264   4.318  12.095  0.00  0.00    +0.000 A 
ATOM     26  C   UNL     1       7.609   4.936  13.299  0.00  0.00    +0.000 A 
ENDBRANCH  20  21
ENDBRANCH   5  20
TORSDOF 3
ENDMDL
MODEL 3
REMARK VINA RESULT:      -8.0      2.683      8.192
REMARK  Name = 
REMARK  4 active torsions:
REMARK  status: ('A' for Active; 'I' for Inactive)
REMARK    1  A    between atoms: C_1  and  N_2
REMARK    2  A    between atoms: N_5  and  C_6
REMARK    3  A    between atoms: C_6  and  C_7
REMARK    4  A    between atoms: C_17  and  C_18
REMARK                            x       y       z     vdW  Elec       q    Type
REMARK                         _______ _______ _______ _____ _____    ______ ____
ROOT
ATOM      1  C   UNL     1       0.853   7.458  21.790  0.00  0.00    +0.000 C 
ATOM      2  N   UNL     1       1.169   8.176  20.565  0.00  0.00    +0.000 N 
ATOM      3  C   UNL     1       0.519   9.361  20.266  0.00  0.00    +0.000 A 
ATOM      4  O   UNL     1      -0.395   9.792  20.974  0.00  0.00    +0.000 OA
ATOM      5  N   UNL     1       0.931  10.025  19.117  0.00  0.00    +0.000 N 
ATOM      6  C   UNL     1       1.832   9.510  18.197  0.00  0.00    +0.000 A 
ATOM      7  O   UNL     1       2.153  10.068  17.152  0.00  0.00    +0.000 OA
ATOM      8  C   UNL     1       2.396   8.192  18.491  0.00  0.00    +0.000 A 
ATOM      9  C   UNL     1       3.234   7.549  17.571  0.00  0.00    +0.000 A 
ATOM     10  C   UNL     1       3.739   6.271  17.837  0.00  0.00    +0.000 A 
ATOM     11  C   UNL     1       3.376   5.736  19.073  0.00  0.00    +0.000 A 
ATOM     12  N   UNL     1       2.573   6.346  19.987  0.00  0.00    +0.000 NA
ATOM     13  C   UNL     1       2.074   7.566  19.676  0.00  0.00    +0.000 A 
ENDROOT
BRANCH  10  14
ATOM     14  C   UNL     1       4.575   5.539  16.863  0.00  0.00    +0.000 A 
ATOM     15  C   UNL     1       4.759   4.146  16.947  0.00  0.00    +0.000 A 
ATOM     16  C   UNL     1       5.534   3.453  16.007  0.00  0.00    +0.000 A 
ATOM     17  C   UNL     1       6.151   4.142  14.969  0.00  0.00    +0.000 A 
ATOM     18  C   UNL     1       5.994   5.519  14.864  0.00  0.00    +0.000 A 
ATOM     19  C   UNL     1       5.208   6.207  15.797  0.00  0.00    +0.000 A 
ENDBRANCH  10  14
BRANCH   5  20
ATOM     20  C   UNL     1       0.263  11.273  18.773  0.00  0.00    +0.000 C 
BRANCH  20  21
ATOM     21  C   UNL     1      -1.162  11.116  18.285  0.00  0.00    +0.000 A 
ATOM     22  C   UNL     1      -1.506  10.095  17.387  0.00  0.00    +0.000 A 
ATOM     23  C   UNL     1      -2.846   9.848  17.072  0.00  0.00    +0.000 A 
ATOM     24  C   UNL     1      -3.853  10.627  17.639  0.00  0.00    +0.000 A 
ATOM     25  C   UNL     1      -3.520  11.680  18.488  0.00  0.00    +0.000 A 
ATOM     26  C   UNL     1      -2.182  11.931  18.802  0.00  0.00    +0.000 A 
ENDBRANCH  20  21
ENDBRANCH   5  20
TORSDOF 3
ENDMDL
MODEL 4
REMARK VINA RESULT:      -7.9      2.818      8.307
REMARK  Name = 
REMARK  4 active torsions:
REMARK  status: ('A' for Active; 'I' for Inactive)
REMARK    1  A    between atoms: C_1  and  N_2
REMARK    2  A    between atoms: N_5  and  C_6
REMARK    3  A    between atoms: C_6  and  C_7
REMARK    4  A    between atoms: C_17  and  C_18
REMARK                            x       y       z     vdW  Elec       q    Type
REMARK                         _______ _______ _______ _____ _____    ______ ____
ROOT
ATOM      1  C   UNL     1       0.823   7.725  21.968  0.00  0.00    +0.000 C 
ATOM      2  N   UNL     1       1.066   8.378  20.691  0.00  0.00    +0.000 N 
ATOM      3  C   UNL     1       0.358   9.516  20.345  0.00  0.00    +0.000 A 
ATOM      4  O   UNL     1      -0.547   9.954  21.058  0.00  0.00    +0.000 OA
ATOM      5  N   UNL     1       0.703  10.122  19.144  0.00  0.00    +0.000 N 
ATOM      6  C   UNL     1       1.593   9.587  18.224  0.00  0.00    +0.000 A 
ATOM      7  O   UNL     1       1.855  10.091  17.136  0.00  0.00    +0.000 OA
ATOM      8  C   UNL     1       2.221   8.313  18.577  0.00  0.00    +0.000 A 
ATOM      9  C   UNL     1       3.052   7.647  17.667  0.00  0.00    +0.000 A 
ATOM     10  C   UNL     1       3.618   6.408  17.991  0.00  0.00    +0.000 A 
ATOM     11  C   UNL     1       3.320   5.938  19.270  0.00  0.00    +0.000 A 
ATOM     12  N   UNL     1       2.525   6.571  20.174  0.00  0.00    +0.000 NA
ATOM     13  C   UNL     1       1.964   7.749  19.808  0.00  0.00    +0.000 A 
ENDROOT
BRANCH  10  14
ATOM     14  C   UNL     1       4.450   5.650  17.034  0.00  0.00    +0.000 A 
ATOM     15  C   UNL     1       5.135   6.288  15.984  0.00  0.00    +0.000 A 
ATOM     16  C   UNL     1       5.942   5.567  15.092  0.00  0.00    +0.000 A 
ATOM     17  C   UNL     1       6.069   4.189  15.227  0.00  0.00    +0.000 A 
ATOM     18  C   UNL     1       5.398   3.529  16.250  0.00  0.00    +0.000 A 
ATOM     19  C   UNL     1       4.603   4.255  17.147  0.00  0.00    +0.000 A 
ENDBRANCH  10  14
BRANCH   5  20
ATOM     20  C   UNL     1      -0.027  11.319  18.749  0.00  0.00    +0.000 C 
BRANCH  20  21
ATOM     21  C   UNL     1      -1.450  11.073  18.294  0.00  0.00    +0.000 A 
ATOM     22  C   UNL     1      -2.511  11.835  18.805  0.00  0.00    +0.000 A 
ATOM     23  C   UNL     1      -3.794  11.722  18.260  0.00  0.00    +0.000 A 
ATOM     24  C   UNL     1      -4.033  10.837  17.212  0.00  0.00    +0.000 A 
ATOM     25  C   UNL     1      -3.000  10.033  16.733  0.00  0.00    +0.000 A 
ATOM     26  C   UNL     1      -1.718  10.142  17.277  0.00  0.00    +0.000 A 
ENDBRANCH  20  21
ENDBRANCH   5  20
TORSDOF 3
ENDMDL
MODEL 5
REMARK VINA RESULT:      -7.6      1.450      2.275
REMARK  Name = 
REMARK  4 active torsions:
REMARK  status: ('A' for Active; 'I' for Inactive)
REMARK    1  A    between atoms: C_1  and  N_2
REMARK    2  A    between atoms: N_5  and  C_6
REMARK    3  A    between atoms: C_6  and  C_7
REMARK    4  A    between atoms: C_17  and  C_18
REMARK                            x       y       z     vdW  Elec       q    Type
REMARK                         _______ _______ _______ _____ _____    ______ ____
ROOT
ATOM      1  C   UNL     1       2.781   2.783  20.866  0.00  0.00    +0.000 C 
ATOM      2  N   UNL     1       3.391   3.828  20.058  0.00  0.00    +0.000 N 
ATOM      3  C   UNL     1       4.595   3.596  19.417  0.00  0.00    +0.000 A 
ATOM      4  O   UNL     1       5.221   2.546  19.578  0.00  0.00    +0.000 OA
ATOM      5  N   UNL     1       5.074   4.616  18.604  0.00  0.00    +0.000 N 
ATOM      6  C   UNL     1       4.503   5.878  18.513  0.00  0.00    +0.000 A 
ATOM      7  O   UNL     1       4.957   6.798  17.841  0.00  0.00    +0.000 OA
ATOM      8  C   UNL     1       3.301   6.117  19.313  0.00  0.00    +0.000 A 
ATOM      9  C   UNL     1       2.717   7.390  19.365  0.00  0.00    +0.000 A 
ATOM     10  C   UNL     1       1.592   7.626  20.163  0.00  0.00    +0.000 A 
ATOM     11  C   UNL     1       1.103   6.511  20.844  0.00  0.00    +0.000 A 
ATOM     12  N   UNL     1       1.647   5.265  20.801  0.00  0.00    +0.000 NA
ATOM     13  C   UNL     1       2.758   5.085  20.047  0.00  0.00    +0.000 A 
ENDROOT
BRANCH  10  14
ATOM     14  C   UNL     1       0.986   8.968  20.289  0.00  0.00    +0.000 A 
ATOM     15  C   UNL     1       0.949   9.866  19.207  0.00  0.00    +0.000 A 
ATOM     16  C   UNL     1       0.353  11.129  19.325  0.00  0.00    +0.000 A 
ATOM     17  C   UNL     1      -0.210  11.524  20.533  0.00  0.00    +0.000 A 
ATOM     18  C   UNL     1      -0.182  10.661  21.623  0.00  0.00    +0.000 A 
ATOM     19  C   UNL     1       0.404   9.395  21.498  0.00  0.00    +0.000 A 
ENDBRANCH  10  14
BRANCH   5  20
ATOM     20  C   UNL     1       6.341   4.405  17.918  0.00  0.00    +0.000 C 
BRANCH  20  21
ATOM     21  C   UNL     1       6.257   4.434  16.406  0.00  0.00    +0.000 A 
ATOM     22  C   UNL     1       7.239   5.083  15.643  0.00  0.00    +0.000 A 
ATOM     23  C   UNL     1       7.250   4.963  14.250  0.00  0.00    +0.000 A 
ATOM     24  C   UNL     1       6.273   4.207  13.605  0.00  0.00    +0.000 A 
ATOM     25  C   UNL     1       5.260   3.604  14.347  0.00  0.00    +0.000 A 
ATOM     26  C   UNL     1       5.245   3.725  15.739  0.00  0.00    +0.000 A 
ENDBRANCH  20  21
ENDBRANCH   5  20
TORSDOF 3
ENDMDL
MODEL 6
REMARK VINA RESULT:      -7.6      3.247      8.640
REMARK  Name = 
REMARK  4 active torsions:
REMARK  status: ('A' for Active; 'I' for Inactive)
REMARK    1  A    between atoms: C_1  and  N_2
REMARK    2  A    between atoms: N_5  and  C_6
REMARK    3  A    between atoms: C_6  and  C_7
REMARK    4  A    between atoms: C_17  and  C_18
REMARK                            x       y       z     vdW  Elec       q    Type
REMARK                         _______ _______ _______ _____ _____    ______ ____
ROOT
ATOM      1  C   UNL     1       0.212   8.664  22.399  0.00  0.00    +0.000 C 
ATOM      2  N   UNL     1       0.452   9.176  21.058  0.00  0.00    +0.000 N 
ATOM      3  C   UNL     1      -0.230  10.292  20.608  0.00  0.00    +0.000 A 
ATOM      4  O   UNL     1      -1.111  10.827  21.285  0.00  0.00    +0.000 OA
ATOM      5  N   UNL     1       0.110  10.763  19.345  0.00  0.00    +0.000 N 
ATOM      6  C   UNL     1       0.969  10.110  18.473  0.00  0.00    +0.000 A 
ATOM      7  O   UNL     1       1.225  10.493  17.335  0.00  0.00    +0.000 OA
ATOM      8  C   UNL     1       1.567   8.861  18.945  0.00  0.00    +0.000 A 
ATOM      9  C   UNL     1       2.363   8.081  18.096  0.00  0.00    +0.000 A 
ATOM     10  C   UNL     1       2.900   6.867  18.538  0.00  0.00    +0.000 A 
ATOM     11  C   UNL     1       2.611   6.538  19.862  0.00  0.00    +0.000 A 
ATOM     12  N   UNL     1       1.850   7.284  20.708  0.00  0.00    +0.000 NA
ATOM     13  C   UNL     1       1.316   8.434  20.231  0.00  0.00    +0.000 A 
ENDROOT
BRANCH  10  14
ATOM     14  C   UNL     1       3.693   5.990  17.651  0.00  0.00    +0.000 A 
ATOM     15  C   UNL     1       3.521   4.594  17.645  0.00  0.00    +0.000 A 
ATOM     16  C   UNL     1       4.260   3.769  16.786  0.00  0.00    +0.000 A 
ATOM     17  C   UNL     1       5.195   4.325  15.921  0.00  0.00    +0.000 A 
ATOM     18  C   UNL     1       5.394   5.701  15.909  0.00  0.00    +0.000 A 
ATOM     19  C   UNL     1       4.645   6.523  16.760  0.00  0.00    +0.000 A 
ENDBRANCH  10  14
BRANCH   5  20
ATOM     20  C   UNL     1      -0.593  11.934  18.841  0.00  0.00    +0.000 C 
BRANCH  20  21
ATOM     21  C   UNL     1      -1.971  11.654  18.278  0.00  0.00    +0.000 A 
ATOM     22  C   UNL     1      -3.125  12.002  18.995  0.00  0.00    +0.000 A 
ATOM     23  C   UNL     1      -4.387  11.898  18.403  0.00  0.00    +0.000 A 
ATOM     24  C   UNL     1      -4.510  11.431  17.096  0.00  0.00    +0.000 A 
ATOM     25  C   UNL     1      -3.377  11.029  16.393  0.00  0.00    +0.000 A 
ATOM     26  C   UNL     1      -2.115  11.129  16.984  0.00  0.00    +0.000 A 
ENDBRANCH  20  21
ENDBRANCH   5  20
TORSDOF 3
ENDMDL
MODEL 7
REMARK VINA RESULT:      -7.6      3.986      8.538
REMARK  Name = 
REMARK  4 active torsions:
REMARK  status: ('A' for Active; 'I' for Inactive)
REMARK    1  A    between atoms: C_1  and  N_2
REMARK    2  A    between atoms: N_5  and  C_6
REMARK    3  A    between atoms: C_6  and  C_7
REMARK    4  A    between atoms: C_17  and  C_18
REMARK                            x       y       z     vdW  Elec       q    Type
REMARK                         _______ _______ _______ _____ _____    ______ ____
ROOT
ATOM      1  C   UNL     1      -0.098   9.748  22.491  0.00  0.00    +0.000 C 
ATOM      2  N   UNL     1       0.413   9.906  21.138  0.00  0.00    +0.000 N 
ATOM      3  C   UNL     1       0.145  11.061  20.425  0.00  0.00    +0.000 A 
ATOM      4  O   UNL     1      -0.595  11.940  20.873  0.00  0.00    +0.000 OA
ATOM      5  N   UNL     1       0.732  11.167  19.169  0.00  0.00    +0.000 N 
ATOM      6  C   UNL     1       1.434  10.147  18.545  0.00  0.00    +0.000 A 
ATOM      7  O   UNL     1       1.903  10.218  17.413  0.00  0.00    +0.000 OA
ATOM      8  C   UNL     1       1.580   8.895  19.288  0.00  0.00    +0.000 A 
ATOM      9  C   UNL     1       2.183   7.776  18.698  0.00  0.00    +0.000 A 
ATOM     10  C   UNL     1       2.283   6.568  19.396  0.00  0.00    +0.000 A 
ATOM     11  C   UNL     1       1.782   6.592  20.698  0.00  0.00    +0.000 A 
ATOM     12  N   UNL     1       1.203   7.668  21.296  0.00  0.00    +0.000 NA
ATOM     13  C   UNL     1       1.089   8.808  20.573  0.00  0.00    +0.000 A 
ENDROOT
BRANCH  10  14
ATOM     14  C   UNL     1       2.858   5.352  18.783  0.00  0.00    +0.000 A 
ATOM     15  C   UNL     1       2.155   4.607  17.819  0.00  0.00    +0.000 A 
ATOM     16  C   UNL     1       2.713   3.468  17.224  0.00  0.00    +0.000 A 
ATOM     17  C   UNL     1       3.986   3.044  17.590  0.00  0.00    +0.000 A 
ATOM     18  C   UNL     1       4.703   3.755  18.545  0.00  0.00    +0.000 A 
ATOM     19  C   UNL     1       4.146   4.900  19.129  0.00  0.00    +0.000 A 
ENDBRANCH  10  14
BRANCH   5  20
ATOM     20  C   UNL     1       0.466  12.370  18.391  0.00  0.00    +0.000 C 
BRANCH  20  21
ATOM     21  C   UNL     1       1.431  13.511  18.638  0.00  0.00    +0.000 A 
ATOM     22  C   UNL     1       2.755  13.446  18.180  0.00  0.00    +0.000 A 
ATOM     23  C   UNL     1       3.590  14.565  18.259  0.00  0.00    +0.000 A 
ATOM     24  C   UNL     1       3.115  15.754  18.809  0.00  0.00    +0.000 A 
ATOM     25  C   UNL     1       1.821  15.814  19.319  0.00  0.00    +0.000 A 
ATOM     26  C   UNL     1       0.985  14.697  19.244  0.00  0.00    +0.000 A 
ENDBRANCH  20  21
ENDBRANCH   5  20
TORSDOF 3
ENDMDL
MODEL 8
REMARK VINA RESULT:      -7.5      0.980      1.228
REMARK  Name = 
REMARK  4 active torsions:
REMARK  status: ('A' for Active; 'I' for Inactive)
REMARK    1  A    between atoms: C_1  and  N_2
REMARK    2  A    between atoms: N_5  and  C_6
REMARK    3  A    between atoms: C_6  and  C_7
REMARK    4  A    between atoms: C_17  and  C_18
REMARK                            x       y       z     vdW  Elec       q    Type
REMARK                         _______ _______ _______ _____ _____    ______ ____
ROOT
ATOM      1  C   UNL     1       3.903   3.740  19.673  0.00  0.00    +0.000 C 
ATOM      2  N   UNL     1       4.315   4.728  18.688  0.00  0.00    +0.000 N 
ATOM      3  C   UNL     1       5.463   4.527  17.941  0.00  0.00    +0.000 A 
ATOM      4  O   UNL     1       6.205   3.564  18.145  0.00  0.00    +0.000 OA
ATOM      5  N   UNL     1       5.746   5.478  16.968  0.00  0.00    +0.000 N 
ATOM      6  C   UNL     1       5.043   6.663  16.804  0.00  0.00    +0.000 A 
ATOM      7  O   UNL     1       5.328   7.531  15.985  0.00  0.00    +0.000 OA
ATOM      8  C   UNL     1       3.914   6.891  17.706  0.00  0.00    +0.000 A 
ATOM      9  C   UNL     1       3.211   8.103  17.683  0.00  0.00    +0.000 A 
ATOM     10  C   UNL     1       2.158   8.335  18.575  0.00  0.00    +0.000 A 
ATOM     11  C   UNL     1       1.861   7.273  19.429  0.00  0.00    +0.000 A 
ATOM     12  N   UNL     1       2.521   6.084  19.462  0.00  0.00    +0.000 NA
ATOM     13  C   UNL     1       3.559   5.913  18.610  0.00  0.00    +0.000 A 
ENDROOT
BRANCH  10  14
ATOM     14  C   UNL     1       1.436   9.623  18.619  0.00  0.00    +0.000 A 
ATOM     15  C   UNL     1       2.059  10.833  18.264  0.00  0.00    +0.000 A 
ATOM     16  C   UNL     1       1.363  12.049  18.285  0.00  0.00    +0.000 A 
ATOM     17  C   UNL     1       0.028  12.080  18.674  0.00  0.00    +0.000 A 
ATOM     18  C   UNL     1      -0.614  10.902  19.038  0.00  0.00    +0.000 A 
ATOM     19  C   UNL     1       0.082   9.687  19.003  0.00  0.00    +0.000 A 
ENDBRANCH  10  14
BRANCH   5  20
ATOM     20  C   UNL     1       6.949   5.298  16.168  0.00  0.00    +0.000 C 
BRANCH  20  21
ATOM     21  C   UNL     1       6.702   4.852  14.742  0.00  0.00    +0.000 A 
ATOM     22  C   UNL     1       7.595   5.193  13.716  0.00  0.00    +0.000 A 
ATOM     23  C   UNL     1       7.455   4.640  12.439  0.00  0.00    +0.000 A 
ATOM     24  C   UNL     1       6.415   3.753  12.171  0.00  0.00    +0.000 A 
ATOM     25  C   UNL     1       5.488   3.450  13.166  0.00  0.00    +0.000 A 
ATOM     26  C   UNL     1       5.624   4.003  14.441  0.00  0.00    +0.000 A 
ENDBRANCH  20  21
ENDBRANCH   5  20
TORSDOF 3
ENDMDL
MODEL 9
REMARK VINA RESULT:      -7.5      3.410      8.427
REMARK  Name = 
REMARK  4 active torsions:
REMARK  status: ('A' for Active; 'I' for Inactive)
REMARK    1  A    between atoms: C_1  and  N_2
REMARK    2  A    between atoms: N_5  and  C_6
REMARK    3  A    between atoms: C_6  and  C_7
REMARK    4  A    between atoms: C_17  and  C_18
REMARK                            x       y       z     vdW  Elec       q    Type
REMARK                         _______ _______ _______ _____ _____    ______ ____
ROOT
ATOM      1  C   UNL     1       0.109   8.225  21.915  0.00  0.00    +0.000 C 
ATOM      2  N   UNL     1       0.649   8.879  20.732  0.00  0.00    +0.000 N 
ATOM      3  C   UNL     1       0.206  10.140  20.372  0.00  0.00    +0.000 A 
ATOM      4  O   UNL     1      -0.707  10.702  20.982  0.00  0.00    +0.000 OA
ATOM      5  N   UNL     1       0.825  10.728  19.276  0.00  0.00    +0.000 N 
ATOM      6  C   UNL     1       1.737  10.082  18.453  0.00  0.00    +0.000 A 
ATOM      7  O   UNL     1       2.240  10.579  17.451  0.00  0.00    +0.000 OA
ATOM      8  C   UNL     1       2.077   8.701  18.800  0.00  0.00    +0.000 A 
ATOM      9  C   UNL     1       2.908   7.937  17.970  0.00  0.00    +0.000 A 
ATOM     10  C   UNL     1       3.198   6.605  18.282  0.00  0.00    +0.000 A 
ATOM     11  C   UNL     1       2.636   6.139  19.471  0.00  0.00    +0.000 A 
ATOM     12  N   UNL     1       1.836   6.864  20.298  0.00  0.00    +0.000 NA
ATOM     13  C   UNL     1       1.547   8.139  19.941  0.00  0.00    +0.000 A 
ENDROOT
BRANCH  10  14
ATOM     14  C   UNL     1       4.020   5.752  17.399  0.00  0.00    +0.000 A 
ATOM     15  C   UNL     1       4.009   4.349  17.505  0.00  0.00    +0.000 A 
ATOM     16  C   UNL     1       4.773   3.544  16.649  0.00  0.00    +0.000 A 
ATOM     17  C   UNL     1       5.574   4.128  15.675  0.00  0.00    +0.000 A 
ATOM     18  C   UNL     1       5.613   5.512  15.550  0.00  0.00    +0.000 A 
ATOM     19  C   UNL     1       4.838   6.313  16.398  0.00  0.00    +0.000 A 
ENDBRANCH  10  14
BRANCH   5  20
ATOM     20  C   UNL     1       0.379  12.053  18.869  0.00  0.00    +0.000 C 
BRANCH  20  21
ATOM     21  C   UNL     1       1.333  13.177  19.213  0.00  0.00    +0.000 A 
ATOM     22  C   UNL     1       1.772  13.369  20.531  0.00  0.00    +0.000 A 
ATOM     23  C   UNL     1       2.779  14.297  20.816  0.00  0.00    +0.000 A 
ATOM     24  C   UNL     1       3.346  15.051  19.791  0.00  0.00    +0.000 A 
ATOM     25  C   UNL     1       2.879  14.910  18.486  0.00  0.00    +0.000 A 
ATOM     26  C   UNL     1       1.871  13.986  18.199  0.00  0.00    +0.000 A 
ENDBRANCH  20  21
ENDBRANCH   5  20
TORSDOF 3
ENDMDL
