MODEL 1
REMARK VINA RESULT:      -8.2      0.000      0.000
REMARK  Name = 
REMARK  7 active torsions:
REMARK  status: ('A' for Active; 'I' for Inactive)
REMARK    1  A    between atoms: C_1  and  C_2
REMARK    2  A    between atoms: C_7  and  C_8
REMARK    3  A    between atoms: C_13  and  C_14
REMARK    4  A    between atoms: N_16  and  C_17
REMARK    5  A    between atoms: N_16  and  C_18
REMARK    6  A    between atoms: C_18  and  C_19
REMARK    7  A    between atoms: N_21  and  C_22
REMARK                            x       y       z     vdW  Elec       q    Type
REMARK                         _______ _______ _______ _____ _____    ______ ____
ROOT
ATOM      1  C   UNL     1       4.225   5.980  18.410  0.00  0.00    +0.000 C 
ATOM      2  O   UNL     1       4.683   7.071  18.058  0.00  0.00    +0.000 OA
ATOM      3  N   UNL     1       5.090   4.946  18.729  0.00  0.00    +0.000 N 
ATOM      4  C   UNL     1       4.731   3.629  19.246  0.00  0.00    +0.000 C 
ENDROOT
BRANCH   1  10
ATOM      5  C   UNL     1       0.551   9.421  19.197  0.00  0.00    +0.000 C 
ATOM      6  O   UNL     1       0.029   9.996  18.243  0.00  0.00    +0.000 OA
ATOM      7  N   UNL     1       1.435   8.338  19.015  0.00  0.00    +0.000 N 
ATOM      8  C   UNL     1       1.921   8.042  17.664  0.00  0.00    +0.000 C 
ATOM      9  C   UNL     1       1.946   6.533  17.391  0.00  0.00    +0.000 C 
ATOM     10  C   UNL     1       2.707   5.742  18.476  0.00  0.00    +0.000 C 
ATOM     11  C   UNL     1       2.092   6.095  19.828  0.00  0.00    +0.000 C 
ATOM     12  C   UNL     1       2.086   7.587  20.080  0.00  0.00    +0.000 C 
BRANCH   5  19
ATOM     13  C   UNL     1       0.724  12.349  20.033  0.00  0.00    +0.000 C 
ATOM     14  C   UNL     1       0.220  11.260  20.939  0.00  0.00    +0.000 A 
ATOM     15  C   UNL     1      -0.202  11.630  22.233  0.00  0.00    +0.000 A 
ATOM     16  C   UNL     1      -0.671  10.682  23.141  0.00  0.00    +0.000 A 
ATOM     17  C   UNL     1      -0.632   9.337  22.811  0.00  0.00    +0.000 A 
ATOM     18  C   UNL     1      -0.127   8.949  21.573  0.00  0.00    +0.000 A 
ATOM     19  C   UNL     1       0.205   9.893  20.583  0.00  0.00    +0.000 A 
ENDBRANCH   5  19
ENDBRANCH   1  10
BRANCH   3  20
ATOM     20  C   UNL     1       6.528   5.212  18.606  0.00  0.00    +0.000 C 
BRANCH  20  21
ATOM     21  C   UNL     1       7.083   4.769  17.258  0.00  0.00    +0.000 C 
ATOM     22  O   UNL     1       8.176   4.190  17.217  0.00  0.00    +0.000 OA
ATOM     23  N   UNL     1       6.342   5.150  16.146  0.00  0.00    +0.000 N 
ATOM     24  H   UNL     1       5.659   5.891  16.298  0.00  0.00    +0.000 HD
BRANCH  23  25
ATOM     25  C   UNL     1       6.668   4.808  14.817  0.00  0.00    +0.000 A 
ATOM     26  C   UNL     1       7.700   5.445  14.102  0.00  0.00    +0.000 A 
ATOM     27  C   UNL     1       7.910   5.185  12.748  0.00  0.00    +0.000 A 
ATOM     28  C   UNL     1       7.109   4.261  12.090  0.00  0.00    +0.000 A 
ATOM     29  C   UNL     1       6.145   3.566  12.810  0.00  0.00    +0.000 A 
ATOM     30  F   UNL     1       5.393   2.653  12.180  0.00  0.00    +0.000 F 
ATOM     31  C   UNL     1       5.929   3.822  14.162  0.00  0.00    +0.000 A 
ENDBRANCH  23  25
ENDBRANCH  20  21
ENDBRANCH   3  20
TORSDOF 5
ENDMDL
MODEL 2
REMARK VINA RESULT:      -7.8      6.338      8.504
REMARK  Name = 
REMARK  7 active torsions:
REMARK  status: ('A' for Active; 'I' for Inactive)
REMARK    1  A    between atoms: C_1  and  C_2
REMARK    2  A    between atoms: C_7  and  C_8
REMARK    3  A    between atoms: C_13  and  C_14
REMARK    4  A    between atoms: N_16  and  C_17
REMARK    5  A    between atoms: N_16  and  C_18
REMARK    6  A    between atoms: C_18  and  C_19
REMARK    7  A    between atoms: N_21  and  C_22
REMARK                            x       y       z     vdW  Elec       q    Type
REMARK                         _______ _______ _______ _____ _____    ______ ____
ROOT
ATOM      1  C   UNL     1       4.071  15.803  18.729  0.00  0.00    +0.000 C 
ATOM      2  O   UNL     1       4.074  15.079  17.729  0.00  0.00    +0.000 OA
ATOM      3  N   UNL     1       5.212  16.512  19.063  0.00  0.00    +0.000 N 
ATOM      4  C   UNL     1       5.360  17.476  20.149  0.00  0.00    +0.000 C 
ENDROOT
BRANCH   1  10
ATOM      5  C   UNL     1       0.994  12.047  20.277  0.00  0.00    +0.000 C 
ATOM      6  O   UNL     1       1.225  11.455  21.330  0.00  0.00    +0.000 OA
ATOM      7  N   UNL     1       1.708  13.205  19.907  0.00  0.00    +0.000 N 
ATOM      8  C   UNL     1       2.902  13.574  20.675  0.00  0.00    +0.000 C 
ATOM      9  C   UNL     1       2.969  15.086  20.922  0.00  0.00    +0.000 C 
ATOM     10  C   UNL     1       2.825  15.911  19.626  0.00  0.00    +0.000 C 
ATOM     11  C   UNL     1       1.536  15.474  18.936  0.00  0.00    +0.000 C 
ATOM     12  C   UNL     1       1.496  13.981  18.693  0.00  0.00    +0.000 C 
BRANCH   5  19
ATOM     13  C   UNL     1       1.477   9.863  18.205  0.00  0.00    +0.000 C 
ATOM     14  C   UNL     1       0.121  10.452  18.483  0.00  0.00    +0.000 A 
ATOM     15  C   UNL     1      -0.973   9.950  17.749  0.00  0.00    +0.000 A 
ATOM     16  C   UNL     1      -2.261  10.449  17.935  0.00  0.00    +0.000 A 
ATOM     17  C   UNL     1      -2.464  11.527  18.782  0.00  0.00    +0.000 A 
ATOM     18  C   UNL     1      -1.377  12.096  19.440  0.00  0.00    +0.000 A 
ATOM     19  C   UNL     1      -0.097  11.514  19.389  0.00  0.00    +0.000 A 
ENDBRANCH   5  19
ENDBRANCH   1  10
BRANCH   3  20
ATOM     20  C   UNL     1       6.387  16.339  18.201  0.00  0.00    +0.000 C 
BRANCH  20  21
ATOM     21  C   UNL     1       7.298  15.218  18.686  0.00  0.00    +0.000 C 
ATOM     22  O   UNL     1       7.216  14.843  19.863  0.00  0.00    +0.000 OA
ATOM     23  N   UNL     1       8.240  14.767  17.770  0.00  0.00    +0.000 N 
ATOM     24  H   UNL     1       8.415  15.377  16.973  0.00  0.00    +0.000 HD
BRANCH  23  25
ATOM     25  C   UNL     1       9.148  13.715  18.016  0.00  0.00    +0.000 A 
ATOM     26  C   UNL     1      10.510  13.939  18.293  0.00  0.00    +0.000 A 
ATOM     27  C   UNL     1      11.411  12.880  18.394  0.00  0.00    +0.000 A 
ATOM     28  C   UNL     1      10.962  11.574  18.248  0.00  0.00    +0.000 A 
ATOM     29  C   UNL     1       9.605  11.341  18.060  0.00  0.00    +0.000 A 
ATOM     30  F   UNL     1       9.169  10.079  17.949  0.00  0.00    +0.000 F 
ATOM     31  C   UNL     1       8.699  12.395  17.956  0.00  0.00    +0.000 A 
ENDBRANCH  23  25
ENDBRANCH  20  21
ENDBRANCH   3  20
TORSDOF 5
ENDMDL
MODEL 3
REMARK VINA RESULT:      -7.8      4.498      7.827
REMARK  Name = 
REMARK  7 active torsions:
REMARK  status: ('A' for Active; 'I' for Inactive)
REMARK    1  A    between atoms: C_1  and  C_2
REMARK    2  A    between atoms: C_7  and  C_8
REMARK    3  A    between atoms: C_13  and  C_14
REMARK    4  A    between atoms: N_16  and  C_17
REMARK    5  A    between atoms: N_16  and  C_18
REMARK    6  A    between atoms: C_18  and  C_19
REMARK    7  A    between atoms: N_21  and  C_22
REMARK                            x       y       z     vdW  Elec       q    Type
REMARK                         _______ _______ _______ _____ _____    ______ ____
ROOT
ATOM      1  C   UNL     1       0.011  11.385  21.890  0.00  0.00    +0.000 C 
ATOM      2  O   UNL     1      -0.222  11.124  23.074  0.00  0.00    +0.000 OA
ATOM      3  N   UNL     1       0.839  10.552  21.156  0.00  0.00    +0.000 N 
ATOM      4  C   UNL     1       1.149  10.655  19.733  0.00  0.00    +0.000 C 
ENDROOT
BRANCH   1  10
ATOM      5  C   UNL     1      -3.916  14.212  23.488  0.00  0.00    +0.000 C 
ATOM      6  O   UNL     1      -3.722  15.174  24.230  0.00  0.00    +0.000 OA
ATOM      7  N   UNL     1      -2.849  13.520  22.879  0.00  0.00    +0.000 N 
ATOM      8  C   UNL     1      -1.480  13.804  23.321  0.00  0.00    +0.000 C 
ATOM      9  C   UNL     1      -0.509  13.877  22.136  0.00  0.00    +0.000 C 
ATOM     10  C   UNL     1      -0.587  12.636  21.222  0.00  0.00    +0.000 C 
ATOM     11  C   UNL     1      -2.041  12.463  20.793  0.00  0.00    +0.000 C 
ATOM     12  C   UNL     1      -2.980  12.384  21.977  0.00  0.00    +0.000 C 
BRANCH   5  19
ATOM     13  C   UNL     1      -5.540  15.287  21.142  0.00  0.00    +0.000 C 
ATOM     14  C   UNL     1      -6.057  14.244  22.095  0.00  0.00    +0.000 A 
ATOM     15  C   UNL     1      -7.354  13.740  21.871  0.00  0.00    +0.000 A 
ATOM     16  C   UNL     1      -7.914  12.781  22.713  0.00  0.00    +0.000 A 
ATOM     17  C   UNL     1      -7.231  12.384  23.851  0.00  0.00    +0.000 A 
ATOM     18  C   UNL     1      -5.990  12.946  24.138  0.00  0.00    +0.000 A 
ATOM     19  C   UNL     1      -5.338  13.796  23.225  0.00  0.00    +0.000 A 
ENDBRANCH   5  19
ENDBRANCH   1  10
BRANCH   3  20
ATOM     20  C   UNL     1       1.419   9.398  21.852  0.00  0.00    +0.000 C 
BRANCH  20  21
ATOM     21  C   UNL     1       1.030   8.077  21.200  0.00  0.00    +0.000 C 
ATOM     22  O   UNL     1      -0.164   7.756  21.156  0.00  0.00    +0.000 OA
ATOM     23  N   UNL     1       2.086   7.275  20.785  0.00  0.00    +0.000 N 
ATOM     24  H   UNL     1       3.000   7.503  21.175  0.00  0.00    +0.000 HD
BRANCH  23  25
ATOM     25  C   UNL     1       1.934   6.035  20.130  0.00  0.00    +0.000 A 
ATOM     26  C   UNL     1       1.307   4.929  20.735  0.00  0.00    +0.000 A 
ATOM     27  C   UNL     1       1.294   3.678  20.119  0.00  0.00    +0.000 A 
ATOM     28  C   UNL     1       1.883   3.516  18.872  0.00  0.00    +0.000 A 
ATOM     29  C   UNL     1       2.427   4.622  18.230  0.00  0.00    +0.000 A 
ATOM     30  F   UNL     1       2.968   4.470  17.014  0.00  0.00    +0.000 F 
ATOM     31  C   UNL     1       2.446   5.874  18.841  0.00  0.00    +0.000 A 
ENDBRANCH  23  25
ENDBRANCH  20  21
ENDBRANCH   3  20
TORSDOF 5
ENDMDL
MODEL 4
REMARK VINA RESULT:      -7.8      5.879      8.252
REMARK  Name = 
REMARK  7 active torsions:
REMARK  status: ('A' for Active; 'I' for Inactive)
REMARK    1  A    between atoms: C_1  and  C_2
REMARK    2  A    between atoms: C_7  and  C_8
REMARK    3  A    between atoms: C_13  and  C_14
REMARK    4  A    between atoms: N_16  and  C_17
REMARK    5  A    between atoms: N_16  and  C_18
REMARK    6  A    between atoms: C_18  and  C_19
REMARK    7  A    between atoms: N_21  and  C_22
REMARK                            x       y       z     vdW  Elec       q    Type
REMARK                         _______ _______ _______ _____ _____    ______ ____
ROOT
ATOM      1  C   UNL     1       7.519   7.307  17.630  0.00  0.00    +0.000 C 
ATOM      2  O   UNL     1       6.804   7.436  16.632  0.00  0.00    +0.000 OA
ATOM      3  N   UNL     1       8.133   8.420  18.181  0.00  0.00    +0.000 N 
ATOM      4  C   UNL     1       8.931   8.469  19.401  0.00  0.00    +0.000 C 
ENDROOT
BRANCH   1  10
ATOM      5  C   UNL     1       4.213   3.454  18.065  0.00  0.00    +0.000 C 
ATOM      6  O   UNL     1       4.133   2.607  17.176  0.00  0.00    +0.000 OA
ATOM      7  N   UNL     1       5.235   4.426  18.071  0.00  0.00    +0.000 N 
ATOM      8  C   UNL     1       6.074   4.575  16.877  0.00  0.00    +0.000 C 
ATOM      9  C   UNL     1       7.549   4.780  17.247  0.00  0.00    +0.000 C 
ATOM     10  C   UNL     1       7.758   5.925  18.261  0.00  0.00    +0.000 C 
ATOM     11  C   UNL     1       6.871   5.643  19.471  0.00  0.00    +0.000 C 
ATOM     12  C   UNL     1       5.421   5.455  19.085  0.00  0.00    +0.000 C 
BRANCH   5  19
ATOM     13  C   UNL     1       1.484   4.795  17.839  0.00  0.00    +0.000 C 
ATOM     14  C   UNL     1       1.908   3.980  19.030  0.00  0.00    +0.000 A 
ATOM     15  C   UNL     1       0.979   3.829  20.081  0.00  0.00    +0.000 A 
ATOM     16  C   UNL     1       1.296   3.100  21.226  0.00  0.00    +0.000 A 
ATOM     17  C   UNL     1       2.576   2.597  21.389  0.00  0.00    +0.000 A 
ATOM     18  C   UNL     1       3.532   2.823  20.402  0.00  0.00    +0.000 A 
ATOM     19  C   UNL     1       3.195   3.418  19.172  0.00  0.00    +0.000 A 
ENDBRANCH   5  19
ENDBRANCH   1  10
BRANCH   3  20
ATOM     20  C   UNL     1       7.908   9.709  17.515  0.00  0.00    +0.000 C 
BRANCH  20  21
ATOM     21  C   UNL     1       8.937  10.756  17.924  0.00  0.00    +0.000 C 
ATOM     22  O   UNL     1      10.117  10.605  17.582  0.00  0.00    +0.000 OA
ATOM     23  N   UNL     1       8.472  11.768  18.754  0.00  0.00    +0.000 N 
ATOM     24  H   UNL     1       7.583  11.590  19.219  0.00  0.00    +0.000 HD
BRANCH  23  25
ATOM     25  C   UNL     1       9.258  12.846  19.212  0.00  0.00    +0.000 A 
ATOM     26  C   UNL     1       9.814  12.883  20.505  0.00  0.00    +0.000 A 
ATOM     27  C   UNL     1      10.468  14.020  20.978  0.00  0.00    +0.000 A 
ATOM     28  C   UNL     1      10.605  15.131  20.157  0.00  0.00    +0.000 A 
ATOM     29  C   UNL     1      10.135  15.070  18.851  0.00  0.00    +0.000 A 
ATOM     30  F   UNL     1      10.294  16.133  18.049  0.00  0.00    +0.000 F 
ATOM     31  C   UNL     1       9.478  13.939  18.372  0.00  0.00    +0.000 A 
ENDBRANCH  23  25
ENDBRANCH  20  21
ENDBRANCH   3  20
TORSDOF 5
ENDMDL
MODEL 5
REMARK VINA RESULT:      -7.7      5.976      8.230
REMARK  Name = 
REMARK  7 active torsions:
REMARK  status: ('A' for Active; 'I' for Inactive)
REMARK    1  A    between atoms: C_1  and  C_2
REMARK    2  A    between atoms: C_7  and  C_8
REMARK    3  A    between atoms: C_13  and  C_14
REMARK    4  A    between atoms: N_16  and  C_17
REMARK    5  A    between atoms: N_16  and  C_18
REMARK    6  A    between atoms: C_18  and  C_19
REMARK    7  A    between atoms: N_21  and  C_22
REMARK                            x       y       z     vdW  Elec       q    Type
REMARK                         _______ _______ _______ _____ _____    ______ ____
ROOT
ATOM      1  C   UNL     1       7.487   7.286  17.605  0.00  0.00    +0.000 C 
ATOM      2  O   UNL     1       6.772   7.396  16.604  0.00  0.00    +0.000 OA
ATOM      3  N   UNL     1       8.093   8.411  18.139  0.00  0.00    +0.000 N 
ATOM      4  C   UNL     1       8.890   8.483  19.359  0.00  0.00    +0.000 C 
ENDROOT
BRANCH   1  10
ATOM      5  C   UNL     1       4.209   3.414  18.079  0.00  0.00    +0.000 C 
ATOM      6  O   UNL     1       4.139   2.554  17.202  0.00  0.00    +0.000 OA
ATOM      7  N   UNL     1       5.223   4.394  18.076  0.00  0.00    +0.000 N 
ATOM      8  C   UNL     1       6.067   4.532  16.884  0.00  0.00    +0.000 C 
ATOM      9  C   UNL     1       7.538   4.754  17.258  0.00  0.00    +0.000 C 
ATOM     10  C   UNL     1       7.733   5.915  18.257  0.00  0.00    +0.000 C 
ATOM     11  C   UNL     1       6.842   5.644  19.466  0.00  0.00    +0.000 C 
ATOM     12  C   UNL     1       5.395   5.439  19.075  0.00  0.00    +0.000 C 
BRANCH   5  19
ATOM     13  C   UNL     1       1.472   4.735  17.821  0.00  0.00    +0.000 C 
ATOM     14  C   UNL     1       1.895   3.938  19.026  0.00  0.00    +0.000 A 
ATOM     15  C   UNL     1       0.962   3.795  20.074  0.00  0.00    +0.000 A 
ATOM     16  C   UNL     1       1.278   3.084  21.231  0.00  0.00    +0.000 A 
ATOM     17  C   UNL     1       2.560   2.591  21.406  0.00  0.00    +0.000 A 
ATOM     18  C   UNL     1       3.520   2.810  20.421  0.00  0.00    +0.000 A 
ATOM     19  C   UNL     1       3.185   3.386  19.182  0.00  0.00    +0.000 A 
ENDBRANCH   5  19
ENDBRANCH   1  10
BRANCH   3  20
ATOM     20  C   UNL     1       7.861   9.689  17.453  0.00  0.00    +0.000 C 
BRANCH  20  21
ATOM     21  C   UNL     1       8.881  10.749  17.851  0.00  0.00    +0.000 C 
ATOM     22  O   UNL     1      10.087  10.494  17.745  0.00  0.00    +0.000 OA
ATOM     23  N   UNL     1       8.358  11.909  18.410  0.00  0.00    +0.000 N 
ATOM     24  H   UNL     1       7.396  11.850  18.740  0.00  0.00    +0.000 HD
BRANCH  23  25
ATOM     25  C   UNL     1       9.133  13.018  18.809  0.00  0.00    +0.000 A 
ATOM     26  C   UNL     1       9.689  13.926  17.888  0.00  0.00    +0.000 A 
ATOM     27  C   UNL     1      10.563  14.931  18.300  0.00  0.00    +0.000 A 
ATOM     28  C   UNL     1      10.875  15.066  19.646  0.00  0.00    +0.000 A 
ATOM     29  C   UNL     1      10.263  14.229  20.571  0.00  0.00    +0.000 A 
ATOM     30  F   UNL     1      10.543  14.380  21.873  0.00  0.00    +0.000 F 
ATOM     31  C   UNL     1       9.391  13.221  20.166  0.00  0.00    +0.000 A 
ENDBRANCH  23  25
ENDBRANCH  20  21
ENDBRANCH   3  20
TORSDOF 5
ENDMDL
MODEL 6
REMARK VINA RESULT:      -7.7      5.610      7.932
REMARK  Name = 
REMARK  7 active torsions:
REMARK  status: ('A' for Active; 'I' for Inactive)
REMARK    1  A    between atoms: C_1  and  C_2
REMARK    2  A    between atoms: C_7  and  C_8
REMARK    3  A    between atoms: C_13  and  C_14
REMARK    4  A    between atoms: N_16  and  C_17
REMARK    5  A    between atoms: N_16  and  C_18
REMARK    6  A    between atoms: C_18  and  C_19
REMARK    7  A    between atoms: N_21  and  C_22
REMARK                            x       y       z     vdW  Elec       q    Type
REMARK                         _______ _______ _______ _____ _____    ______ ____
ROOT
ATOM      1  C   UNL     1       7.063   6.703  17.032  0.00  0.00    +0.000 C 
ATOM      2  O   UNL     1       6.384   7.167  16.111  0.00  0.00    +0.000 OA
ATOM      3  N   UNL     1       7.770   7.559  17.860  0.00  0.00    +0.000 N 
ATOM      4  C   UNL     1       8.546   7.195  19.042  0.00  0.00    +0.000 C 
ENDROOT
BRANCH   1  10
ATOM      5  C   UNL     1       3.235   3.401  17.676  0.00  0.00    +0.000 C 
ATOM      6  O   UNL     1       2.738   2.835  16.704  0.00  0.00    +0.000 OA
ATOM      7  N   UNL     1       4.408   4.176  17.563  0.00  0.00    +0.000 N 
ATOM      8  C   UNL     1       4.911   4.503  16.224  0.00  0.00    +0.000 C 
ATOM      9  C   UNL     1       6.438   4.385  16.152  0.00  0.00    +0.000 C 
ATOM     10  C   UNL     1       7.154   5.184  17.262  0.00  0.00    +0.000 C 
ATOM     11  C   UNL     1       6.582   4.734  18.603  0.00  0.00    +0.000 C 
ATOM     12  C   UNL     1       5.076   4.869  18.656  0.00  0.00    +0.000 C 
BRANCH   5  19
ATOM     13  C   UNL     1       4.465   1.769  19.939  0.00  0.00    +0.000 C 
ATOM     14  C   UNL     1       3.177   2.534  20.077  0.00  0.00    +0.000 A 
ATOM     15  C   UNL     1       2.525   2.492  21.327  0.00  0.00    +0.000 A 
ATOM     16  C   UNL     1       1.320   3.162  21.538  0.00  0.00    +0.000 A 
ATOM     17  C   UNL     1       0.694   3.799  20.478  0.00  0.00    +0.000 A 
ATOM     18  C   UNL     1       1.279   3.765  19.215  0.00  0.00    +0.000 A 
ATOM     19  C   UNL     1       2.565   3.231  19.013  0.00  0.00    +0.000 A 
ENDBRANCH   5  19
ENDBRANCH   1  10
BRANCH   3  20
ATOM     20  C   UNL     1       7.685   8.995  17.571  0.00  0.00    +0.000 C 
BRANCH  20  21
ATOM     21  C   UNL     1       8.700   9.804  18.369  0.00  0.00    +0.000 C 
ATOM     22  O   UNL     1       9.115   9.355  19.445  0.00  0.00    +0.000 OA
ATOM     23  N   UNL     1       9.007  11.059  17.859  0.00  0.00    +0.000 N 
ATOM     24  H   UNL     1       8.358  11.431  17.167  0.00  0.00    +0.000 HD
BRANCH  23  25
ATOM     25  C   UNL     1       9.946  11.943  18.431  0.00  0.00    +0.000 A 
ATOM     26  C   UNL     1      11.181  11.506  18.947  0.00  0.00    +0.000 A 
ATOM     27  C   UNL     1      12.028  12.378  19.631  0.00  0.00    +0.000 A 
ATOM     28  C   UNL     1      11.670  13.710  19.786  0.00  0.00    +0.000 A 
ATOM     29  C   UNL     1      10.493  14.168  19.205  0.00  0.00    +0.000 A 
ATOM     30  F   UNL     1      10.163  15.460  19.330  0.00  0.00    +0.000 F 
ATOM     31  C   UNL     1       9.641  13.302  18.522  0.00  0.00    +0.000 A 
ENDBRANCH  23  25
ENDBRANCH  20  21
ENDBRANCH   3  20
TORSDOF 5
ENDMDL
MODEL 7
REMARK VINA RESULT:      -7.6      4.866      8.068
REMARK  Name = 
REMARK  7 active torsions:
REMARK  status: ('A' for Active; 'I' for Inactive)
REMARK    1  A    between atoms: C_1  and  C_2
REMARK    2  A    between atoms: C_7  and  C_8
REMARK    3  A    between atoms: C_13  and  C_14
REMARK    4  A    between atoms: N_16  and  C_17
REMARK    5  A    between atoms: N_16  and  C_18
REMARK    6  A    between atoms: C_18  and  C_19
REMARK    7  A    between atoms: N_21  and  C_22
REMARK                            x       y       z     vdW  Elec       q    Type
REMARK                         _______ _______ _______ _____ _____    ______ ____
ROOT
ATOM      1  C   UNL     1      -0.502  11.391  22.562  0.00  0.00    +0.000 C 
ATOM      2  O   UNL     1      -1.078  10.797  23.479  0.00  0.00    +0.000 OA
ATOM      3  N   UNL     1       0.550  10.777  21.904  0.00  0.00    +0.000 N 
ATOM      4  C   UNL     1       1.281  11.288  20.748  0.00  0.00    +0.000 C 
ENDROOT
BRANCH   1  10
ATOM      5  C   UNL     1      -5.221  13.277  22.189  0.00  0.00    +0.000 C 
ATOM      6  O   UNL     1      -5.749  13.816  23.161  0.00  0.00    +0.000 OA
ATOM      7  N   UNL     1      -3.860  12.909  22.195  0.00  0.00    +0.000 N 
ATOM      8  C   UNL     1      -3.121  12.957  23.461  0.00  0.00    +0.000 C 
ATOM      9  C   UNL     1      -1.711  13.530  23.269  0.00  0.00    +0.000 C 
ATOM     10  C   UNL     1      -0.921  12.814  22.153  0.00  0.00    +0.000 C 
ATOM     11  C   UNL     1      -1.764  12.861  20.882  0.00  0.00    +0.000 C 
ATOM     12  C   UNL     1      -3.146  12.282  21.091  0.00  0.00    +0.000 C 
BRANCH   5  19
ATOM     13  C   UNL     1      -5.717  15.414  20.071  0.00  0.00    +0.000 C 
ATOM     14  C   UNL     1      -6.231  14.005  19.959  0.00  0.00    +0.000 A 
ATOM     15  C   UNL     1      -6.967  13.669  18.804  0.00  0.00    +0.000 A 
ATOM     16  C   UNL     1      -7.491  12.390  18.626  0.00  0.00    +0.000 A 
ATOM     17  C   UNL     1      -7.378  11.454  19.641  0.00  0.00    +0.000 A 
ATOM     18  C   UNL     1      -6.738  11.802  20.828  0.00  0.00    +0.000 A 
ATOM     19  C   UNL     1      -6.067  13.032  20.969  0.00  0.00    +0.000 A 
ENDBRANCH   5  19
ENDBRANCH   1  10
BRANCH   3  20
ATOM     20  C   UNL     1       0.939   9.438  22.361  0.00  0.00    +0.000 C 
BRANCH  20  21
ATOM     21  C   UNL     1       0.817   8.394  21.258  0.00  0.00    +0.000 C 
ATOM     22  O   UNL     1      -0.213   8.362  20.571  0.00  0.00    +0.000 OA
ATOM     23  N   UNL     1       1.856   7.475  21.178  0.00  0.00    +0.000 N 
ATOM     24  H   UNL     1       2.459   7.411  21.997  0.00  0.00    +0.000 HD
BRANCH  23  25
ATOM     25  C   UNL     1       1.944   6.456  20.206  0.00  0.00    +0.000 A 
ATOM     26  C   UNL     1       2.480   6.677  18.923  0.00  0.00    +0.000 A 
ATOM     27  C   UNL     1       2.427   5.692  17.937  0.00  0.00    +0.000 A 
ATOM     28  C   UNL     1       1.865   4.456  18.225  0.00  0.00    +0.000 A 
ATOM     29  C   UNL     1       1.412   4.201  19.515  0.00  0.00    +0.000 A 
ATOM     30  F   UNL     1       0.896   2.998  19.799  0.00  0.00    +0.000 F 
ATOM     31  C   UNL     1       1.459   5.182  20.503  0.00  0.00    +0.000 A 
ENDBRANCH  23  25
ENDBRANCH  20  21
ENDBRANCH   3  20
TORSDOF 5
ENDMDL
MODEL 8
REMARK VINA RESULT:      -7.6      4.449      7.842
REMARK  Name = 
REMARK  7 active torsions:
REMARK  status: ('A' for Active; 'I' for Inactive)
REMARK    1  A    between atoms: C_1  and  C_2
REMARK    2  A    between atoms: C_7  and  C_8
REMARK    3  A    between atoms: C_13  and  C_14
REMARK    4  A    between atoms: N_16  and  C_17
REMARK    5  A    between atoms: N_16  and  C_18
REMARK    6  A    between atoms: C_18  and  C_19
REMARK    7  A    between atoms: N_21  and  C_22
REMARK                            x       y       z     vdW  Elec       q    Type
REMARK                         _______ _______ _______ _____ _____    ______ ____
ROOT
ATOM      1  C   UNL     1       0.097  11.559  21.529  0.00  0.00    +0.000 C 
ATOM      2  O   UNL     1       0.049  11.476  22.760  0.00  0.00    +0.000 OA
ATOM      3  N   UNL     1       0.782  10.598  20.805  0.00  0.00    +0.000 N 
ATOM      4  C   UNL     1       0.866  10.488  19.352  0.00  0.00    +0.000 C 
ENDROOT
BRANCH   1  10
ATOM      5  C   UNL     1      -3.742  14.498  23.140  0.00  0.00    +0.000 C 
ATOM      6  O   UNL     1      -3.507  15.533  23.762  0.00  0.00    +0.000 OA
ATOM      7  N   UNL     1      -2.714  13.757  22.521  0.00  0.00    +0.000 N 
ATOM      8  C   UNL     1      -1.319  14.098  22.821  0.00  0.00    +0.000 C 
ATOM      9  C   UNL     1      -0.445  14.058  21.561  0.00  0.00    +0.000 C 
ATOM     10  C   UNL     1      -0.573  12.728  20.787  0.00  0.00    +0.000 C 
ATOM     11  C   UNL     1      -2.054  12.499  20.496  0.00  0.00    +0.000 C 
ATOM     12  C   UNL     1      -2.895  12.533  21.753  0.00  0.00    +0.000 C 
BRANCH   5  19
ATOM     13  C   UNL     1      -4.907  12.303  24.908  0.00  0.00    +0.000 C 
ATOM     14  C   UNL     1      -5.721  13.077  23.906  0.00  0.00    +0.000 A 
ATOM     15  C   UNL     1      -7.093  12.767  23.801  0.00  0.00    +0.000 A 
ATOM     16  C   UNL     1      -7.916  13.427  22.891  0.00  0.00    +0.000 A 
ATOM     17  C   UNL     1      -7.366  14.334  21.999  0.00  0.00    +0.000 A 
ATOM     18  C   UNL     1      -5.995  14.577  22.026  0.00  0.00    +0.000 A 
ATOM     19  C   UNL     1      -5.172  14.043  23.035  0.00  0.00    +0.000 A 
ENDBRANCH   5  19
ENDBRANCH   1  10
BRANCH   3  20
ATOM     20  C   UNL     1       1.441   9.528  21.564  0.00  0.00    +0.000 C 
BRANCH  20  21
ATOM     21  C   UNL     1       1.069   8.143  21.049  0.00  0.00    +0.000 C 
ATOM     22  O   UNL     1      -0.111   7.775  21.111  0.00  0.00    +0.000 OA
ATOM     23  N   UNL     1       2.130   7.349  20.632  0.00  0.00    +0.000 N 
ATOM     24  H   UNL     1       3.056   7.644  20.940  0.00  0.00    +0.000 HD
BRANCH  23  25
ATOM     25  C   UNL     1       1.990   6.054  20.091  0.00  0.00    +0.000 A 
ATOM     26  C   UNL     1       1.446   4.981  20.824  0.00  0.00    +0.000 A 
ATOM     27  C   UNL     1       1.448   3.683  20.315  0.00  0.00    +0.000 A 
ATOM     28  C   UNL     1       1.968   3.437  19.051  0.00  0.00    +0.000 A 
ATOM     29  C   UNL     1       2.428   4.503  18.288  0.00  0.00    +0.000 A 
ATOM     30  F   UNL     1       2.902   4.268  17.057  0.00  0.00    +0.000 F 
ATOM     31  C   UNL     1       2.431   5.802  18.791  0.00  0.00    +0.000 A 
ENDBRANCH  23  25
ENDBRANCH  20  21
ENDBRANCH   3  20
TORSDOF 5
ENDMDL
MODEL 9
REMARK VINA RESULT:      -7.6      2.967      4.900
REMARK  Name = 
REMARK  7 active torsions:
REMARK  status: ('A' for Active; 'I' for Inactive)
REMARK    1  A    between atoms: C_1  and  C_2
REMARK    2  A    between atoms: C_7  and  C_8
REMARK    3  A    between atoms: C_13  and  C_14
REMARK    4  A    between atoms: N_16  and  C_17
REMARK    5  A    between atoms: N_16  and  C_18
REMARK    6  A    between atoms: C_18  and  C_19
REMARK    7  A    between atoms: N_21  and  C_22
REMARK                            x       y       z     vdW  Elec       q    Type
REMARK                         _______ _______ _______ _____ _____    ______ ____
ROOT
ATOM      1  C   UNL     1       1.033   9.281  19.766  0.00  0.00    +0.000 C 
ATOM      2  O   UNL     1       0.751   8.957  20.924  0.00  0.00    +0.000 OA
ATOM      3  N   UNL     1       1.832   8.449  18.999  0.00  0.00    +0.000 N 
ATOM      4  C   UNL     1       2.190   8.627  17.595  0.00  0.00    +0.000 C 
ENDROOT
BRANCH   1  10
ATOM      5  C   UNL     1      -0.804  13.334  22.250  0.00  0.00    +0.000 C 
ATOM      6  O   UNL     1      -0.046  14.231  22.612  0.00  0.00    +0.000 OA
ATOM      7  N   UNL     1      -0.368  12.292  21.405  0.00  0.00    +0.000 N 
ATOM      8  C   UNL     1       1.068  12.147  21.146  0.00  0.00    +0.000 C 
ATOM      9  C   UNL     1       1.344  11.817  19.674  0.00  0.00    +0.000 C 
ATOM     10  C   UNL     1       0.530  10.606  19.169  0.00  0.00    +0.000 C 
ATOM     11  C   UNL     1      -0.943  10.885  19.453  0.00  0.00    +0.000 C 
ATOM     12  C   UNL     1      -1.194  11.198  20.912  0.00  0.00    +0.000 C 
BRANCH   5  19
ATOM     13  C   UNL     1      -2.905  15.118  20.943  0.00  0.00    +0.000 C 
ATOM     14  C   UNL     1      -3.214  14.158  22.059  0.00  0.00    +0.000 A 
ATOM     15  C   UNL     1      -4.551  14.083  22.504  0.00  0.00    +0.000 A 
ATOM     16  C   UNL     1      -4.922  13.229  23.541  0.00  0.00    +0.000 A 
ATOM     17  C   UNL     1      -3.951  12.512  24.221  0.00  0.00    +0.000 A 
ATOM     18  C   UNL     1      -2.615  12.650  23.857  0.00  0.00    +0.000 A 
ATOM     19  C   UNL     1      -2.234  13.383  22.717  0.00  0.00    +0.000 A 
ENDBRANCH   5  19
ENDBRANCH   1  10
BRANCH   3  20
ATOM     20  C   UNL     1       2.322   7.218  19.631  0.00  0.00    +0.000 C 
BRANCH  20  21
ATOM     21  C   UNL     1       3.115   6.350  18.662  0.00  0.00    +0.000 C 
ATOM     22  O   UNL     1       2.620   5.288  18.263  0.00  0.00    +0.000 OA
ATOM     23  N   UNL     1       4.403   6.785  18.377  0.00  0.00    +0.000 N 
ATOM     24  H   UNL     1       4.793   7.474  19.018  0.00  0.00    +0.000 HD
BRANCH  23  25
ATOM     25  C   UNL     1       5.280   6.140  17.479  0.00  0.00    +0.000 A 
ATOM     26  C   UNL     1       5.050   6.103  16.091  0.00  0.00    +0.000 A 
ATOM     27  C   UNL     1       5.856   5.342  15.244  0.00  0.00    +0.000 A 
ATOM     28  C   UNL     1       6.926   4.628  15.766  0.00  0.00    +0.000 A 
ATOM     29  C   UNL     1       7.211   4.729  17.123  0.00  0.00    +0.000 A 
ATOM     30  F   UNL     1       8.261   4.063  17.621  0.00  0.00    +0.000 F 
ATOM     31  C   UNL     1       6.408   5.485  17.975  0.00  0.00    +0.000 A 
ENDBRANCH  23  25
ENDBRANCH  20  21
ENDBRANCH   3  20
TORSDOF 5
ENDMDL
