MODEL 1
REMARK VINA RESULT:      -7.6      0.000      0.000
REMARK  Name = 
REMARK  3 active torsions:
REMARK  status: ('A' for Active; 'I' for Inactive)
REMARK    1  A    between atoms: N_1  and  C_2
REMARK    2  A    between atoms: C_5  and  C_6
REMARK    3  A    between atoms: C_9  and  C_10
REMARK                            x       y       z     vdW  Elec       q    Type
REMARK                         _______ _______ _______ _____ _____    ______ ____
ROOT
ATOM      1  C   UNL     1       4.130   4.248  17.168  0.00  0.00    +0.000 A 
ATOM      2  C   UNL     1       3.308   5.259  17.700  0.00  0.00    +0.000 A 
ATOM      3  C   UNL     1       2.295   4.974  18.627  0.00  0.00    +0.000 A 
ATOM      4  C   UNL     1       2.063   3.658  19.039  0.00  0.00    +0.000 A 
ATOM      5  C   UNL     1       2.861   2.653  18.510  0.00  0.00    +0.000 A 
ATOM      6  F   UNL     1       2.662   1.380  18.878  0.00  0.00    +0.000 F 
ATOM      7  C   UNL     1       3.880   2.934  17.598  0.00  0.00    +0.000 A 
ENDROOT
BRANCH   1  11
ATOM      8  C   UNL     1       7.303   5.136  14.350  0.00  0.00    +0.000 A 
ATOM      9  C   UNL     1       6.244   4.307  13.994  0.00  0.00    +0.000 A 
ATOM     10  C   UNL     1       5.225   4.009  14.909  0.00  0.00    +0.000 A 
ATOM     11  C   UNL     1       5.215   4.556  16.204  0.00  0.00    +0.000 A 
ATOM     12  C   UNL     1       6.269   5.428  16.529  0.00  0.00    +0.000 A 
ATOM     13  C   UNL     1       7.281   5.733  15.607  0.00  0.00    +0.000 A 
BRANCH   8  14
ATOM     14  N   UNL     1       8.238   5.541  13.389  0.00  0.00    +0.000 N 
ATOM     15  H   UNL     1       7.901   6.272  12.770  0.00  0.00    +0.000 HD
ATOM     16  H   UNL     1       8.665   4.774  12.881  0.00  0.00    +0.000 HD
ENDBRANCH   8  14
ENDBRANCH   1  11
BRANCH   4  17
ATOM     17  C   UNL     1       0.988   3.305  20.021  0.00  0.00    +0.000 C 
ATOM     18  F   UNL     1       1.464   2.641  21.115  0.00  0.00    +0.000 F 
ATOM     19  F   UNL     1       0.339   4.396  20.513  0.00  0.00    +0.000 F 
ATOM     20  F   UNL     1       0.030   2.494  19.495  0.00  0.00    +0.000 F 
ENDBRANCH   4  17
TORSDOF 3
ENDMDL
MODEL 2
REMARK VINA RESULT:      -7.4      0.077      1.433
REMARK  Name = 
REMARK  3 active torsions:
REMARK  status: ('A' for Active; 'I' for Inactive)
REMARK    1  A    between atoms: N_1  and  C_2
REMARK    2  A    between atoms: C_5  and  C_6
REMARK    3  A    between atoms: C_9  and  C_10
REMARK                            x       y       z     vdW  Elec       q    Type
REMARK                         _______ _______ _______ _____ _____    ______ ____
ROOT
ATOM      1  C   UNL     1       4.111   4.281  17.146  0.00  0.00    +0.000 A 
ATOM      2  C   UNL     1       3.294   5.279  17.711  0.00  0.00    +0.000 A 
ATOM      3  C   UNL     1       2.295   4.972  18.645  0.00  0.00    +0.000 A 
ATOM      4  C   UNL     1       2.070   3.647  19.033  0.00  0.00    +0.000 A 
ATOM      5  C   UNL     1       2.863   2.655  18.471  0.00  0.00    +0.000 A 
ATOM      6  F   UNL     1       2.670   1.374  18.814  0.00  0.00    +0.000 F 
ATOM      7  C   UNL     1       3.869   2.957  17.551  0.00  0.00    +0.000 A 
ENDROOT
BRANCH   1  11
ATOM      8  C   UNL     1       7.234   5.258  14.302  0.00  0.00    +0.000 A 
ATOM      9  C   UNL     1       7.209   5.845  15.564  0.00  0.00    +0.000 A 
ATOM     10  C   UNL     1       6.192   5.538  16.479  0.00  0.00    +0.000 A 
ATOM     11  C   UNL     1       5.181   4.611  16.173  0.00  0.00    +0.000 A 
ATOM     12  C   UNL     1       5.250   3.995  14.911  0.00  0.00    +0.000 A 
ATOM     13  C   UNL     1       6.276   4.295  14.002  0.00  0.00    +0.000 A 
BRANCH   8  14
ATOM     14  N   UNL     1       8.327   5.460  13.451  0.00  0.00    +0.000 N 
ATOM     15  H   UNL     1       8.333   4.853  12.637  0.00  0.00    +0.000 HD
ATOM     16  H   UNL     1       9.223   5.472  13.927  0.00  0.00    +0.000 HD
ENDBRANCH   8  14
ENDBRANCH   1  11
BRANCH   4  17
ATOM     17  C   UNL     1       1.010   3.272  20.022  0.00  0.00    +0.000 C 
ATOM     18  F   UNL     1       0.357   4.354  20.538  0.00  0.00    +0.000 F 
ATOM     19  F   UNL     1       0.038   2.485  19.485  0.00  0.00    +0.000 F 
ATOM     20  F   UNL     1       1.499   2.597  21.098  0.00  0.00    +0.000 F 
ENDBRANCH   4  17
TORSDOF 3
ENDMDL
MODEL 3
REMARK VINA RESULT:      -7.3      1.030      1.439
REMARK  Name = 
REMARK  3 active torsions:
REMARK  status: ('A' for Active; 'I' for Inactive)
REMARK    1  A    between atoms: N_1  and  C_2
REMARK    2  A    between atoms: C_5  and  C_6
REMARK    3  A    between atoms: C_9  and  C_10
REMARK                            x       y       z     vdW  Elec       q    Type
REMARK                         _______ _______ _______ _____ _____    ______ ____
ROOT
ATOM      1  C   UNL     1       4.386   4.233  17.657  0.00  0.00    +0.000 A 
ATOM      2  C   UNL     1       3.101   4.808  17.677  0.00  0.00    +0.000 A 
ATOM      3  C   UNL     1       2.197   4.555  18.718  0.00  0.00    +0.000 A 
ATOM      4  C   UNL     1       2.548   3.703  19.769  0.00  0.00    +0.000 A 
ATOM      5  C   UNL     1       3.810   3.122  19.752  0.00  0.00    +0.000 A 
ATOM      6  F   UNL     1       4.177   2.294  20.739  0.00  0.00    +0.000 F 
ATOM      7  C   UNL     1       4.718   3.382  18.724  0.00  0.00    +0.000 A 
ENDROOT
BRANCH   1  11
ATOM      8  C   UNL     1       7.199   5.057  14.462  0.00  0.00    +0.000 A 
ATOM      9  C   UNL     1       6.036   4.333  14.219  0.00  0.00    +0.000 A 
ATOM     10  C   UNL     1       5.132   4.055  15.254  0.00  0.00    +0.000 A 
ATOM     11  C   UNL     1       5.348   4.519  16.564  0.00  0.00    +0.000 A 
ATOM     12  C   UNL     1       6.506   5.288  16.779  0.00  0.00    +0.000 A 
ATOM     13  C   UNL     1       7.402   5.575  15.738  0.00  0.00    +0.000 A 
BRANCH   8  14
ATOM     14  N   UNL     1       8.021   5.451  13.399  0.00  0.00    +0.000 N 
ATOM     15  H   UNL     1       8.676   6.189  13.636  0.00  0.00    +0.000 HD
ATOM     16  H   UNL     1       7.518   5.645  12.539  0.00  0.00    +0.000 HD
ENDBRANCH   8  14
ENDBRANCH   1  11
BRANCH   4  17
ATOM     17  C   UNL     1       1.613   3.398  20.899  0.00  0.00    +0.000 C 
ATOM     18  F   UNL     1       0.420   4.053  20.793  0.00  0.00    +0.000 F 
ATOM     19  F   UNL     1       1.295   2.077  20.984  0.00  0.00    +0.000 F 
ATOM     20  F   UNL     1       2.112   3.751  22.115  0.00  0.00    +0.000 F 
ENDBRANCH   4  17
TORSDOF 3
ENDMDL
MODEL 4
REMARK VINA RESULT:      -7.3      0.902      1.664
REMARK  Name = 
REMARK  3 active torsions:
REMARK  status: ('A' for Active; 'I' for Inactive)
REMARK    1  A    between atoms: N_1  and  C_2
REMARK    2  A    between atoms: C_5  and  C_6
REMARK    3  A    between atoms: C_9  and  C_10
REMARK                            x       y       z     vdW  Elec       q    Type
REMARK                         _______ _______ _______ _____ _____    ______ ____
ROOT
ATOM      1  C   UNL     1       4.128   4.204  17.299  0.00  0.00    +0.000 A 
ATOM      2  C   UNL     1       3.104   3.285  17.000  0.00  0.00    +0.000 A 
ATOM      3  C   UNL     1       2.078   3.002  17.912  0.00  0.00    +0.000 A 
ATOM      4  C   UNL     1       2.054   3.622  19.166  0.00  0.00    +0.000 A 
ATOM      5  C   UNL     1       3.067   4.520  19.474  0.00  0.00    +0.000 A 
ATOM      6  F   UNL     1       3.080   5.127  20.668  0.00  0.00    +0.000 F 
ATOM      7  C   UNL     1       4.083   4.816  18.563  0.00  0.00    +0.000 A 
ENDROOT
BRANCH   1  11
ATOM      8  C   UNL     1       7.266   5.105  14.445  0.00  0.00    +0.000 A 
ATOM      9  C   UNL     1       6.182   4.310  14.086  0.00  0.00    +0.000 A 
ATOM     10  C   UNL     1       5.173   4.007  15.012  0.00  0.00    +0.000 A 
ATOM     11  C   UNL     1       5.201   4.516  16.322  0.00  0.00    +0.000 A 
ATOM     12  C   UNL     1       6.280   5.356  16.652  0.00  0.00    +0.000 A 
ATOM     13  C   UNL     1       7.281   5.666  15.719  0.00  0.00    +0.000 A 
BRANCH   8  14
ATOM     14  N   UNL     1       8.190   5.518  13.478  0.00  0.00    +0.000 N 
ATOM     15  H   UNL     1       9.071   5.843  13.864  0.00  0.00    +0.000 HD
ATOM     16  H   UNL     1       7.810   6.162  12.793  0.00  0.00    +0.000 HD
ENDBRANCH   8  14
ENDBRANCH   1  11
BRANCH   4  17
ATOM     17  C   UNL     1       0.983   3.345  20.175  0.00  0.00    +0.000 C 
ATOM     18  F   UNL     1       0.356   4.478  20.609  0.00  0.00    +0.000 F 
ATOM     19  F   UNL     1      -0.007   2.545  19.694  0.00  0.00    +0.000 F 
ATOM     20  F   UNL     1       1.453   2.740  21.300  0.00  0.00    +0.000 F 
ENDBRANCH   4  17
TORSDOF 3
ENDMDL
MODEL 5
REMARK VINA RESULT:      -7.2      1.045      1.590
REMARK  Name = 
REMARK  3 active torsions:
REMARK  status: ('A' for Active; 'I' for Inactive)
REMARK    1  A    between atoms: N_1  and  C_2
REMARK    2  A    between atoms: C_5  and  C_6
REMARK    3  A    between atoms: C_9  and  C_10
REMARK                            x       y       z     vdW  Elec       q    Type
REMARK                         _______ _______ _______ _____ _____    ______ ____
ROOT
ATOM      1  C   UNL     1       4.382   4.267  17.659  0.00  0.00    +0.000 A 
ATOM      2  C   UNL     1       3.081   4.805  17.688  0.00  0.00    +0.000 A 
ATOM      3  C   UNL     1       2.192   4.526  18.736  0.00  0.00    +0.000 A 
ATOM      4  C   UNL     1       2.575   3.684  19.784  0.00  0.00    +0.000 A 
ATOM      5  C   UNL     1       3.852   3.140  19.757  0.00  0.00    +0.000 A 
ATOM      6  F   UNL     1       4.250   2.322  20.742  0.00  0.00    +0.000 F 
ATOM      7  C   UNL     1       4.746   3.426  18.724  0.00  0.00    +0.000 A 
ENDROOT
BRANCH   1  11
ATOM      8  C   UNL     1       7.142   5.196  14.446  0.00  0.00    +0.000 A 
ATOM      9  C   UNL     1       7.346   5.696  15.729  0.00  0.00    +0.000 A 
ATOM     10  C   UNL     1       6.447   5.406  16.765  0.00  0.00    +0.000 A 
ATOM     11  C   UNL     1       5.328   4.581  16.560  0.00  0.00    +0.000 A 
ATOM     12  C   UNL     1       5.164   4.049  15.268  0.00  0.00    +0.000 A 
ATOM     13  C   UNL     1       6.072   4.331  14.237  0.00  0.00    +0.000 A 
BRANCH   8  14
ATOM     14  N   UNL     1       8.116   5.371  13.456  0.00  0.00    +0.000 N 
ATOM     15  H   UNL     1       7.736   5.551  12.532  0.00  0.00    +0.000 HD
ATOM     16  H   UNL     1       8.828   4.648  13.446  0.00  0.00    +0.000 HD
ENDBRANCH   8  14
ENDBRANCH   1  11
BRANCH   4  17
ATOM     17  C   UNL     1       1.657   3.352  20.920  0.00  0.00    +0.000 C 
ATOM     18  F   UNL     1       2.157   3.725  22.135  0.00  0.00    +0.000 F 
ATOM     19  F   UNL     1       0.447   3.967  20.822  0.00  0.00    +0.000 F 
ATOM     20  F   UNL     1       1.402   2.019  21.029  0.00  0.00    +0.000 F 
ENDBRANCH   4  17
TORSDOF 3
ENDMDL
MODEL 6
REMARK VINA RESULT:      -7.2      0.890      2.015
REMARK  Name = 
REMARK  3 active torsions:
REMARK  status: ('A' for Active; 'I' for Inactive)
REMARK    1  A    between atoms: N_1  and  C_2
REMARK    2  A    between atoms: C_5  and  C_6
REMARK    3  A    between atoms: C_9  and  C_10
REMARK                            x       y       z     vdW  Elec       q    Type
REMARK                         _______ _______ _______ _____ _____    ______ ____
ROOT
ATOM      1  C   UNL     1       4.107   4.263  17.270  0.00  0.00    +0.000 A 
ATOM      2  C   UNL     1       3.103   3.320  16.976  0.00  0.00    +0.000 A 
ATOM      3  C   UNL     1       2.088   3.015  17.894  0.00  0.00    +0.000 A 
ATOM      4  C   UNL     1       2.056   3.635  19.147  0.00  0.00    +0.000 A 
ATOM      5  C   UNL     1       3.049   4.557  19.449  0.00  0.00    +0.000 A 
ATOM      6  F   UNL     1       3.054   5.165  20.644  0.00  0.00    +0.000 F 
ATOM      7  C   UNL     1       4.054   4.875  18.534  0.00  0.00    +0.000 A 
ENDROOT
BRANCH   1  11
ATOM      8  C   UNL     1       7.202   5.256  14.401  0.00  0.00    +0.000 A 
ATOM      9  C   UNL     1       7.184   5.844  15.663  0.00  0.00    +0.000 A 
ATOM     10  C   UNL     1       6.176   5.533  16.586  0.00  0.00    +0.000 A 
ATOM     11  C   UNL     1       5.168   4.599  16.289  0.00  0.00    +0.000 A 
ATOM     12  C   UNL     1       5.230   3.982  15.026  0.00  0.00    +0.000 A 
ATOM     13  C   UNL     1       6.248   4.287  14.109  0.00  0.00    +0.000 A 
BRANCH   8  14
ATOM     14  N   UNL     1       8.288   5.464  13.541  0.00  0.00    +0.000 N 
ATOM     15  H   UNL     1       9.192   5.400  13.998  0.00  0.00    +0.000 HD
ATOM     16  H   UNL     1       8.205   6.296  12.967  0.00  0.00    +0.000 HD
ENDBRANCH   8  14
ENDBRANCH   1  11
BRANCH   4  17
ATOM     17  C   UNL     1       0.995   3.335  20.161  0.00  0.00    +0.000 C 
ATOM     18  F   UNL     1       0.348   4.454  20.600  0.00  0.00    +0.000 F 
ATOM     19  F   UNL     1       0.019   2.515  19.683  0.00  0.00    +0.000 F 
ATOM     20  F   UNL     1       1.483   2.737  21.283  0.00  0.00    +0.000 F 
ENDBRANCH   4  17
TORSDOF 3
ENDMDL
MODEL 7
REMARK VINA RESULT:      -7.2      0.956      1.602
REMARK  Name = 
REMARK  3 active torsions:
REMARK  status: ('A' for Active; 'I' for Inactive)
REMARK    1  A    between atoms: N_1  and  C_2
REMARK    2  A    between atoms: C_5  and  C_6
REMARK    3  A    between atoms: C_9  and  C_10
REMARK                            x       y       z     vdW  Elec       q    Type
REMARK                         _______ _______ _______ _____ _____    ______ ____
ROOT
ATOM      1  C   UNL     1       4.369   4.127  17.504  0.00  0.00    +0.000 A 
ATOM      2  C   UNL     1       4.765   3.768  18.807  0.00  0.00    +0.000 A 
ATOM      3  C   UNL     1       3.827   3.451  19.801  0.00  0.00    +0.000 A 
ATOM      4  C   UNL     1       2.458   3.498  19.523  0.00  0.00    +0.000 A 
ATOM      5  C   UNL     1       2.059   3.863  18.244  0.00  0.00    +0.000 A 
ATOM      6  F   UNL     1       0.754   3.926  17.945  0.00  0.00    +0.000 F 
ATOM      7  C   UNL     1       2.989   4.166  17.247  0.00  0.00    +0.000 A 
ENDROOT
BRANCH   1  11
ATOM      8  C   UNL     1       7.280   5.036  14.422  0.00  0.00    +0.000 A 
ATOM      9  C   UNL     1       6.124   4.320  14.123  0.00  0.00    +0.000 A 
ATOM     10  C   UNL     1       5.189   4.015  15.122  0.00  0.00    +0.000 A 
ATOM     11  C   UNL     1       5.364   4.442  16.449  0.00  0.00    +0.000 A 
ATOM     12  C   UNL     1       6.515   5.203  16.722  0.00  0.00    +0.000 A 
ATOM     13  C   UNL     1       7.443   5.517  15.717  0.00  0.00    +0.000 A 
BRANCH   8  14
ATOM     14  N   UNL     1       8.135   5.458  13.396  0.00  0.00    +0.000 N 
ATOM     15  H   UNL     1       7.895   6.364  13.008  0.00  0.00    +0.000 HD
ATOM     16  H   UNL     1       8.289   4.760  12.676  0.00  0.00    +0.000 HD
ENDBRANCH   8  14
ENDBRANCH   1  11
BRANCH   4  17
ATOM     17  C   UNL     1       1.421   3.175  20.554  0.00  0.00    +0.000 C 
ATOM     18  F   UNL     1       0.597   4.228  20.828  0.00  0.00    +0.000 F 
ATOM     19  F   UNL     1       0.597   2.159  20.178  0.00  0.00    +0.000 F 
ATOM     20  F   UNL     1       1.954   2.813  21.753  0.00  0.00    +0.000 F 
ENDBRANCH   4  17
TORSDOF 3
ENDMDL
MODEL 8
REMARK VINA RESULT:      -7.2      0.924      1.837
REMARK  Name = 
REMARK  3 active torsions:
REMARK  status: ('A' for Active; 'I' for Inactive)
REMARK    1  A    between atoms: N_1  and  C_2
REMARK    2  A    between atoms: C_5  and  C_6
REMARK    3  A    between atoms: C_9  and  C_10
REMARK                            x       y       z     vdW  Elec       q    Type
REMARK                         _______ _______ _______ _____ _____    ______ ____
ROOT
ATOM      1  C   UNL     1       4.372   4.259  17.597  0.00  0.00    +0.000 A 
ATOM      2  C   UNL     1       3.866   2.967  17.837  0.00  0.00    +0.000 A 
ATOM      3  C   UNL     1       2.933   2.718  18.854  0.00  0.00    +0.000 A 
ATOM      4  C   UNL     1       2.488   3.758  19.676  0.00  0.00    +0.000 A 
ATOM      5  C   UNL     1       2.991   5.034  19.453  0.00  0.00    +0.000 A 
ATOM      6  F   UNL     1       2.592   6.052  20.227  0.00  0.00    +0.000 F 
ATOM      7  C   UNL     1       3.909   5.288  18.433  0.00  0.00    +0.000 A 
ENDROOT
BRANCH   1  11
ATOM      8  C   UNL     1       7.212   5.016  14.409  0.00  0.00    +0.000 A 
ATOM      9  C   UNL     1       6.010   4.363  14.154  0.00  0.00    +0.000 A 
ATOM     10  C   UNL     1       5.097   4.106  15.186  0.00  0.00    +0.000 A 
ATOM     11  C   UNL     1       5.343   4.522  16.506  0.00  0.00    +0.000 A 
ATOM     12  C   UNL     1       6.542   5.221  16.736  0.00  0.00    +0.000 A 
ATOM     13  C   UNL     1       7.448   5.486  15.698  0.00  0.00    +0.000 A 
BRANCH   8  14
ATOM     14  N   UNL     1       8.050   5.393  13.353  0.00  0.00    +0.000 N 
ATOM     15  H   UNL     1       7.668   6.129  12.767  0.00  0.00    +0.000 HD
ATOM     16  H   UNL     1       8.403   4.613  12.808  0.00  0.00    +0.000 HD
ENDBRANCH   8  14
ENDBRANCH   1  11
BRANCH   4  17
ATOM     17  C   UNL     1       1.498   3.539  20.779  0.00  0.00    +0.000 C 
ATOM     18  F   UNL     1       1.023   2.260  20.820  0.00  0.00    +0.000 F 
ATOM     19  F   UNL     1       2.020   3.771  22.014  0.00  0.00    +0.000 F 
ATOM     20  F   UNL     1       0.396   4.331  20.672  0.00  0.00    +0.000 F 
ENDBRANCH   4  17
TORSDOF 3
ENDMDL
MODEL 9
REMARK VINA RESULT:      -7.0      0.907      1.513
REMARK  Name = 
REMARK  3 active torsions:
REMARK  status: ('A' for Active; 'I' for Inactive)
REMARK    1  A    between atoms: N_1  and  C_2
REMARK    2  A    between atoms: C_5  and  C_6
REMARK    3  A    between atoms: C_9  and  C_10
REMARK                            x       y       z     vdW  Elec       q    Type
REMARK                         _______ _______ _______ _____ _____    ______ ____
ROOT
ATOM      1  C   UNL     1       4.351   4.291  17.532  0.00  0.00    +0.000 A 
ATOM      2  C   UNL     1       4.467   4.892  18.800  0.00  0.00    +0.000 A 
ATOM      3  C   UNL     1       3.576   4.595  19.841  0.00  0.00    +0.000 A 
ATOM      4  C   UNL     1       2.526   3.694  19.638  0.00  0.00    +0.000 A 
ATOM      5  C   UNL     1       2.396   3.106  18.386  0.00  0.00    +0.000 A 
ATOM      6  F   UNL     1       1.397   2.244  18.155  0.00  0.00    +0.000 F 
ATOM      7  C   UNL     1       3.290   3.388  17.351  0.00  0.00    +0.000 A 
ENDROOT
BRANCH   1  11
ATOM      8  C   UNL     1       7.145   5.183  14.338  0.00  0.00    +0.000 A 
ATOM      9  C   UNL     1       7.333   5.700  15.616  0.00  0.00    +0.000 A 
ATOM     10  C   UNL     1       6.423   5.423  16.646  0.00  0.00    +0.000 A 
ATOM     11  C   UNL     1       5.308   4.592  16.439  0.00  0.00    +0.000 A 
ATOM     12  C   UNL     1       5.160   4.042  15.153  0.00  0.00    +0.000 A 
ATOM     13  C   UNL     1       6.080   4.312  14.128  0.00  0.00    +0.000 A 
BRANCH   8  14
ATOM     14  N   UNL     1       8.130   5.347  13.357  0.00  0.00    +0.000 N 
ATOM     15  H   UNL     1       7.768   5.367  12.409  0.00  0.00    +0.000 HD
ATOM     16  H   UNL     1       8.917   4.714  13.454  0.00  0.00    +0.000 HD
ENDBRANCH   8  14
ENDBRANCH   1  11
BRANCH   4  17
ATOM     17  C   UNL     1       1.546   3.352  20.718  0.00  0.00    +0.000 C 
ATOM     18  F   UNL     1       1.906   3.845  21.939  0.00  0.00    +0.000 F 
ATOM     19  F   UNL     1       0.300   3.846  20.480  0.00  0.00    +0.000 F 
ATOM     20  F   UNL     1       1.398   2.011  20.900  0.00  0.00    +0.000 F 
ENDBRANCH   4  17
TORSDOF 3
ENDMDL
