MODEL 1
REMARK VINA RESULT:      -7.2      0.000      0.000
REMARK  Name = 
REMARK  3 active torsions:
REMARK  status: ('A' for Active; 'I' for Inactive)
REMARK    1  A    between atoms: C_1  and  C_2
REMARK    2  A    between atoms: C_2  and  C_4
REMARK    3  A    between atoms: C_4  and  N_5
REMARK                            x       y       z     vdW  Elec       q    Type
REMARK                         _______ _______ _______ _____ _____    ______ ____
ROOT
ATOM      1  N   UNL     1       3.453   5.948  18.709  0.00  0.00    +0.000 N 
ATOM      2  C   UNL     1       4.714   6.163  18.150  0.00  0.00    +0.000 C 
ATOM      3  O   UNL     1       4.995   7.238  17.616  0.00  0.00    +0.000 OA
ATOM      4  C   UNL     1       5.697   4.982  18.201  0.00  0.00    +0.000 C 
ATOM      5  C   UNL     1       7.024   5.242  17.471  0.00  0.00    +0.000 C 
ATOM      6  C   UNL     1       7.017   4.314  16.248  0.00  0.00    +0.000 C 
ATOM      7  C   UNL     1       5.561   3.954  16.048  0.00  0.00    +0.000 C 
ATOM      8  N   UNL     1       5.049   3.952  17.397  0.00  0.00    +0.000 N 
ATOM      9  C   UNL     1       3.989   3.174  17.795  0.00  0.00    +0.000 C 
ATOM     10  O   UNL     1       3.516   2.267  17.121  0.00  0.00    +0.000 OA
ATOM     11  C   UNL     1       3.397   3.489  19.113  0.00  0.00    +0.000 A 
ATOM     12  C   UNL     1       3.023   2.417  19.941  0.00  0.00    +0.000 A 
ATOM     13  C   UNL     1       2.408   2.663  21.167  0.00  0.00    +0.000 A 
ATOM     14  C   UNL     1       2.137   3.969  21.560  0.00  0.00    +0.000 A 
ATOM     15  C   UNL     1       2.473   5.036  20.720  0.00  0.00    +0.000 A 
ATOM     16  C   UNL     1       3.114   4.810  19.496  0.00  0.00    +0.000 A 
ENDROOT
BRANCH   1  17
ATOM     17  C   UNL     1       2.350   6.684  18.095  0.00  0.00    +0.000 C 
BRANCH  17  19
ATOM     18  C   UNL     1       2.015   9.217  17.803  0.00  0.00    +0.000 C 
ATOM     19  C   UNL     1       2.061   8.031  18.732  0.00  0.00    +0.000 C 
ATOM     20  O   UNL     1       1.865   8.160  19.941  0.00  0.00    +0.000 OA
ENDBRANCH  17  19
ENDBRANCH   1  17
TORSDOF 2
ENDMDL
MODEL 2
REMARK VINA RESULT:      -7.1      1.714      4.494
REMARK  Name = 
REMARK  3 active torsions:
REMARK  status: ('A' for Active; 'I' for Inactive)
REMARK    1  A    between atoms: C_1  and  C_2
REMARK    2  A    between atoms: C_2  and  C_4
REMARK    3  A    between atoms: C_4  and  N_5
REMARK                            x       y       z     vdW  Elec       q    Type
REMARK                         _______ _______ _______ _____ _____    ______ ____
ROOT
ATOM      1  N   UNL     1       4.451   5.264  18.213  0.00  0.00    +0.000 N 
ATOM      2  C   UNL     1       4.002   6.536  17.854  0.00  0.00    +0.000 C 
ATOM      3  O   UNL     1       4.797   7.416  17.516  0.00  0.00    +0.000 OA
ATOM      4  C   UNL     1       2.487   6.781  17.950  0.00  0.00    +0.000 C 
ATOM      5  C   UNL     1       2.069   8.230  17.653  0.00  0.00    +0.000 C 
ATOM      6  C   UNL     1       1.567   8.803  18.986  0.00  0.00    +0.000 C 
ATOM      7  C   UNL     1       2.158   7.892  20.041  0.00  0.00    +0.000 C 
ATOM      8  N   UNL     1       2.194   6.615  19.370  0.00  0.00    +0.000 N 
ATOM      9  C   UNL     1       2.110   5.416  20.035  0.00  0.00    +0.000 C 
ATOM     10  O   UNL     1       1.789   5.308  21.211  0.00  0.00    +0.000 OA
ATOM     11  C   UNL     1       2.450   4.204  19.257  0.00  0.00    +0.000 A 
ATOM     12  C   UNL     1       1.656   3.060  19.439  0.00  0.00    +0.000 A 
ATOM     13  C   UNL     1       1.971   1.877  18.772  0.00  0.00    +0.000 A 
ATOM     14  C   UNL     1       3.091   1.820  17.950  0.00  0.00    +0.000 A 
ATOM     15  C   UNL     1       3.906   2.946  17.799  0.00  0.00    +0.000 A 
ATOM     16  C   UNL     1       3.591   4.151  18.440  0.00  0.00    +0.000 A 
ENDROOT
BRANCH   1  17
ATOM     17  C   UNL     1       5.787   5.201  18.800  0.00  0.00    +0.000 C 
BRANCH  17  19
ATOM     18  C   UNL     1       6.526   4.745  16.379  0.00  0.00    +0.000 C 
ATOM     19  C   UNL     1       6.871   4.730  17.846  0.00  0.00    +0.000 C 
ATOM     20  O   UNL     1       7.978   4.361  18.237  0.00  0.00    +0.000 OA
ENDBRANCH  17  19
ENDBRANCH   1  17
TORSDOF 2
ENDMDL
MODEL 3
REMARK VINA RESULT:      -6.9      1.920      4.959
REMARK  Name = 
REMARK  3 active torsions:
REMARK  status: ('A' for Active; 'I' for Inactive)
REMARK    1  A    between atoms: C_1  and  C_2
REMARK    2  A    between atoms: C_2  and  C_4
REMARK    3  A    between atoms: C_4  and  N_5
REMARK                            x       y       z     vdW  Elec       q    Type
REMARK                         _______ _______ _______ _____ _____    ______ ____
ROOT
ATOM      1  N   UNL     1       4.664   4.517  18.345  0.00  0.00    +0.000 N 
ATOM      2  C   UNL     1       4.392   3.686  19.433  0.00  0.00    +0.000 C 
ATOM      3  O   UNL     1       5.164   2.775  19.742  0.00  0.00    +0.000 OA
ATOM      4  C   UNL     1       3.072   3.942  20.178  0.00  0.00    +0.000 C 
ATOM      5  C   UNL     1       2.776   2.925  21.291  0.00  0.00    +0.000 C 
ATOM      6  C   UNL     1       1.566   2.114  20.806  0.00  0.00    +0.000 C 
ATOM      7  C   UNL     1       1.533   2.333  19.308  0.00  0.00    +0.000 C 
ATOM      8  N   UNL     1       2.046   3.676  19.176  0.00  0.00    +0.000 N 
ATOM      9  C   UNL     1       1.702   4.511  18.141  0.00  0.00    +0.000 C 
ATOM     10  O   UNL     1       0.784   4.289  17.361  0.00  0.00    +0.000 OA
ATOM     11  C   UNL     1       2.519   5.733  17.979  0.00  0.00    +0.000 A 
ATOM     12  C   UNL     1       1.857   6.930  17.658  0.00  0.00    +0.000 A 
ATOM     13  C   UNL     1       2.590   8.096  17.438  0.00  0.00    +0.000 A 
ATOM     14  C   UNL     1       3.978   8.068  17.506  0.00  0.00    +0.000 A 
ATOM     15  C   UNL     1       4.641   6.869  17.786  0.00  0.00    +0.000 A 
ATOM     16  C   UNL     1       3.921   5.693  18.035  0.00  0.00    +0.000 A 
ENDROOT
BRANCH   1  17
ATOM     17  C   UNL     1       5.439   3.917  17.262  0.00  0.00    +0.000 C 
BRANCH  17  19
ATOM     18  C   UNL     1       7.218   5.035  15.778  0.00  0.00    +0.000 C 
ATOM     19  C   UNL     1       6.851   4.460  17.122  0.00  0.00    +0.000 C 
ATOM     20  O   UNL     1       7.658   4.442  18.051  0.00  0.00    +0.000 OA
ENDBRANCH  17  19
ENDBRANCH   1  17
TORSDOF 2
ENDMDL
MODEL 4
REMARK VINA RESULT:      -6.4      1.202      1.242
REMARK  Name = 
REMARK  3 active torsions:
REMARK  status: ('A' for Active; 'I' for Inactive)
REMARK    1  A    between atoms: C_1  and  C_2
REMARK    2  A    between atoms: C_2  and  C_4
REMARK    3  A    between atoms: C_4  and  N_5
REMARK                            x       y       z     vdW  Elec       q    Type
REMARK                         _______ _______ _______ _____ _____    ______ ____
ROOT
ATOM      1  N   UNL     1       3.685   5.574  19.592  0.00  0.00    +0.000 N 
ATOM      2  C   UNL     1       4.895   5.559  18.896  0.00  0.00    +0.000 C 
ATOM      3  O   UNL     1       5.559   6.589  18.757  0.00  0.00    +0.000 OA
ATOM      4  C   UNL     1       5.317   4.213  18.284  0.00  0.00    +0.000 C 
ATOM      5  C   UNL     1       6.597   4.288  17.436  0.00  0.00    +0.000 C 
ATOM      6  C   UNL     1       6.153   4.043  15.987  0.00  0.00    +0.000 C 
ATOM      7  C   UNL     1       4.667   4.332  15.987  0.00  0.00    +0.000 C 
ATOM      8  N   UNL     1       4.268   3.925  17.312  0.00  0.00    +0.000 N 
ATOM      9  C   UNL     1       3.006   3.470  17.609  0.00  0.00    +0.000 C 
ATOM     10  O   UNL     1       2.173   3.168  16.764  0.00  0.00    +0.000 OA
ATOM     11  C   UNL     1       2.660   3.368  19.044  0.00  0.00    +0.000 A 
ATOM     12  C   UNL     1       1.928   2.247  19.467  0.00  0.00    +0.000 A 
ATOM     13  C   UNL     1       1.529   2.135  20.798  0.00  0.00    +0.000 A 
ATOM     14  C   UNL     1       1.829   3.148  21.701  0.00  0.00    +0.000 A 
ATOM     15  C   UNL     1       2.524   4.284  21.274  0.00  0.00    +0.000 A 
ATOM     16  C   UNL     1       2.955   4.403  19.946  0.00  0.00    +0.000 A 
ENDROOT
BRANCH   1  17
ATOM     17  C   UNL     1       2.944   6.832  19.555  0.00  0.00    +0.000 C 
BRANCH  17  19
ATOM     18  C   UNL     1       2.579   8.591  17.714  0.00  0.00    +0.000 C 
ATOM     19  C   UNL     1       2.362   7.180  18.195  0.00  0.00    +0.000 C 
ATOM     20  O   UNL     1       1.750   6.359  17.512  0.00  0.00    +0.000 OA
ENDBRANCH  17  19
ENDBRANCH   1  17
TORSDOF 2
ENDMDL
MODEL 5
REMARK VINA RESULT:      -6.4      1.926      4.439
REMARK  Name = 
REMARK  3 active torsions:
REMARK  status: ('A' for Active; 'I' for Inactive)
REMARK    1  A    between atoms: C_1  and  C_2
REMARK    2  A    between atoms: C_2  and  C_4
REMARK    3  A    between atoms: C_4  and  N_5
REMARK                            x       y       z     vdW  Elec       q    Type
REMARK                         _______ _______ _______ _____ _____    ______ ____
ROOT
ATOM      1  N   UNL     1       4.301   4.435  18.033  0.00  0.00    +0.000 N 
ATOM      2  C   UNL     1       4.743   3.768  16.890  0.00  0.00    +0.000 C 
ATOM      3  O   UNL     1       5.064   2.578  16.936  0.00  0.00    +0.000 OA
ATOM      4  C   UNL     1       4.847   4.604  15.605  0.00  0.00    +0.000 C 
ATOM      5  C   UNL     1       5.447   3.844  14.412  0.00  0.00    +0.000 C 
ATOM      6  C   UNL     1       6.812   4.493  14.145  0.00  0.00    +0.000 C 
ATOM      7  C   UNL     1       7.152   5.213  15.432  0.00  0.00    +0.000 C 
ATOM      8  N   UNL     1       5.854   5.611  15.922  0.00  0.00    +0.000 N 
ATOM      9  C   UNL     1       5.658   6.720  16.708  0.00  0.00    +0.000 C 
ATOM     10  O   UNL     1       6.505   7.585  16.894  0.00  0.00    +0.000 OA
ATOM     11  C   UNL     1       4.338   6.837  17.367  0.00  0.00    +0.000 A 
ATOM     12  C   UNL     1       3.734   8.105  17.411  0.00  0.00    +0.000 A 
ATOM     13  C   UNL     1       2.518   8.276  18.071  0.00  0.00    +0.000 A 
ATOM     14  C   UNL     1       1.918   7.199  18.713  0.00  0.00    +0.000 A 
ATOM     15  C   UNL     1       2.537   5.945  18.704  0.00  0.00    +0.000 A 
ATOM     16  C   UNL     1       3.746   5.748  18.025  0.00  0.00    +0.000 A 
ENDROOT
BRANCH   1  17
ATOM     17  C   UNL     1       4.835   3.949  19.303  0.00  0.00    +0.000 C 
BRANCH  17  19
ATOM     18  C   UNL     1       2.718   2.530  19.649  0.00  0.00    +0.000 C 
ATOM     19  C   UNL     1       4.213   2.652  19.791  0.00  0.00    +0.000 C 
ATOM     20  O   UNL     1       4.885   1.740  20.273  0.00  0.00    +0.000 OA
ENDBRANCH  17  19
ENDBRANCH   1  17
TORSDOF 2
ENDMDL
MODEL 6
REMARK VINA RESULT:      -6.3      1.923      3.999
REMARK  Name = 
REMARK  3 active torsions:
REMARK  status: ('A' for Active; 'I' for Inactive)
REMARK    1  A    between atoms: C_1  and  C_2
REMARK    2  A    between atoms: C_2  and  C_4
REMARK    3  A    between atoms: C_4  and  N_5
REMARK                            x       y       z     vdW  Elec       q    Type
REMARK                         _______ _______ _______ _____ _____    ______ ____
ROOT
ATOM      1  N   UNL     1       3.366   6.128  18.118  0.00  0.00    +0.000 N 
ATOM      2  C   UNL     1       2.581   5.022  17.787  0.00  0.00    +0.000 C 
ATOM      3  O   UNL     1       1.353   5.112  17.730  0.00  0.00    +0.000 OA
ATOM      4  C   UNL     1       3.326   3.698  17.548  0.00  0.00    +0.000 C 
ATOM      5  C   UNL     1       2.400   2.497  17.301  0.00  0.00    +0.000 C 
ATOM      6  C   UNL     1       2.559   1.588  18.528  0.00  0.00    +0.000 C 
ATOM      7  C   UNL     1       3.136   2.487  19.600  0.00  0.00    +0.000 C 
ATOM      8  N   UNL     1       3.945   3.407  18.837  0.00  0.00    +0.000 N 
ATOM      9  C   UNL     1       5.062   4.022  19.345  0.00  0.00    +0.000 C 
ATOM     10  O   UNL     1       5.599   3.701  20.399  0.00  0.00    +0.000 OA
ATOM     11  C   UNL     1       5.615   5.145  18.557  0.00  0.00    +0.000 A 
ATOM     12  C   UNL     1       7.011   5.242  18.437  0.00  0.00    +0.000 A 
ATOM     13  C   UNL     1       7.581   6.315  17.753  0.00  0.00    +0.000 A 
ATOM     14  C   UNL     1       6.768   7.306  17.215  0.00  0.00    +0.000 A 
ATOM     15  C   UNL     1       5.380   7.233  17.367  0.00  0.00    +0.000 A 
ATOM     16  C   UNL     1       4.788   6.149  18.029  0.00  0.00    +0.000 A 
ENDROOT
BRANCH   1  17
ATOM     17  C   UNL     1       2.740   7.116  18.992  0.00  0.00    +0.000 C 
BRANCH  17  19
ATOM     18  C   UNL     1       1.300   9.245  19.087  0.00  0.00    +0.000 C 
ATOM     19  C   UNL     1       2.165   8.321  18.268  0.00  0.00    +0.000 C 
ATOM     20  O   UNL     1       2.392   8.546  17.079  0.00  0.00    +0.000 OA
ENDBRANCH  17  19
ENDBRANCH   1  17
TORSDOF 2
ENDMDL
MODEL 7
REMARK VINA RESULT:      -6.0      1.976      5.430
REMARK  Name = 
REMARK  3 active torsions:
REMARK  status: ('A' for Active; 'I' for Inactive)
REMARK    1  A    between atoms: C_1  and  C_2
REMARK    2  A    between atoms: C_2  and  C_4
REMARK    3  A    between atoms: C_4  and  N_5
REMARK                            x       y       z     vdW  Elec       q    Type
REMARK                         _______ _______ _______ _____ _____    ______ ____
ROOT
ATOM      1  N   UNL     1       2.520   4.886  18.669  0.00  0.00    +0.000 N 
ATOM      2  C   UNL     1       1.928   5.510  19.769  0.00  0.00    +0.000 C 
ATOM      3  O   UNL     1       0.959   5.003  20.338  0.00  0.00    +0.000 OA
ATOM      4  C   UNL     1       2.519   6.865  20.189  0.00  0.00    +0.000 C 
ATOM      5  C   UNL     1       1.753   7.553  21.330  0.00  0.00    +0.000 C 
ATOM      6  C   UNL     1       1.095   8.792  20.706  0.00  0.00    +0.000 C 
ATOM      7  C   UNL     1       1.080   8.510  19.219  0.00  0.00    +0.000 C 
ATOM      8  N   UNL     1       2.278   7.726  19.035  0.00  0.00    +0.000 N 
ATOM      9  C   UNL     1       2.987   7.705  17.859  0.00  0.00    +0.000 C 
ATOM     10  O   UNL     1       2.806   8.491  16.938  0.00  0.00    +0.000 OA
ATOM     11  C   UNL     1       4.012   6.646  17.724  0.00  0.00    +0.000 A 
ATOM     12  C   UNL     1       5.239   6.988  17.132  0.00  0.00    +0.000 A 
ATOM     13  C   UNL     1       6.213   6.012  16.931  0.00  0.00    +0.000 A 
ATOM     14  C   UNL     1       5.960   4.693  17.288  0.00  0.00    +0.000 A 
ATOM     15  C   UNL     1       4.724   4.342  17.841  0.00  0.00    +0.000 A 
ATOM     16  C   UNL     1       3.742   5.313  18.074  0.00  0.00    +0.000 A 
ENDROOT
BRANCH   1  17
ATOM     17  C   UNL     1       1.635   4.063  17.850  0.00  0.00    +0.000 C 
BRANCH  17  19
ATOM     18  C   UNL     1       2.575   1.884  18.840  0.00  0.00    +0.000 C 
ATOM     19  C   UNL     1       1.368   2.676  18.409  0.00  0.00    +0.000 C 
ATOM     20  O   UNL     1       0.231   2.217  18.516  0.00  0.00    +0.000 OA
ENDBRANCH  17  19
ENDBRANCH   1  17
TORSDOF 2
ENDMDL
MODEL 8
REMARK VINA RESULT:      -6.0      6.795      9.442
REMARK  Name = 
REMARK  3 active torsions:
REMARK  status: ('A' for Active; 'I' for Inactive)
REMARK    1  A    between atoms: C_1  and  C_2
REMARK    2  A    between atoms: C_2  and  C_4
REMARK    3  A    between atoms: C_4  and  N_5
REMARK                            x       y       z     vdW  Elec       q    Type
REMARK                         _______ _______ _______ _____ _____    ______ ____
ROOT
ATOM      1  N   UNL     1       0.198  11.281  18.813  0.00  0.00    +0.000 N 
ATOM      2  C   UNL     1       0.815  12.533  18.834  0.00  0.00    +0.000 C 
ATOM      3  O   UNL     1       2.033  12.635  19.000  0.00  0.00    +0.000 OA
ATOM      4  C   UNL     1      -0.106  13.755  18.686  0.00  0.00    +0.000 C 
ATOM      5  C   UNL     1       0.617  15.103  18.831  0.00  0.00    +0.000 C 
ATOM      6  C   UNL     1       0.103  15.715  20.142  0.00  0.00    +0.000 C 
ATOM      7  C   UNL     1      -0.469  14.545  20.913  0.00  0.00    +0.000 C 
ATOM      8  N   UNL     1      -0.966  13.689  19.863  0.00  0.00    +0.000 N 
ATOM      9  C   UNL     1      -2.023  12.828  20.034  0.00  0.00    +0.000 C 
ATOM     10  O   UNL     1      -2.771  12.850  21.004  0.00  0.00    +0.000 OA
ATOM     11  C   UNL     1      -2.231  11.818  18.974  0.00  0.00    +0.000 A 
ATOM     12  C   UNL     1      -3.550  11.545  18.574  0.00  0.00    +0.000 A 
ATOM     13  C   UNL     1      -3.800  10.560  17.619  0.00  0.00    +0.000 A 
ATOM     14  C   UNL     1      -2.747   9.825  17.086  0.00  0.00    +0.000 A 
ATOM     15  C   UNL     1      -1.438  10.068  17.512  0.00  0.00    +0.000 A 
ATOM     16  C   UNL     1      -1.164  11.071  18.451  0.00  0.00    +0.000 A 
ENDROOT
BRANCH   1  17
ATOM     17  C   UNL     1       0.842  10.239  19.609  0.00  0.00    +0.000 C 
BRANCH  17  19
ATOM     18  C   UNL     1      -0.272   8.895  21.498  0.00  0.00    +0.000 C 
ATOM     19  C   UNL     1       0.382  10.178  21.056  0.00  0.00    +0.000 C 
ATOM     20  O   UNL     1       0.537  11.118  21.836  0.00  0.00    +0.000 OA
ENDBRANCH  17  19
ENDBRANCH   1  17
TORSDOF 2
ENDMDL
MODEL 9
REMARK VINA RESULT:      -6.0      2.009      4.120
REMARK  Name = 
REMARK  3 active torsions:
REMARK  status: ('A' for Active; 'I' for Inactive)
REMARK    1  A    between atoms: C_1  and  C_2
REMARK    2  A    between atoms: C_2  and  C_4
REMARK    3  A    between atoms: C_4  and  N_5
REMARK                            x       y       z     vdW  Elec       q    Type
REMARK                         _______ _______ _______ _____ _____    ______ ____
ROOT
ATOM      1  N   UNL     1       3.265   5.912  17.839  0.00  0.00    +0.000 N 
ATOM      2  C   UNL     1       2.564   4.727  17.609  0.00  0.00    +0.000 C 
ATOM      3  O   UNL     1       1.335   4.728  17.508  0.00  0.00    +0.000 OA
ATOM      4  C   UNL     1       3.399   3.438  17.539  0.00  0.00    +0.000 C 
ATOM      5  C   UNL     1       2.560   2.158  17.400  0.00  0.00    +0.000 C 
ATOM      6  C   UNL     1       2.731   1.399  18.724  0.00  0.00    +0.000 C 
ATOM      7  C   UNL     1       3.212   2.446  19.706  0.00  0.00    +0.000 C 
ATOM      8  N   UNL     1       3.988   3.330  18.870  0.00  0.00    +0.000 N 
ATOM      9  C   UNL     1       5.045   4.069  19.340  0.00  0.00    +0.000 C 
ATOM     10  O   UNL     1       5.563   3.901  20.437  0.00  0.00    +0.000 OA
ATOM     11  C   UNL     1       5.554   5.135  18.449  0.00  0.00    +0.000 A 
ATOM     12  C   UNL     1       6.945   5.311  18.360  0.00  0.00    +0.000 A 
ATOM     13  C   UNL     1       7.469   6.339  17.578  0.00  0.00    +0.000 A 
ATOM     14  C   UNL     1       6.616   7.211  16.911  0.00  0.00    +0.000 A 
ATOM     15  C   UNL     1       5.231   7.062  17.030  0.00  0.00    +0.000 A 
ATOM     16  C   UNL     1       4.685   6.019  17.790  0.00  0.00    +0.000 A 
ENDROOT
BRANCH   1  17
ATOM     17  C   UNL     1       2.546   6.945  18.580  0.00  0.00    +0.000 C 
BRANCH  17  19
ATOM     18  C   UNL     1       1.507   7.624  20.832  0.00  0.00    +0.000 C 
ATOM     19  C   UNL     1       2.245   6.587  20.025  0.00  0.00    +0.000 C 
ATOM     20  O   UNL     1       2.574   5.509  20.520  0.00  0.00    +0.000 OA
ENDBRANCH  17  19
ENDBRANCH   1  17
TORSDOF 2
ENDMDL
