MODEL 1
REMARK VINA RESULT:      -8.3      0.000      0.000
REMARK  Name = 
REMARK  1 active torsions:
REMARK  status: ('A' for Active; 'I' for Inactive)
REMARK    1  A    between atoms: C_7  and  C_8
REMARK                            x       y       z     vdW  Elec       q    Type
REMARK                         _______ _______ _______ _____ _____    ______ ____
ROOT
ATOM      1  C   UNL     1       5.442   4.459  17.966  0.00  0.00    +0.000 A 
ATOM      2  C   UNL     1       6.127   5.163  18.965  0.00  0.00    +0.000 A 
ATOM      3  C   UNL     1       7.251   5.905  18.634  0.00  0.00    +0.000 A 
ATOM      4  N   UNL     1       7.756   6.051  17.393  0.00  0.00    +0.000 NA
ATOM      5  C   UNL     1       7.048   5.394  16.458  0.00  0.00    +0.000 A 
ATOM      6  N   UNL     1       7.354   5.417  15.126  0.00  0.00    +0.000 N 
ATOM      7  C   UNL     1       6.453   4.656  14.429  0.00  0.00    +0.000 A 
ATOM      8  C   UNL     1       5.566   4.123  15.340  0.00  0.00    +0.000 A 
ATOM      9  C   UNL     1       5.919   4.598  16.640  0.00  0.00    +0.000 A 
ATOM     10  H   UNL     1       8.133   5.930  14.741  0.00  0.00    +0.000 HD
ENDROOT
BRANCH   1  17
ATOM     11  C   UNL     1       1.648   5.082  20.522  0.00  0.00    +0.000 A 
ATOM     12  C   UNL     1       0.756   3.937  20.480  0.00  0.00    +0.000 A 
ATOM     13  C   UNL     1       1.122   2.868  19.757  0.00  0.00    +0.000 A 
ATOM     14  N   UNL     1       2.325   2.872  19.048  0.00  0.00    +0.000 N 
ATOM     15  N   UNL     1       2.802   1.870  18.267  0.00  0.00    +0.000 NA
ATOM     16  C   UNL     1       3.952   2.338  17.789  0.00  0.00    +0.000 A 
ATOM     17  C   UNL     1       4.275   3.634  18.249  0.00  0.00    +0.000 A 
ATOM     18  C   UNL     1       3.203   3.966  19.062  0.00  0.00    +0.000 A 
ATOM     19  C   UNL     1       2.820   5.090  19.861  0.00  0.00    +0.000 A 
ENDBRANCH   1  17
TORSDOF 1
ENDMDL
MODEL 2
REMARK VINA RESULT:      -8.2      0.589      2.180
REMARK  Name = 
REMARK  1 active torsions:
REMARK  status: ('A' for Active; 'I' for Inactive)
REMARK    1  A    between atoms: C_7  and  C_8
REMARK                            x       y       z     vdW  Elec       q    Type
REMARK                         _______ _______ _______ _____ _____    ______ ____
ROOT
ATOM      1  C   UNL     1       5.087   4.230  17.103  0.00  0.00    +0.000 A 
ATOM      2  C   UNL     1       5.121   4.277  15.703  0.00  0.00    +0.000 A 
ATOM      3  C   UNL     1       6.092   5.033  15.065  0.00  0.00    +0.000 A 
ATOM      4  N   UNL     1       7.069   5.733  15.676  0.00  0.00    +0.000 NA
ATOM      5  C   UNL     1       7.027   5.630  17.016  0.00  0.00    +0.000 A 
ATOM      6  N   UNL     1       7.931   6.231  17.847  0.00  0.00    +0.000 N 
ATOM      7  C   UNL     1       7.627   5.942  19.151  0.00  0.00    +0.000 A 
ATOM      8  C   UNL     1       6.494   5.156  19.150  0.00  0.00    +0.000 A 
ATOM      9  C   UNL     1       6.106   4.930  17.794  0.00  0.00    +0.000 A 
ATOM     10  H   UNL     1       8.700   6.796  17.519  0.00  0.00    +0.000 HD
ENDROOT
BRANCH   1  17
ATOM     11  C   UNL     1       1.823   5.434  20.139  0.00  0.00    +0.000 A 
ATOM     12  C   UNL     1       1.046   4.297  20.597  0.00  0.00    +0.000 A 
ATOM     13  C   UNL     1       1.357   3.079  20.130  0.00  0.00    +0.000 A 
ATOM     14  N   UNL     1       2.394   2.919  19.208  0.00  0.00    +0.000 N 
ATOM     15  N   UNL     1       2.797   1.753  18.645  0.00  0.00    +0.000 NA
ATOM     16  C   UNL     1       3.786   2.102  17.825  0.00  0.00    +0.000 A 
ATOM     17  C   UNL     1       4.076   3.484  17.838  0.00  0.00    +0.000 A 
ATOM     18  C   UNL     1       3.157   3.999  18.739  0.00  0.00    +0.000 A 
ATOM     19  C   UNL     1       2.839   5.291  19.267  0.00  0.00    +0.000 A 
ENDBRANCH   1  17
TORSDOF 1
ENDMDL
MODEL 3
REMARK VINA RESULT:      -8.1      1.230      1.392
REMARK  Name = 
REMARK  1 active torsions:
REMARK  status: ('A' for Active; 'I' for Inactive)
REMARK    1  A    between atoms: C_7  and  C_8
REMARK                            x       y       z     vdW  Elec       q    Type
REMARK                         _______ _______ _______ _____ _____    ______ ____
ROOT
ATOM      1  C   UNL     1       5.823   4.774  18.013  0.00  0.00    +0.000 A 
ATOM      2  C   UNL     1       6.423   5.861  18.663  0.00  0.00    +0.000 A 
ATOM      3  C   UNL     1       7.314   6.667  17.972  0.00  0.00    +0.000 A 
ATOM      4  N   UNL     1       7.655   6.528  16.675  0.00  0.00    +0.000 NA
ATOM      5  C   UNL     1       7.029   5.500  16.076  0.00  0.00    +0.000 A 
ATOM      6  N   UNL     1       7.196   5.180  14.758  0.00  0.00    +0.000 N 
ATOM      7  C   UNL     1       6.428   4.090  14.443  0.00  0.00    +0.000 A 
ATOM      8  C   UNL     1       5.773   3.697  15.592  0.00  0.00    +0.000 A 
ATOM      9  C   UNL     1       6.130   4.597  16.642  0.00  0.00    +0.000 A 
ATOM     10  H   UNL     1       7.799   5.692  14.132  0.00  0.00    +0.000 HD
ENDROOT
BRANCH   1  17
ATOM     11  C   UNL     1       1.268   4.075  17.736  0.00  0.00    +0.000 A 
ATOM     12  C   UNL     1       0.812   3.030  18.634  0.00  0.00    +0.000 A 
ATOM     13  C   UNL     1       1.713   2.426  19.423  0.00  0.00    +0.000 A 
ATOM     14  N   UNL     1       3.061   2.785  19.360  0.00  0.00    +0.000 N 
ATOM     15  N   UNL     1       4.072   2.244  20.085  0.00  0.00    +0.000 NA
ATOM     16  C   UNL     1       5.161   2.885  19.668  0.00  0.00    +0.000 A 
ATOM     17  C   UNL     1       4.904   3.868  18.687  0.00  0.00    +0.000 A 
ATOM     18  C   UNL     1       3.534   3.784  18.496  0.00  0.00    +0.000 A 
ATOM     19  C   UNL     1       2.561   4.447  17.682  0.00  0.00    +0.000 A 
ENDBRANCH   1  17
TORSDOF 1
ENDMDL
MODEL 4
REMARK VINA RESULT:      -7.9      1.101      1.272
REMARK  Name = 
REMARK  1 active torsions:
REMARK  status: ('A' for Active; 'I' for Inactive)
REMARK    1  A    between atoms: C_7  and  C_8
REMARK                            x       y       z     vdW  Elec       q    Type
REMARK                         _______ _______ _______ _____ _____    ______ ____
ROOT
ATOM      1  C   UNL     1       5.008   4.677  18.049  0.00  0.00    +0.000 A 
ATOM      2  C   UNL     1       5.740   5.218  19.114  0.00  0.00    +0.000 A 
ATOM      3  C   UNL     1       7.075   5.549  18.931  0.00  0.00    +0.000 A 
ATOM      4  N   UNL     1       7.761   5.429  17.777  0.00  0.00    +0.000 NA
ATOM      5  C   UNL     1       7.013   4.946  16.770  0.00  0.00    +0.000 A 
ATOM      6  N   UNL     1       7.485   4.763  15.500  0.00  0.00    +0.000 N 
ATOM      7  C   UNL     1       6.491   4.260  14.702  0.00  0.00    +0.000 A 
ATOM      8  C   UNL     1       5.368   4.102  15.487  0.00  0.00    +0.000 A 
ATOM      9  C   UNL     1       5.676   4.553  16.807  0.00  0.00    +0.000 A 
ATOM     10  H   UNL     1       8.431   4.979  15.220  0.00  0.00    +0.000 HD
ENDROOT
BRANCH   1  17
ATOM     11  C   UNL     1       2.513   2.924  21.516  0.00  0.00    +0.000 A 
ATOM     12  C   UNL     1       1.130   2.692  21.142  0.00  0.00    +0.000 A 
ATOM     13  C   UNL     1       0.750   2.976  19.887  0.00  0.00    +0.000 A 
ATOM     14  N   UNL     1       1.665   3.504  18.974  0.00  0.00    +0.000 N 
ATOM     15  N   UNL     1       1.409   3.852  17.688  0.00  0.00    +0.000 NA
ATOM     16  C   UNL     1       2.568   4.321  17.232  0.00  0.00    +0.000 A 
ATOM     17  C   UNL     1       3.614   4.277  18.180  0.00  0.00    +0.000 A 
ATOM     18  C   UNL     1       3.006   3.748  19.308  0.00  0.00    +0.000 A 
ATOM     19  C   UNL     1       3.411   3.411  20.639  0.00  0.00    +0.000 A 
ENDBRANCH   1  17
TORSDOF 1
ENDMDL
MODEL 5
REMARK VINA RESULT:      -7.8      1.491      2.025
REMARK  Name = 
REMARK  1 active torsions:
REMARK  status: ('A' for Active; 'I' for Inactive)
REMARK    1  A    between atoms: C_7  and  C_8
REMARK                            x       y       z     vdW  Elec       q    Type
REMARK                         _______ _______ _______ _____ _____    ______ ____
ROOT
ATOM      1  C   UNL     1       5.434   5.089  18.143  0.00  0.00    +0.000 A 
ATOM      2  C   UNL     1       6.601   5.181  18.912  0.00  0.00    +0.000 A 
ATOM      3  C   UNL     1       7.829   4.900  18.332  0.00  0.00    +0.000 A 
ATOM      4  N   UNL     1       8.028   4.563  17.042  0.00  0.00    +0.000 NA
ATOM      5  C   UNL     1       6.889   4.525  16.328  0.00  0.00    +0.000 A 
ATOM      6  N   UNL     1       6.845   4.234  14.993  0.00  0.00    +0.000 N 
ATOM      7  C   UNL     1       5.549   4.273  14.552  0.00  0.00    +0.000 A 
ATOM      8  C   UNL     1       4.750   4.578  15.634  0.00  0.00    +0.000 A 
ATOM      9  C   UNL     1       5.590   4.761  16.774  0.00  0.00    +0.000 A 
ATOM     10  H   UNL     1       7.664   4.027  14.441  0.00  0.00    +0.000 HD
ENDROOT
BRANCH   1  17
ATOM     11  C   UNL     1       2.550   2.593  20.745  0.00  0.00    +0.000 A 
ATOM     12  C   UNL     1       1.318   3.301  21.043  0.00  0.00    +0.000 A 
ATOM     13  C   UNL     1       1.149   4.533  20.539  0.00  0.00    +0.000 A 
ATOM     14  N   UNL     1       2.150   5.122  19.762  0.00  0.00    +0.000 N 
ATOM     15  N   UNL     1       2.116   6.360  19.211  0.00  0.00    +0.000 NA
ATOM     16  C   UNL     1       3.288   6.482  18.592  0.00  0.00    +0.000 A 
ATOM     17  C   UNL     1       4.109   5.339  18.695  0.00  0.00    +0.000 A 
ATOM     18  C   UNL     1       3.355   4.467  19.465  0.00  0.00    +0.000 A 
ATOM     19  C   UNL     1       3.513   3.140  19.980  0.00  0.00    +0.000 A 
ENDBRANCH   1  17
TORSDOF 1
ENDMDL
MODEL 6
REMARK VINA RESULT:      -7.7      1.470      5.807
REMARK  Name = 
REMARK  1 active torsions:
REMARK  status: ('A' for Active; 'I' for Inactive)
REMARK    1  A    between atoms: C_7  and  C_8
REMARK                            x       y       z     vdW  Elec       q    Type
REMARK                         _______ _______ _______ _____ _____    ______ ____
ROOT
ATOM      1  C   UNL     1       3.793   4.104  18.011  0.00  0.00    +0.000 A 
ATOM      2  C   UNL     1       3.812   2.795  17.514  0.00  0.00    +0.000 A 
ATOM      3  C   UNL     1       2.978   1.837  18.070  0.00  0.00    +0.000 A 
ATOM      4  N   UNL     1       2.090   2.051  19.061  0.00  0.00    +0.000 NA
ATOM      5  C   UNL     1       2.072   3.327  19.483  0.00  0.00    +0.000 A 
ATOM      6  N   UNL     1       1.235   3.787  20.461  0.00  0.00    +0.000 N 
ATOM      7  C   UNL     1       1.452   5.124  20.668  0.00  0.00    +0.000 A 
ATOM      8  C   UNL     1       2.463   5.518  19.817  0.00  0.00    +0.000 A 
ATOM      9  C   UNL     1       2.860   4.388  19.038  0.00  0.00    +0.000 A 
ATOM     10  H   UNL     1       0.563   3.205  20.939  0.00  0.00    +0.000 HD
ENDROOT
BRANCH   1  17
ATOM     11  C   UNL     1       7.758   5.953  19.486  0.00  0.00    +0.000 A 
ATOM     12  C   UNL     1       8.248   6.993  18.600  0.00  0.00    +0.000 A 
ATOM     13  C   UNL     1       7.523   7.305  17.516  0.00  0.00    +0.000 A 
ATOM     14  N   UNL     1       6.335   6.624  17.241  0.00  0.00    +0.000 N 
ATOM     15  N   UNL     1       5.521   6.826  16.175  0.00  0.00    +0.000 NA
ATOM     16  C   UNL     1       4.541   5.938  16.331  0.00  0.00    +0.000 A 
ATOM     17  C   UNL     1       4.665   5.151  17.497  0.00  0.00    +0.000 A 
ATOM     18  C   UNL     1       5.840   5.608  18.073  0.00  0.00    +0.000 A 
ATOM     19  C   UNL     1       6.603   5.305  19.245  0.00  0.00    +0.000 A 
ENDBRANCH   1  17
TORSDOF 1
ENDMDL
MODEL 7
REMARK VINA RESULT:      -7.6      1.478      2.182
REMARK  Name = 
REMARK  1 active torsions:
REMARK  status: ('A' for Active; 'I' for Inactive)
REMARK    1  A    between atoms: C_7  and  C_8
REMARK                            x       y       z     vdW  Elec       q    Type
REMARK                         _______ _______ _______ _____ _____    ______ ____
ROOT
ATOM      1  C   UNL     1       5.118   5.714  17.244  0.00  0.00    +0.000 A 
ATOM      2  C   UNL     1       5.889   6.627  17.976  0.00  0.00    +0.000 A 
ATOM      3  C   UNL     1       7.166   6.949  17.543  0.00  0.00    +0.000 A 
ATOM      4  N   UNL     1       7.757   6.480  16.425  0.00  0.00    +0.000 NA
ATOM      5  C   UNL     1       6.971   5.640  15.729  0.00  0.00    +0.000 A 
ATOM      6  N   UNL     1       7.344   5.061  14.549  0.00  0.00    +0.000 N 
ATOM      7  C   UNL     1       6.334   4.260  14.085  0.00  0.00    +0.000 A 
ATOM      8  C   UNL     1       5.303   4.318  14.999  0.00  0.00    +0.000 A 
ATOM      9  C   UNL     1       5.684   5.209  16.048  0.00  0.00    +0.000 A 
ATOM     10  H   UNL     1       8.237   5.220  14.108  0.00  0.00    +0.000 HD
ENDROOT
BRANCH   1  17
ATOM     11  C   UNL     1       3.270   1.669  18.484  0.00  0.00    +0.000 A 
ATOM     12  C   UNL     1       1.863   1.782  18.820  0.00  0.00    +0.000 A 
ATOM     13  C   UNL     1       1.275   2.984  18.720  0.00  0.00    +0.000 A 
ATOM     14  N   UNL     1       2.013   4.100  18.319  0.00  0.00    +0.000 N 
ATOM     15  N   UNL     1       1.549   5.368  18.195  0.00  0.00    +0.000 NA
ATOM     16  C   UNL     1       2.610   6.076  17.816  0.00  0.00    +0.000 A 
ATOM     17  C   UNL     1       3.783   5.306  17.659  0.00  0.00    +0.000 A 
ATOM     18  C   UNL     1       3.376   4.024  17.996  0.00  0.00    +0.000 A 
ATOM     19  C   UNL     1       3.987   2.732  18.075  0.00  0.00    +0.000 A 
ENDBRANCH   1  17
TORSDOF 1
ENDMDL
MODEL 8
REMARK VINA RESULT:      -7.5      1.364      2.750
REMARK  Name = 
REMARK  1 active torsions:
REMARK  status: ('A' for Active; 'I' for Inactive)
REMARK    1  A    between atoms: C_7  and  C_8
REMARK                            x       y       z     vdW  Elec       q    Type
REMARK                         _______ _______ _______ _____ _____    ______ ____
ROOT
ATOM      1  C   UNL     1       4.762   4.401  17.436  0.00  0.00    +0.000 A 
ATOM      2  C   UNL     1       4.910   3.897  16.137  0.00  0.00    +0.000 A 
ATOM      3  C   UNL     1       6.152   3.936  15.523  0.00  0.00    +0.000 A 
ATOM      4  N   UNL     1       7.288   4.401  16.080  0.00  0.00    +0.000 NA
ATOM      5  C   UNL     1       7.114   4.838  17.339  0.00  0.00    +0.000 A 
ATOM      6  N   UNL     1       8.127   5.329  18.115  0.00  0.00    +0.000 N 
ATOM      7  C   UNL     1       7.639   5.692  19.342  0.00  0.00    +0.000 A 
ATOM      8  C   UNL     1       6.282   5.443  19.341  0.00  0.00    +0.000 A 
ATOM      9  C   UNL     1       5.931   4.880  18.076  0.00  0.00    +0.000 A 
ATOM     10  H   UNL     1       9.084   5.399  17.803  0.00  0.00    +0.000 HD
ENDROOT
BRANCH   1  17
ATOM     11  C   UNL     1       3.156   2.297  21.219  0.00  0.00    +0.000 A 
ATOM     12  C   UNL     1       1.779   2.653  21.509  0.00  0.00    +0.000 A 
ATOM     13  C   UNL     1       1.147   3.495  20.678  0.00  0.00    +0.000 A 
ATOM     14  N   UNL     1       1.812   4.029  19.572  0.00  0.00    +0.000 N 
ATOM     15  N   UNL     1       1.299   4.900  18.668  0.00  0.00    +0.000 NA
ATOM     16  C   UNL     1       2.301   5.135  17.825  0.00  0.00    +0.000 A 
ATOM     17  C   UNL     1       3.481   4.421  18.128  0.00  0.00    +0.000 A 
ATOM     18  C   UNL     1       3.145   3.711  19.270  0.00  0.00    +0.000 A 
ATOM     19  C   UNL     1       3.802   2.787  20.144  0.00  0.00    +0.000 A 
ENDBRANCH   1  17
TORSDOF 1
ENDMDL
MODEL 9
REMARK VINA RESULT:      -7.5      1.258      2.394
REMARK  Name = 
REMARK  1 active torsions:
REMARK  status: ('A' for Active; 'I' for Inactive)
REMARK    1  A    between atoms: C_7  and  C_8
REMARK                            x       y       z     vdW  Elec       q    Type
REMARK                         _______ _______ _______ _____ _____    ______ ____
ROOT
ATOM      1  C   UNL     1       5.170   4.309  17.624  0.00  0.00    +0.000 A 
ATOM      2  C   UNL     1       4.719   4.075  16.319  0.00  0.00    +0.000 A 
ATOM      3  C   UNL     1       5.237   4.819  15.270  0.00  0.00    +0.000 A 
ATOM      4  N   UNL     1       6.194   5.763  15.375  0.00  0.00    +0.000 NA
ATOM      5  C   UNL     1       6.630   5.929  16.637  0.00  0.00    +0.000 A 
ATOM      6  N   UNL     1       7.615   6.810  16.985  0.00  0.00    +0.000 N 
ATOM      7  C   UNL     1       7.835   6.751  18.336  0.00  0.00    +0.000 A 
ATOM      8  C   UNL     1       6.959   5.824  18.860  0.00  0.00    +0.000 A 
ATOM      9  C   UNL     1       6.192   5.275  17.788  0.00  0.00    +0.000 A 
ATOM     10  H   UNL     1       8.093   7.402  16.322  0.00  0.00    +0.000 HD
ENDROOT
BRANCH   1  17
ATOM     11  C   UNL     1       1.131   4.391  19.860  0.00  0.00    +0.000 A 
ATOM     12  C   UNL     1       1.094   3.460  20.973  0.00  0.00    +0.000 A 
ATOM     13  C   UNL     1       2.188   2.729  21.232  0.00  0.00    +0.000 A 
ATOM     14  N   UNL     1       3.326   2.851  20.432  0.00  0.00    +0.000 N 
ATOM     15  N   UNL     1       4.485   2.162  20.571  0.00  0.00    +0.000 NA
ATOM     16  C   UNL     1       5.255   2.597  19.576  0.00  0.00    +0.000 A 
ATOM     17  C   UNL     1       4.645   3.588  18.776  0.00  0.00    +0.000 A 
ATOM     18  C   UNL     1       3.389   3.736  19.344  0.00  0.00    +0.000 A 
ATOM     19  C   UNL     1       2.229   4.536  19.094  0.00  0.00    +0.000 A 
ENDBRANCH   1  17
TORSDOF 1
ENDMDL
