MODEL 1
REMARK VINA RESULT:      -6.7      0.000      0.000
REMARK  Name = 
REMARK  12 active torsions:
REMARK  status: ('A' for Active; 'I' for Inactive)
REMARK    1  A    between atoms: C_1  and  N_2
REMARK    2  A    between atoms: N_2  and  C_3
REMARK    3  A    between atoms: C_3  and  C_4
REMARK    4  A    between atoms: C_4  and  C_5
REMARK    5  A    between atoms: C_5  and  O_6
REMARK    6  A    between atoms: O_6  and  C_7
REMARK    7  A    between atoms: C_15  and  O_16
REMARK    8  A    between atoms: O_16  and  C_17
REMARK    9  A    between atoms: C_17  and  C_18
REMARK   10  A    between atoms: C_18  and  C_19
REMARK   11  A    between atoms: C_19  and  N_20
REMARK   12  A    between atoms: N_20  and  C_21
REMARK                            x       y       z     vdW  Elec       q    Type
REMARK                         _______ _______ _______ _____ _____    ______ ____
ROOT
ATOM      1  C   UNL     1       0.054  10.798  20.164  0.00  0.00    +0.000 A 
ATOM      2  C   UNL     1      -0.240  10.105  21.354  0.00  0.00    +0.000 A 
ATOM      3  C   UNL     1       0.278   8.834  21.577  0.00  0.00    +0.000 A 
ATOM      4  C   UNL     1       1.095   8.232  20.611  0.00  0.00    +0.000 A 
ATOM      5  C   UNL     1       1.598   6.946  20.810  0.00  0.00    +0.000 A 
ATOM      6  C   UNL     1       2.389   6.354  19.825  0.00  0.00    +0.000 A 
ATOM      7  C   UNL     1       2.876   5.054  19.989  0.00  0.00    +0.000 A 
ATOM      8  C   UNL     1       3.645   4.465  18.988  0.00  0.00    +0.000 A 
ATOM      9  C   UNL     1       3.948   5.176  17.808  0.00  0.00    +0.000 A 
ATOM     10  C   UNL     1       3.470   6.484  17.650  0.00  0.00    +0.000 A 
ATOM     11  C   UNL     1       2.685   7.075  18.648  0.00  0.00    +0.000 A 
ATOM     12  N   UNL     1       2.195   8.333  18.478  0.00  0.00    +0.000 NA
ATOM     13  C   UNL     1       1.406   8.922  19.419  0.00  0.00    +0.000 A 
ATOM     14  C   UNL     1       0.885  10.204  19.204  0.00  0.00    +0.000 A 
ENDROOT
BRANCH   1  15
ATOM     15  O   UNL     1      -0.444  12.030  19.911  0.00  0.00    +0.000 OA
BRANCH  15  16
ATOM     16  C   UNL     1      -1.183  12.390  18.800  0.00  0.00    +0.000 C 
BRANCH  16  17
ATOM     17  C   UNL     1      -2.653  12.032  19.009  0.00  0.00    +0.000 C 
BRANCH  17  18
ATOM     18  C   UNL     1      -3.314  11.496  17.724  0.00  0.00    +0.000 C 
BRANCH  18  20
ATOM     19  C   UNL     1      -2.605  10.454  15.621  0.00  0.00    +0.000 C 
ATOM     20  N   UNL     1      -2.429  11.574  16.550  0.00  0.00    +0.000 NA
ATOM     21  H   UNL     1      -2.640  12.460  16.034  0.00  0.00    +0.000 HD
ENDBRANCH  18  20
ENDBRANCH  17  18
ENDBRANCH  16  17
ENDBRANCH  15  16
ENDBRANCH   1  15
BRANCH   9  22
ATOM     22  O   UNL     1       4.686   4.630  16.810  0.00  0.00    +0.000 OA
BRANCH  22  23
ATOM     23  C   UNL     1       5.349   5.343  15.829  0.00  0.00    +0.000 C 
BRANCH  23  24
ATOM     24  C   UNL     1       6.750   5.712  16.304  0.00  0.00    +0.000 C 
BRANCH  24  25
ATOM     25  C   UNL     1       7.485   4.484  16.851  0.00  0.00    +0.000 C 
BRANCH  25  26
ATOM     26  N   UNL     1       7.377   4.435  18.312  0.00  0.00    +0.000 NA
ATOM     27  C   UNL     1       7.633   5.758  18.881  0.00  0.00    +0.000 C 
ATOM     28  H   UNL     1       8.098   3.774  18.686  0.00  0.00    +0.000 HD
ENDBRANCH  25  26
ENDBRANCH  24  25
ENDBRANCH  23  24
ENDBRANCH  22  23
ENDBRANCH   9  22
TORSDOF 10
ENDMDL
MODEL 2
REMARK VINA RESULT:      -6.4      1.069      1.299
REMARK  Name = 
REMARK  12 active torsions:
REMARK  status: ('A' for Active; 'I' for Inactive)
REMARK    1  A    between atoms: C_1  and  N_2
REMARK    2  A    between atoms: N_2  and  C_3
REMARK    3  A    between atoms: C_3  and  C_4
REMARK    4  A    between atoms: C_4  and  C_5
REMARK    5  A    between atoms: C_5  and  O_6
REMARK    6  A    between atoms: O_6  and  C_7
REMARK    7  A    between atoms: C_15  and  O_16
REMARK    8  A    between atoms: O_16  and  C_17
REMARK    9  A    between atoms: C_17  and  C_18
REMARK   10  A    between atoms: C_18  and  C_19
REMARK   11  A    between atoms: C_19  and  N_20
REMARK   12  A    between atoms: N_20  and  C_21
REMARK                            x       y       z     vdW  Elec       q    Type
REMARK                         _______ _______ _______ _____ _____    ______ ____
ROOT
ATOM      1  C   UNL     1       0.015  10.802  19.773  0.00  0.00    +0.000 A 
ATOM      2  C   UNL     1      -0.458  10.210  20.959  0.00  0.00    +0.000 A 
ATOM      3  C   UNL     1      -0.008   8.953  21.349  0.00  0.00    +0.000 A 
ATOM      4  C   UNL     1       0.919   8.265  20.556  0.00  0.00    +0.000 A 
ATOM      5  C   UNL     1       1.357   6.991  20.921  0.00  0.00    +0.000 A 
ATOM      6  C   UNL     1       2.262   6.312  20.104  0.00  0.00    +0.000 A 
ATOM      7  C   UNL     1       2.688   5.022  20.434  0.00  0.00    +0.000 A 
ATOM      8  C   UNL     1       3.573   4.345  19.599  0.00  0.00    +0.000 A 
ATOM      9  C   UNL     1       4.055   4.955  18.422  0.00  0.00    +0.000 A 
ATOM     10  C   UNL     1       3.637   6.254  18.099  0.00  0.00    +0.000 A 
ATOM     11  C   UNL     1       2.736   6.933  18.929  0.00  0.00    +0.000 A 
ATOM     12  N   UNL     1       2.306   8.181  18.597  0.00  0.00    +0.000 NA
ATOM     13  C   UNL     1       1.410   8.853  19.370  0.00  0.00    +0.000 A 
ATOM     14  C   UNL     1       0.957  10.122  18.987  0.00  0.00    +0.000 A 
ENDROOT
BRANCH   1  15
ATOM     15  O   UNL     1      -0.411  12.017  19.359  0.00  0.00    +0.000 OA
BRANCH  15  16
ATOM     16  C   UNL     1      -1.683  12.317  18.911  0.00  0.00    +0.000 C 
BRANCH  16  17
ATOM     17  C   UNL     1      -1.944  11.632  17.571  0.00  0.00    +0.000 C 
BRANCH  17  18
ATOM     18  C   UNL     1      -3.367  11.046  17.480  0.00  0.00    +0.000 C 
BRANCH  18  20
ATOM     19  C   UNL     1      -5.540  12.068  17.978  0.00  0.00    +0.000 C 
ATOM     20  N   UNL     1      -4.374  12.047  17.089  0.00  0.00    +0.000 NA
ATOM     21  H   UNL     1      -3.929  12.993  17.114  0.00  0.00    +0.000 HD
ENDBRANCH  18  20
ENDBRANCH  17  18
ENDBRANCH  16  17
ENDBRANCH  15  16
ENDBRANCH   1  15
BRANCH   9  22
ATOM     22  O   UNL     1       4.910   4.322  17.582  0.00  0.00    +0.000 OA
BRANCH  22  23
ATOM     23  C   UNL     1       4.714   4.154  16.225  0.00  0.00    +0.000 C 
BRANCH  23  24
ATOM     24  C   UNL     1       6.057   4.045  15.510  0.00  0.00    +0.000 C 
BRANCH  24  25
ATOM     25  C   UNL     1       7.192   4.576  16.391  0.00  0.00    +0.000 C 
BRANCH  25  26
ATOM     26  N   UNL     1       7.363   6.017  16.187  0.00  0.00    +0.000 NA
ATOM     27  C   UNL     1       7.321   6.717  17.471  0.00  0.00    +0.000 C 
ATOM     28  H   UNL     1       6.576   6.374  15.595  0.00  0.00    +0.000 HD
ENDBRANCH  25  26
ENDBRANCH  24  25
ENDBRANCH  23  24
ENDBRANCH  22  23
ENDBRANCH   9  22
TORSDOF 10
ENDMDL
MODEL 3
REMARK VINA RESULT:      -6.4      0.772      8.569
REMARK  Name = 
REMARK  12 active torsions:
REMARK  status: ('A' for Active; 'I' for Inactive)
REMARK    1  A    between atoms: C_1  and  N_2
REMARK    2  A    between atoms: N_2  and  C_3
REMARK    3  A    between atoms: C_3  and  C_4
REMARK    4  A    between atoms: C_4  and  C_5
REMARK    5  A    between atoms: C_5  and  O_6
REMARK    6  A    between atoms: O_6  and  C_7
REMARK    7  A    between atoms: C_15  and  O_16
REMARK    8  A    between atoms: O_16  and  C_17
REMARK    9  A    between atoms: C_17  and  C_18
REMARK   10  A    between atoms: C_18  and  C_19
REMARK   11  A    between atoms: C_19  and  N_20
REMARK   12  A    between atoms: N_20  and  C_21
REMARK                            x       y       z     vdW  Elec       q    Type
REMARK                         _______ _______ _______ _____ _____    ______ ____
ROOT
ATOM      1  C   UNL     1       3.890   4.736  17.758  0.00  0.00    +0.000 A 
ATOM      2  C   UNL     1       3.632   4.061  18.967  0.00  0.00    +0.000 A 
ATOM      3  C   UNL     1       2.921   4.687  19.985  0.00  0.00    +0.000 A 
ATOM      4  C   UNL     1       2.461   5.999  19.814  0.00  0.00    +0.000 A 
ATOM      5  C   UNL     1       1.772   6.647  20.840  0.00  0.00    +0.000 A 
ATOM      6  C   UNL     1       1.343   7.963  20.659  0.00  0.00    +0.000 A 
ATOM      7  C   UNL     1       0.680   8.643  21.686  0.00  0.00    +0.000 A 
ATOM      8  C   UNL     1       0.279   9.963  21.501  0.00  0.00    +0.000 A 
ATOM      9  C   UNL     1       0.527  10.623  20.280  0.00  0.00    +0.000 A 
ATOM     10  C   UNL     1       1.181   9.936  19.247  0.00  0.00    +0.000 A 
ATOM     11  C   UNL     1       1.599   8.612  19.432  0.00  0.00    +0.000 A 
ATOM     12  N   UNL     1       2.261   7.958  18.440  0.00  0.00    +0.000 NA
ATOM     13  C   UNL     1       2.704   6.681  18.603  0.00  0.00    +0.000 A 
ATOM     14  C   UNL     1       3.415   6.043  17.578  0.00  0.00    +0.000 A 
ENDROOT
BRANCH   1  15
ATOM     15  O   UNL     1       4.589   4.161  16.752  0.00  0.00    +0.000 OA
BRANCH  15  16
ATOM     16  C   UNL     1       5.161   4.825  15.684  0.00  0.00    +0.000 C 
BRANCH  16  17
ATOM     17  C   UNL     1       6.449   5.518  16.126  0.00  0.00    +0.000 C 
BRANCH  17  18
ATOM     18  C   UNL     1       7.447   4.540  16.776  0.00  0.00    +0.000 C 
BRANCH  18  20
ATOM     19  C   UNL     1       7.678   5.630  18.960  0.00  0.00    +0.000 C 
ATOM     20  N   UNL     1       7.270   4.424  18.233  0.00  0.00    +0.000 NA
ATOM     21  H   UNL     1       6.257   4.253  18.432  0.00  0.00    +0.000 HD
ENDBRANCH  18  20
ENDBRANCH  17  18
ENDBRANCH  16  17
ENDBRANCH  15  16
ENDBRANCH   1  15
BRANCH   9  22
ATOM     22  O   UNL     1       0.158  11.910  20.070  0.00  0.00    +0.000 OA
BRANCH  22  23
ATOM     23  C   UNL     1      -1.094  12.322  19.656  0.00  0.00    +0.000 C 
BRANCH  23  24
ATOM     24  C   UNL     1      -1.106  12.531  18.145  0.00  0.00    +0.000 C 
BRANCH  24  25
ATOM     25  C   UNL     1      -2.038  11.526  17.461  0.00  0.00    +0.000 C 
BRANCH  25  26
ATOM     26  N   UNL     1      -3.428  11.986  17.540  0.00  0.00    +0.000 NA
ATOM     27  C   UNL     1      -4.298  11.097  16.769  0.00  0.00    +0.000 C 
ATOM     28  H   UNL     1      -3.494  12.946  17.127  0.00  0.00    +0.000 HD
ENDBRANCH  25  26
ENDBRANCH  24  25
ENDBRANCH  23  24
ENDBRANCH  22  23
ENDBRANCH   9  22
TORSDOF 10
ENDMDL
MODEL 4
REMARK VINA RESULT:      -6.3      1.115      8.427
REMARK  Name = 
REMARK  12 active torsions:
REMARK  status: ('A' for Active; 'I' for Inactive)
REMARK    1  A    between atoms: C_1  and  N_2
REMARK    2  A    between atoms: N_2  and  C_3
REMARK    3  A    between atoms: C_3  and  C_4
REMARK    4  A    between atoms: C_4  and  C_5
REMARK    5  A    between atoms: C_5  and  O_6
REMARK    6  A    between atoms: O_6  and  C_7
REMARK    7  A    between atoms: C_15  and  O_16
REMARK    8  A    between atoms: O_16  and  C_17
REMARK    9  A    between atoms: C_17  and  C_18
REMARK   10  A    between atoms: C_18  and  C_19
REMARK   11  A    between atoms: C_19  and  N_20
REMARK   12  A    between atoms: N_20  and  C_21
REMARK                            x       y       z     vdW  Elec       q    Type
REMARK                         _______ _______ _______ _____ _____    ______ ____
ROOT
ATOM      1  C   UNL     1       4.554   4.265  17.384  0.00  0.00    +0.000 A 
ATOM      2  C   UNL     1       4.377   3.619  18.622  0.00  0.00    +0.000 A 
ATOM      3  C   UNL     1       3.639   4.223  19.634  0.00  0.00    +0.000 A 
ATOM      4  C   UNL     1       3.071   5.486  19.427  0.00  0.00    +0.000 A 
ATOM      5  C   UNL     1       2.353   6.116  20.444  0.00  0.00    +0.000 A 
ATOM      6  C   UNL     1       1.815   7.385  20.227  0.00  0.00    +0.000 A 
ATOM      7  C   UNL     1       1.121   8.047  21.243  0.00  0.00    +0.000 A 
ATOM      8  C   UNL     1       0.610   9.324  21.021  0.00  0.00    +0.000 A 
ATOM      9  C   UNL     1       0.778   9.954  19.771  0.00  0.00    +0.000 A 
ATOM     10  C   UNL     1       1.464   9.284  18.748  0.00  0.00    +0.000 A 
ATOM     11  C   UNL     1       1.991   8.006  18.971  0.00  0.00    +0.000 A 
ATOM     12  N   UNL     1       2.684   7.370  17.988  0.00  0.00    +0.000 NA
ATOM     13  C   UNL     1       3.232   6.139  18.186  0.00  0.00    +0.000 A 
ATOM     14  C   UNL     1       3.972   5.523  17.169  0.00  0.00    +0.000 A 
ENDROOT
BRANCH   1  15
ATOM     15  O   UNL     1       5.277   3.711  16.383  0.00  0.00    +0.000 OA
BRANCH  15  16
ATOM     16  C   UNL     1       6.451   4.216  15.859  0.00  0.00    +0.000 C 
BRANCH  16  17
ATOM     17  C   UNL     1       7.379   4.663  16.988  0.00  0.00    +0.000 C 
BRANCH  17  18
ATOM     18  C   UNL     1       7.500   6.197  17.074  0.00  0.00    +0.000 C 
BRANCH  18  20
ATOM     19  C   UNL     1       7.554   5.668  19.468  0.00  0.00    +0.000 C 
ATOM     20  N   UNL     1       7.819   6.671  18.431  0.00  0.00    +0.000 NA
ATOM     21  H   UNL     1       8.835   6.915  18.467  0.00  0.00    +0.000 HD
ENDBRANCH  18  20
ENDBRANCH  17  18
ENDBRANCH  16  17
ENDBRANCH  15  16
ENDBRANCH   1  15
BRANCH   9  22
ATOM     22  O   UNL     1       0.302  11.199  19.524  0.00  0.00    +0.000 OA
BRANCH  22  23
ATOM     23  C   UNL     1      -0.487  11.550  18.445  0.00  0.00    +0.000 C 
BRANCH  23  24
ATOM     24  C   UNL     1      -1.844  10.862  18.540  0.00  0.00    +0.000 C 
BRANCH  24  25
ATOM     25  C   UNL     1      -2.074   9.934  17.344  0.00  0.00    +0.000 C 
BRANCH  25  26
ATOM     26  N   UNL     1      -3.269  10.346  16.602  0.00  0.00    +0.000 NA
ATOM     27  C   UNL     1      -2.954  10.497  15.181  0.00  0.00    +0.000 C 
ATOM     28  H   UNL     1      -3.594  11.273  16.965  0.00  0.00    +0.000 HD
ENDBRANCH  25  26
ENDBRANCH  24  25
ENDBRANCH  23  24
ENDBRANCH  22  23
ENDBRANCH   9  22
TORSDOF 10
ENDMDL
MODEL 5
REMARK VINA RESULT:      -6.3      2.133      3.465
REMARK  Name = 
REMARK  12 active torsions:
REMARK  status: ('A' for Active; 'I' for Inactive)
REMARK    1  A    between atoms: C_1  and  N_2
REMARK    2  A    between atoms: N_2  and  C_3
REMARK    3  A    between atoms: C_3  and  C_4
REMARK    4  A    between atoms: C_4  and  C_5
REMARK    5  A    between atoms: C_5  and  O_6
REMARK    6  A    between atoms: O_6  and  C_7
REMARK    7  A    between atoms: C_15  and  O_16
REMARK    8  A    between atoms: O_16  and  C_17
REMARK    9  A    between atoms: C_17  and  C_18
REMARK   10  A    between atoms: C_18  and  C_19
REMARK   11  A    between atoms: C_19  and  N_20
REMARK   12  A    between atoms: N_20  and  C_21
REMARK                            x       y       z     vdW  Elec       q    Type
REMARK                         _______ _______ _______ _____ _____    ______ ____
ROOT
ATOM      1  C   UNL     1       0.334  10.280  20.100  0.00  0.00    +0.000 A 
ATOM      2  C   UNL     1       0.699  10.812  18.849  0.00  0.00    +0.000 A 
ATOM      3  C   UNL     1       1.553  10.109  18.005  0.00  0.00    +0.000 A 
ATOM      4  C   UNL     1       2.060   8.865  18.402  0.00  0.00    +0.000 A 
ATOM      5  C   UNL     1       2.940   8.163  17.577  0.00  0.00    +0.000 A 
ATOM      6  C   UNL     1       3.455   6.937  18.001  0.00  0.00    +0.000 A 
ATOM      7  C   UNL     1       4.363   6.234  17.205  0.00  0.00    +0.000 A 
ATOM      8  C   UNL     1       4.887   5.023  17.649  0.00  0.00    +0.000 A 
ATOM      9  C   UNL     1       4.501   4.491  18.897  0.00  0.00    +0.000 A 
ATOM     10  C   UNL     1       3.580   5.191  19.689  0.00  0.00    +0.000 A 
ATOM     11  C   UNL     1       3.060   6.416  19.252  0.00  0.00    +0.000 A 
ATOM     12  N   UNL     1       2.191   7.110  20.036  0.00  0.00    +0.000 NA
ATOM     13  C   UNL     1       1.692   8.317  19.649  0.00  0.00    +0.000 A 
ATOM     14  C   UNL     1       0.827   9.027  20.491  0.00  0.00    +0.000 A 
ENDROOT
BRANCH   1  15
ATOM     15  O   UNL     1      -0.484  10.943  20.950  0.00  0.00    +0.000 OA
BRANCH  15  16
ATOM     16  C   UNL     1      -0.407  12.286  21.263  0.00  0.00    +0.000 C 
BRANCH  16  17
ATOM     17  C   UNL     1      -1.288  13.098  20.315  0.00  0.00    +0.000 C 
BRANCH  17  18
ATOM     18  C   UNL     1      -2.631  12.401  20.023  0.00  0.00    +0.000 C 
BRANCH  18  20
ATOM     19  C   UNL     1      -2.871  10.952  18.060  0.00  0.00    +0.000 C 
ATOM     20  N   UNL     1      -2.933  12.320  18.584  0.00  0.00    +0.000 NA
ATOM     21  H   UNL     1      -3.901  12.685  18.427  0.00  0.00    +0.000 HD
ENDBRANCH  18  20
ENDBRANCH  17  18
ENDBRANCH  16  17
ENDBRANCH  15  16
ENDBRANCH   1  15
BRANCH   9  22
ATOM     22  O   UNL     1       4.998   3.319  19.365  0.00  0.00    +0.000 OA
BRANCH  22  23
ATOM     23  C   UNL     1       4.240   2.252  19.806  0.00  0.00    +0.000 C 
BRANCH  23  24
ATOM     24  C   UNL     1       3.756   1.425  18.620  0.00  0.00    +0.000 C 
BRANCH  24  25
ATOM     25  C   UNL     1       2.550   2.087  17.945  0.00  0.00    +0.000 C 
BRANCH  25  26
ATOM     26  N   UNL     1       1.307   1.661  18.593  0.00  0.00    +0.000 NA
ATOM     27  C   UNL     1       0.690   2.788  19.293  0.00  0.00    +0.000 C 
ATOM     28  H   UNL     1       1.526   0.918  19.299  0.00  0.00    +0.000 HD
ENDBRANCH  25  26
ENDBRANCH  24  25
ENDBRANCH  23  24
ENDBRANCH  22  23
ENDBRANCH   9  22
TORSDOF 10
ENDMDL
MODEL 6
REMARK VINA RESULT:      -6.3      3.276      9.285
REMARK  Name = 
REMARK  12 active torsions:
REMARK  status: ('A' for Active; 'I' for Inactive)
REMARK    1  A    between atoms: C_1  and  N_2
REMARK    2  A    between atoms: N_2  and  C_3
REMARK    3  A    between atoms: C_3  and  C_4
REMARK    4  A    between atoms: C_4  and  C_5
REMARK    5  A    between atoms: C_5  and  O_6
REMARK    6  A    between atoms: O_6  and  C_7
REMARK    7  A    between atoms: C_15  and  O_16
REMARK    8  A    between atoms: O_16  and  C_17
REMARK    9  A    between atoms: C_17  and  C_18
REMARK   10  A    between atoms: C_18  and  C_19
REMARK   11  A    between atoms: C_19  and  N_20
REMARK   12  A    between atoms: N_20  and  C_21
REMARK                            x       y       z     vdW  Elec       q    Type
REMARK                         _______ _______ _______ _____ _____    ______ ____
ROOT
ATOM      1  C   UNL     1       2.978   5.949  19.078  0.00  0.00    +0.000 A 
ATOM      2  C   UNL     1       3.276   6.616  17.875  0.00  0.00    +0.000 A 
ATOM      3  C   UNL     1       2.826   7.914  17.657  0.00  0.00    +0.000 A 
ATOM      4  C   UNL     1       2.065   8.564  18.636  0.00  0.00    +0.000 A 
ATOM      5  C   UNL     1       1.582   9.855  18.418  0.00  0.00    +0.000 A 
ATOM      6  C   UNL     1       0.805  10.477  19.396  0.00  0.00    +0.000 A 
ATOM      7  C   UNL     1       0.284  11.757  19.183  0.00  0.00    +0.000 A 
ATOM      8  C   UNL     1      -0.510  12.357  20.157  0.00  0.00    +0.000 A 
ATOM      9  C   UNL     1      -0.788  11.686  21.367  0.00  0.00    +0.000 A 
ATOM     10  C   UNL     1      -0.255  10.408  21.584  0.00  0.00    +0.000 A 
ATOM     11  C   UNL     1       0.533   9.795  20.601  0.00  0.00    +0.000 A 
ATOM     12  N   UNL     1       1.023   8.541  20.801  0.00  0.00    +0.000 NA
ATOM     13  C   UNL     1       1.769   7.910  19.852  0.00  0.00    +0.000 A 
ATOM     14  C   UNL     1       2.230   6.605  20.067  0.00  0.00    +0.000 A 
ENDROOT
BRANCH   1  15
ATOM     15  O   UNL     1       3.389   4.683  19.318  0.00  0.00    +0.000 OA
BRANCH  15  16
ATOM     16  C   UNL     1       3.202   3.601  18.480  0.00  0.00    +0.000 C 
BRANCH  16  17
ATOM     17  C   UNL     1       1.723   3.464  18.121  0.00  0.00    +0.000 C 
BRANCH  17  18
ATOM     18  C   UNL     1       0.950   2.607  19.141  0.00  0.00    +0.000 C 
BRANCH  18  20
ATOM     19  C   UNL     1       1.446   2.697  21.541  0.00  0.00    +0.000 C 
ATOM     20  N   UNL     1       0.723   3.303  20.419  0.00  0.00    +0.000 NA
ATOM     21  H   UNL     1       1.047   4.293  20.320  0.00  0.00    +0.000 HD
ENDBRANCH  18  20
ENDBRANCH  17  18
ENDBRANCH  16  17
ENDBRANCH  15  16
ENDBRANCH   1  15
BRANCH   9  22
ATOM     22  O   UNL     1      -1.564  12.237  22.332  0.00  0.00    +0.000 OA
BRANCH  22  23
ATOM     23  C   UNL     1      -1.244  13.364  23.065  0.00  0.00    +0.000 C 
BRANCH  23  24
ATOM     24  C   UNL     1      -2.457  14.281  23.175  0.00  0.00    +0.000 C 
BRANCH  24  25
ATOM     25  C   UNL     1      -2.928  14.396  24.628  0.00  0.00    +0.000 C 
BRANCH  25  26
ATOM     26  N   UNL     1      -4.317  13.944  24.750  0.00  0.00    +0.000 NA
ATOM     27  C   UNL     1      -4.379  12.483  24.685  0.00  0.00    +0.000 C 
ATOM     28  H   UNL     1      -4.874  14.330  23.951  0.00  0.00    +0.000 HD
ENDBRANCH  25  26
ENDBRANCH  24  25
ENDBRANCH  23  24
ENDBRANCH  22  23
ENDBRANCH   9  22
TORSDOF 10
ENDMDL
MODEL 7
REMARK VINA RESULT:      -6.3      1.494      8.460
REMARK  Name = 
REMARK  12 active torsions:
REMARK  status: ('A' for Active; 'I' for Inactive)
REMARK    1  A    between atoms: C_1  and  N_2
REMARK    2  A    between atoms: N_2  and  C_3
REMARK    3  A    between atoms: C_3  and  C_4
REMARK    4  A    between atoms: C_4  and  C_5
REMARK    5  A    between atoms: C_5  and  O_6
REMARK    6  A    between atoms: O_6  and  C_7
REMARK    7  A    between atoms: C_15  and  O_16
REMARK    8  A    between atoms: O_16  and  C_17
REMARK    9  A    between atoms: C_17  and  C_18
REMARK   10  A    between atoms: C_18  and  C_19
REMARK   11  A    between atoms: C_19  and  N_20
REMARK   12  A    between atoms: N_20  and  C_21
REMARK                            x       y       z     vdW  Elec       q    Type
REMARK                         _______ _______ _______ _____ _____    ______ ____
ROOT
ATOM      1  C   UNL     1       3.858   4.617  18.407  0.00  0.00    +0.000 A 
ATOM      2  C   UNL     1       3.422   4.128  19.652  0.00  0.00    +0.000 A 
ATOM      3  C   UNL     1       2.620   4.911  20.476  0.00  0.00    +0.000 A 
ATOM      4  C   UNL     1       2.246   6.197  20.070  0.00  0.00    +0.000 A 
ATOM      5  C   UNL     1       1.465   7.003  20.900  0.00  0.00    +0.000 A 
ATOM      6  C   UNL     1       1.123   8.292  20.489  0.00  0.00    +0.000 A 
ATOM      7  C   UNL     1       0.370   9.128  21.319  0.00  0.00    +0.000 A 
ATOM      8  C   UNL     1       0.055  10.420  20.906  0.00  0.00    +0.000 A 
ATOM      9  C   UNL     1       0.482  10.893  19.648  0.00  0.00    +0.000 A 
ATOM     10  C   UNL     1       1.226  10.050  18.811  0.00  0.00    +0.000 A 
ATOM     11  C   UNL     1       1.557   8.754  19.227  0.00  0.00    +0.000 A 
ATOM     12  N   UNL     1       2.306   7.948  18.427  0.00  0.00    +0.000 NA
ATOM     13  C   UNL     1       2.667   6.695  18.818  0.00  0.00    +0.000 A 
ATOM     14  C   UNL     1       3.469   5.899  17.991  0.00  0.00    +0.000 A 
ENDROOT
BRANCH   1  15
ATOM     15  O   UNL     1       4.649   3.887  17.586  0.00  0.00    +0.000 OA
BRANCH  15  16
ATOM     16  C   UNL     1       4.861   4.130  16.243  0.00  0.00    +0.000 C 
BRANCH  16  17
ATOM     17  C   UNL     1       6.359   4.204  15.953  0.00  0.00    +0.000 C 
BRANCH  17  18
ATOM     18  C   UNL     1       6.655   4.559  14.483  0.00  0.00    +0.000 C 
BRANCH  18  20
ATOM     19  C   UNL     1       6.291   3.397  12.355  0.00  0.00    +0.000 C 
ATOM     20  N   UNL     1       5.673   3.985  13.547  0.00  0.00    +0.000 NA
ATOM     21  H   UNL     1       5.142   3.232  14.043  0.00  0.00    +0.000 HD
ENDBRANCH  18  20
ENDBRANCH  17  18
ENDBRANCH  16  17
ENDBRANCH  15  16
ENDBRANCH   1  15
BRANCH   9  22
ATOM     22  O   UNL     1       0.201  12.148  19.219  0.00  0.00    +0.000 OA
BRANCH  22  23
ATOM     23  C   UNL     1      -0.769  12.474  18.290  0.00  0.00    +0.000 C 
BRANCH  23  24
ATOM     24  C   UNL     1      -2.149  12.091  18.816  0.00  0.00    +0.000 C 
BRANCH  24  25
ATOM     25  C   UNL     1      -2.933  11.294  17.769  0.00  0.00    +0.000 C 
BRANCH  25  26
ATOM     26  N   UNL     1      -2.123  11.103  16.563  0.00  0.00    +0.000 NA
ATOM     27  C   UNL     1      -2.986  10.816  15.416  0.00  0.00    +0.000 C 
ATOM     28  H   UNL     1      -1.486  10.283  16.705  0.00  0.00    +0.000 HD
ENDBRANCH  25  26
ENDBRANCH  24  25
ENDBRANCH  23  24
ENDBRANCH  22  23
ENDBRANCH   9  22
TORSDOF 10
ENDMDL
MODEL 8
REMARK VINA RESULT:      -6.3      2.767      9.078
REMARK  Name = 
REMARK  12 active torsions:
REMARK  status: ('A' for Active; 'I' for Inactive)
REMARK    1  A    between atoms: C_1  and  N_2
REMARK    2  A    between atoms: N_2  and  C_3
REMARK    3  A    between atoms: C_3  and  C_4
REMARK    4  A    between atoms: C_4  and  C_5
REMARK    5  A    between atoms: C_5  and  O_6
REMARK    6  A    between atoms: O_6  and  C_7
REMARK    7  A    between atoms: C_15  and  O_16
REMARK    8  A    between atoms: O_16  and  C_17
REMARK    9  A    between atoms: C_17  and  C_18
REMARK   10  A    between atoms: C_18  and  C_19
REMARK   11  A    between atoms: C_19  and  N_20
REMARK   12  A    between atoms: N_20  and  C_21
REMARK                            x       y       z     vdW  Elec       q    Type
REMARK                         _______ _______ _______ _____ _____    ______ ____
ROOT
ATOM      1  C   UNL     1       3.455   5.635  18.755  0.00  0.00    +0.000 A 
ATOM      2  C   UNL     1       3.647   6.435  17.612  0.00  0.00    +0.000 A 
ATOM      3  C   UNL     1       3.078   7.701  17.535  0.00  0.00    +0.000 A 
ATOM      4  C   UNL     1       2.303   8.186  18.596  0.00  0.00    +0.000 A 
ATOM      5  C   UNL     1       1.703   9.444  18.518  0.00  0.00    +0.000 A 
ATOM      6  C   UNL     1       0.914   9.900  19.575  0.00  0.00    +0.000 A 
ATOM      7  C   UNL     1       0.277  11.142  19.503  0.00  0.00    +0.000 A 
ATOM      8  C   UNL     1      -0.526  11.575  20.555  0.00  0.00    +0.000 A 
ATOM      9  C   UNL     1      -0.697  10.773  21.702  0.00  0.00    +0.000 A 
ATOM     10  C   UNL     1      -0.048   9.533  21.778  0.00  0.00    +0.000 A 
ATOM     11  C   UNL     1       0.750   9.087  20.717  0.00  0.00    +0.000 A 
ATOM     12  N   UNL     1       1.354   7.869  20.779  0.00  0.00    +0.000 NA
ATOM     13  C   UNL     1       2.113   7.398  19.751  0.00  0.00    +0.000 A 
ATOM     14  C   UNL     1       2.693   6.126  19.825  0.00  0.00    +0.000 A 
ENDROOT
BRANCH   1  15
ATOM     15  O   UNL     1       3.983   4.393  18.858  0.00  0.00    +0.000 OA
BRANCH  15  16
ATOM     16  C   UNL     1       3.646   3.304  18.078  0.00  0.00    +0.000 C 
BRANCH  16  17
ATOM     17  C   UNL     1       2.146   3.312  17.786  0.00  0.00    +0.000 C 
BRANCH  17  18
ATOM     18  C   UNL     1       1.337   2.554  18.857  0.00  0.00    +0.000 C 
BRANCH  18  20
ATOM     19  C   UNL     1       1.434   2.860  21.288  0.00  0.00    +0.000 C 
ATOM     20  N   UNL     1       2.100   2.326  20.096  0.00  0.00    +0.000 NA
ATOM     21  H   UNL     1       2.222   1.295  20.226  0.00  0.00    +0.000 HD
ENDBRANCH  18  20
ENDBRANCH  17  18
ENDBRANCH  16  17
ENDBRANCH  15  16
ENDBRANCH   1  15
BRANCH   9  22
ATOM     22  O   UNL     1      -1.479  11.160  22.740  0.00  0.00    +0.000 OA
BRANCH  22  23
ATOM     23  C   UNL     1      -1.799  12.467  23.052  0.00  0.00    +0.000 C 
BRANCH  23  24
ATOM     24  C   UNL     1      -3.171  12.528  23.717  0.00  0.00    +0.000 C 
BRANCH  24  25
ATOM     25  C   UNL     1      -4.279  12.704  22.674  0.00  0.00    +0.000 C 
BRANCH  25  26
ATOM     26  N   UNL     1      -3.698  12.921  21.346  0.00  0.00    +0.000 NA
ATOM     27  C   UNL     1      -4.059  14.249  20.849  0.00  0.00    +0.000 C 
ATOM     28  H   UNL     1      -4.084  12.208  20.683  0.00  0.00    +0.000 HD
ENDBRANCH  25  26
ENDBRANCH  24  25
ENDBRANCH  23  24
ENDBRANCH  22  23
ENDBRANCH   9  22
TORSDOF 10
ENDMDL
MODEL 9
REMARK VINA RESULT:      -6.2      2.184      8.680
REMARK  Name = 
REMARK  12 active torsions:
REMARK  status: ('A' for Active; 'I' for Inactive)
REMARK    1  A    between atoms: C_1  and  N_2
REMARK    2  A    between atoms: N_2  and  C_3
REMARK    3  A    between atoms: C_3  and  C_4
REMARK    4  A    between atoms: C_4  and  C_5
REMARK    5  A    between atoms: C_5  and  O_6
REMARK    6  A    between atoms: O_6  and  C_7
REMARK    7  A    between atoms: C_15  and  O_16
REMARK    8  A    between atoms: O_16  and  C_17
REMARK    9  A    between atoms: C_17  and  C_18
REMARK   10  A    between atoms: C_18  and  C_19
REMARK   11  A    between atoms: C_19  and  N_20
REMARK   12  A    between atoms: N_20  and  C_21
REMARK                            x       y       z     vdW  Elec       q    Type
REMARK                         _______ _______ _______ _____ _____    ______ ____
ROOT
ATOM      1  C   UNL     1       5.150   4.355  17.280  0.00  0.00    +0.000 A 
ATOM      2  C   UNL     1       4.861   3.655  18.466  0.00  0.00    +0.000 A 
ATOM      3  C   UNL     1       4.002   4.199  19.415  0.00  0.00    +0.000 A 
ATOM      4  C   UNL     1       3.422   5.454  19.195  0.00  0.00    +0.000 A 
ATOM      5  C   UNL     1       2.580   6.023  20.152  0.00  0.00    +0.000 A 
ATOM      6  C   UNL     1       2.032   7.286  19.926  0.00  0.00    +0.000 A 
ATOM      7  C   UNL     1       1.213   7.889  20.886  0.00  0.00    +0.000 A 
ATOM      8  C   UNL     1       0.691   9.160  20.658  0.00  0.00    +0.000 A 
ATOM      9  C   UNL     1       0.973   9.844  19.458  0.00  0.00    +0.000 A 
ATOM     10  C   UNL     1       1.783   9.234  18.490  0.00  0.00    +0.000 A 
ATOM     11  C   UNL     1       2.322   7.962  18.721  0.00  0.00    +0.000 A 
ATOM     12  N   UNL     1       3.134   7.384  17.795  0.00  0.00    +0.000 NA
ATOM     13  C   UNL     1       3.695   6.161  18.004  0.00  0.00    +0.000 A 
ATOM     14  C   UNL     1       4.556   5.605  17.050  0.00  0.00    +0.000 A 
ENDROOT
BRANCH   1  15
ATOM     15  O   UNL     1       5.991   3.861  16.342  0.00  0.00    +0.000 OA
BRANCH  15  16
ATOM     16  C   UNL     1       6.442   4.537  15.225  0.00  0.00    +0.000 C 
BRANCH  16  17
ATOM     17  C   UNL     1       5.937   3.851  13.957  0.00  0.00    +0.000 C 
BRANCH  17  18
ATOM     18  C   UNL     1       6.992   3.846  12.834  0.00  0.00    +0.000 C 
BRANCH  18  20
ATOM     19  C   UNL     1       5.234   2.552  11.718  0.00  0.00    +0.000 C 
ATOM     20  N   UNL     1       6.649   2.935  11.729  0.00  0.00    +0.000 NA
ATOM     21  H   UNL     1       6.863   3.415  10.824  0.00  0.00    +0.000 HD
ENDBRANCH  18  20
ENDBRANCH  17  18
ENDBRANCH  16  17
ENDBRANCH  15  16
ENDBRANCH   1  15
BRANCH   9  22
ATOM     22  O   UNL     1       0.488  11.086  19.208  0.00  0.00    +0.000 OA
BRANCH  22  23
ATOM     23  C   UNL     1       1.251  12.235  19.118  0.00  0.00    +0.000 C 
BRANCH  23  24
ATOM     24  C   UNL     1       0.356  13.438  18.836  0.00  0.00    +0.000 C 
BRANCH  24  25
ATOM     25  C   UNL     1      -1.107  13.010  18.685  0.00  0.00    +0.000 C 
BRANCH  25  26
ATOM     26  N   UNL     1      -1.334  12.435  17.356  0.00  0.00    +0.000 NA
ATOM     27  C   UNL     1      -2.433  11.469  17.405  0.00  0.00    +0.000 C 
ATOM     28  H   UNL     1      -0.469  11.930  17.050  0.00  0.00    +0.000 HD
ENDBRANCH  25  26
ENDBRANCH  24  25
ENDBRANCH  23  24
ENDBRANCH  22  23
ENDBRANCH   9  22
TORSDOF 10
ENDMDL
