MODEL 1
REMARK VINA RESULT:      -7.1      0.000      0.000
REMARK  Name = 
REMARK  7 active torsions:
REMARK  status: ('A' for Active; 'I' for Inactive)
REMARK    1  A    between atoms: C_1  and  O_2
REMARK    2  A    between atoms: O_2  and  C_3
REMARK    3  A    between atoms: C_6  and  C_7
REMARK    4  A    between atoms: C_9  and  N_10
REMARK    5  A    between atoms: C_19  and  C_20
REMARK    6  A    between atoms: C_23  and  O_24
REMARK    7  A    between atoms: O_24  and  C_25
REMARK                            x       y       z     vdW  Elec       q    Type
REMARK                         _______ _______ _______ _____ _____    ______ ____
ROOT
ATOM      1  C   UNL     1       1.041  11.422  19.336  0.00  0.00    +0.000 C 
ATOM      2  C   UNL     1       0.994  11.810  20.835  0.00  0.00    +0.000 C 
ATOM      3  C   UNL     1      -0.430  12.261  21.258  0.00  0.00    +0.000 C 
ATOM      4  C   UNL     1      -0.657  13.604  20.500  0.00  0.00    +0.000 C 
ATOM      5  C   UNL     1      -0.459  13.332  19.014  0.00  0.00    +0.000 C 
ATOM      6  O   UNL     1      -0.418  14.238  18.181  0.00  0.00    +0.000 OA
ATOM      7  C   UNL     1      -0.273  11.863  18.639  0.00  0.00    +0.000 C 
ATOM      8  C   UNL     1      -1.483  11.096  19.197  0.00  0.00    +0.000 C 
ATOM      9  C   UNL     1      -1.541  11.287  20.728  0.00  0.00    +0.000 C 
ENDROOT
BRANCH   1  13
ATOM     10  C   UNL     1       2.324   7.309  18.748  0.00  0.00    +0.000 A 
ATOM     11  C   UNL     1       1.845   7.715  19.986  0.00  0.00    +0.000 A 
ATOM     12  C   UNL     1       1.380   9.014  20.167  0.00  0.00    +0.000 A 
ATOM     13  C   UNL     1       1.417   9.957  19.125  0.00  0.00    +0.000 A 
ATOM     14  C   UNL     1       1.877   9.529  17.874  0.00  0.00    +0.000 A 
ATOM     15  C   UNL     1       2.331   8.214  17.687  0.00  0.00    +0.000 A 
BRANCH  10  17
ATOM     16  C   UNL     1       2.482   5.229  19.851  0.00  0.00    +0.000 C 
ATOM     17  O   UNL     1       2.790   6.024  18.716  0.00  0.00    +0.000 OA
ENDBRANCH  10  17
ENDBRANCH   1  13
BRANCH   8  18
ATOM     18  C   UNL     1      -2.786  11.383  18.467  0.00  0.00    +0.000 A 
ATOM     19  C   UNL     1      -3.857  11.951  19.174  0.00  0.00    +0.000 A 
ATOM     20  C   UNL     1      -5.060  12.257  18.529  0.00  0.00    +0.000 A 
ATOM     21  C   UNL     1      -5.216  12.011  17.166  0.00  0.00    +0.000 A 
ATOM     22  C   UNL     1      -4.172  11.422  16.459  0.00  0.00    +0.000 A 
ATOM     23  C   UNL     1      -2.973  11.108  17.105  0.00  0.00    +0.000 A 
BRANCH  21  24
ATOM     24  O   UNL     1      -6.429  12.354  16.636  0.00  0.00    +0.000 OA
ATOM     25  C   UNL     1      -6.861  13.684  16.904  0.00  0.00    +0.000 C 
ENDBRANCH  21  24
ENDBRANCH   8  18
BRANCH   3  26
ATOM     26  N   UNL     1      -0.601  12.388  22.725  0.00  0.00    +0.000 NA
ATOM     27  C   UNL     1      -1.573  11.506  23.380  0.00  0.00    +0.000 C 
ATOM     28  C   UNL     1      -2.853  12.311  23.513  0.00  0.00    +0.000 C 
ATOM     29  C   UNL     1      -2.381  13.741  23.670  0.00  0.00    +0.000 C 
ATOM     30  C   UNL     1      -0.931  13.743  23.212  0.00  0.00    +0.000 C 
ENDBRANCH   3  26
TORSDOF 5
ENDMDL
MODEL 2
REMARK VINA RESULT:      -6.8      0.486      1.009
REMARK  Name = 
REMARK  7 active torsions:
REMARK  status: ('A' for Active; 'I' for Inactive)
REMARK    1  A    between atoms: C_1  and  O_2
REMARK    2  A    between atoms: O_2  and  C_3
REMARK    3  A    between atoms: C_6  and  C_7
REMARK    4  A    between atoms: C_9  and  N_10
REMARK    5  A    between atoms: C_19  and  C_20
REMARK    6  A    between atoms: C_23  and  O_24
REMARK    7  A    between atoms: O_24  and  C_25
REMARK                            x       y       z     vdW  Elec       q    Type
REMARK                         _______ _______ _______ _____ _____    ______ ____
ROOT
ATOM      1  C   UNL     1       1.144  11.468  19.346  0.00  0.00    +0.000 C 
ATOM      2  C   UNL     1       1.064  11.829  20.852  0.00  0.00    +0.000 C 
ATOM      3  C   UNL     1      -0.380  12.224  21.261  0.00  0.00    +0.000 C 
ATOM      4  C   UNL     1      -0.643  13.571  20.523  0.00  0.00    +0.000 C 
ATOM      5  C   UNL     1      -0.415  13.331  19.035  0.00  0.00    +0.000 C 
ATOM      6  O   UNL     1      -0.395  14.252  18.217  0.00  0.00    +0.000 OA
ATOM      7  C   UNL     1      -0.174  11.876  18.639  0.00  0.00    +0.000 C 
ATOM      8  C   UNL     1      -1.364  11.059  19.168  0.00  0.00    +0.000 C 
ATOM      9  C   UNL     1      -1.449  11.222  20.701  0.00  0.00    +0.000 C 
ENDROOT
BRANCH   1  13
ATOM     10  C   UNL     1       2.151   7.289  18.685  0.00  0.00    +0.000 A 
ATOM     11  C   UNL     1       2.233   8.196  17.638  0.00  0.00    +0.000 A 
ATOM     12  C   UNL     1       1.967   9.545  17.854  0.00  0.00    +0.000 A 
ATOM     13  C   UNL     1       1.573  10.021  19.117  0.00  0.00    +0.000 A 
ATOM     14  C   UNL     1       1.519   9.102  20.172  0.00  0.00    +0.000 A 
ATOM     15  C   UNL     1       1.804   7.744  19.957  0.00  0.00    +0.000 A 
BRANCH  10  17
ATOM     16  C   UNL     1       3.665   5.739  17.751  0.00  0.00    +0.000 C 
ATOM     17  O   UNL     1       2.394   5.991  18.331  0.00  0.00    +0.000 OA
ENDBRANCH  10  17
ENDBRANCH   1  13
BRANCH   8  18
ATOM     18  C   UNL     1      -2.667  11.314  18.424  0.00  0.00    +0.000 A 
ATOM     19  C   UNL     1      -3.749  11.884  19.112  0.00  0.00    +0.000 A 
ATOM     20  C   UNL     1      -4.951  12.161  18.454  0.00  0.00    +0.000 A 
ATOM     21  C   UNL     1      -5.096  11.883  17.095  0.00  0.00    +0.000 A 
ATOM     22  C   UNL     1      -4.042  11.290  16.408  0.00  0.00    +0.000 A 
ATOM     23  C   UNL     1      -2.843  11.006  17.068  0.00  0.00    +0.000 A 
BRANCH  21  24
ATOM     24  O   UNL     1      -6.310  12.199  16.552  0.00  0.00    +0.000 OA
ATOM     25  C   UNL     1      -7.122  13.071  17.331  0.00  0.00    +0.000 C 
ENDBRANCH  21  24
ENDBRANCH   8  18
BRANCH   3  26
ATOM     26  N   UNL     1      -0.575  12.321  22.727  0.00  0.00    +0.000 NA
ATOM     27  C   UNL     1      -1.540  11.409  23.352  0.00  0.00    +0.000 C 
ATOM     28  C   UNL     1      -2.836  12.186  23.481  0.00  0.00    +0.000 C 
ATOM     29  C   UNL     1      -2.394  13.622  23.671  0.00  0.00    +0.000 C 
ATOM     30  C   UNL     1      -0.937  13.660  23.235  0.00  0.00    +0.000 C 
ENDBRANCH   3  26
TORSDOF 5
ENDMDL
MODEL 3
REMARK VINA RESULT:      -6.7      2.996      6.128
REMARK  Name = 
REMARK  7 active torsions:
REMARK  status: ('A' for Active; 'I' for Inactive)
REMARK    1  A    between atoms: C_1  and  O_2
REMARK    2  A    between atoms: O_2  and  C_3
REMARK    3  A    between atoms: C_6  and  C_7
REMARK    4  A    between atoms: C_9  and  N_10
REMARK    5  A    between atoms: C_19  and  C_20
REMARK    6  A    between atoms: C_23  and  O_24
REMARK    7  A    between atoms: O_24  and  C_25
REMARK                            x       y       z     vdW  Elec       q    Type
REMARK                         _______ _______ _______ _____ _____    ______ ____
ROOT
ATOM      1  C   UNL     1      -1.533  11.295  19.845  0.00  0.00    +0.000 C 
ATOM      2  C   UNL     1      -2.382  12.149  20.821  0.00  0.00    +0.000 C 
ATOM      3  C   UNL     1      -1.702  13.513  21.117  0.00  0.00    +0.000 C 
ATOM      4  C   UNL     1      -0.424  13.146  21.930  0.00  0.00    +0.000 C 
ATOM      5  C   UNL     1       0.388  12.166  21.092  0.00  0.00    +0.000 C 
ATOM      6  O   UNL     1       1.372  11.577  21.541  0.00  0.00    +0.000 OA
ATOM      7  C   UNL     1      -0.131  11.935  19.674  0.00  0.00    +0.000 C 
ATOM      8  C   UNL     1      -0.227  13.312  18.997  0.00  0.00    +0.000 C 
ATOM      9  C   UNL     1      -1.184  14.210  19.811  0.00  0.00    +0.000 C 
ENDROOT
BRANCH   1  13
ATOM     10  C   UNL     1      -3.553  10.655  16.047  0.00  0.00    +0.000 A 
ATOM     11  C   UNL     1      -2.352  10.012  16.310  0.00  0.00    +0.000 A 
ATOM     12  C   UNL     1      -1.727  10.167  17.545  0.00  0.00    +0.000 A 
ATOM     13  C   UNL     1      -2.267  11.002  18.539  0.00  0.00    +0.000 A 
ATOM     14  C   UNL     1      -3.492  11.626  18.272  0.00  0.00    +0.000 A 
ATOM     15  C   UNL     1      -4.130  11.455  17.033  0.00  0.00    +0.000 A 
BRANCH  10  17
ATOM     16  C   UNL     1      -3.107   9.942  13.843  0.00  0.00    +0.000 C 
ATOM     17  O   UNL     1      -4.038  10.454  14.785  0.00  0.00    +0.000 OA
ENDBRANCH  10  17
ENDBRANCH   1  13
BRANCH   8  18
ATOM     18  C   UNL     1       1.122  13.939  18.677  0.00  0.00    +0.000 A 
ATOM     19  C   UNL     1       2.175  13.116  18.249  0.00  0.00    +0.000 A 
ATOM     20  C   UNL     1       3.420  13.660  17.917  0.00  0.00    +0.000 A 
ATOM     21  C   UNL     1       3.637  15.035  17.995  0.00  0.00    +0.000 A 
ATOM     22  C   UNL     1       2.610  15.858  18.446  0.00  0.00    +0.000 A 
ATOM     23  C   UNL     1       1.369  15.314  18.787  0.00  0.00    +0.000 A 
BRANCH  21  24
ATOM     24  O   UNL     1       4.888  15.459  17.641  0.00  0.00    +0.000 OA
ATOM     25  C   UNL     1       5.955  14.947  18.432  0.00  0.00    +0.000 C 
ENDBRANCH  21  24
ENDBRANCH   8  18
BRANCH   3  26
ATOM     26  N   UNL     1      -2.582  14.473  21.824  0.00  0.00    +0.000 NA
ATOM     27  C   UNL     1      -2.281  14.772  23.229  0.00  0.00    +0.000 C 
ATOM     28  C   UNL     1      -3.184  13.875  24.055  0.00  0.00    +0.000 C 
ATOM     29  C   UNL     1      -4.426  13.708  23.206  0.00  0.00    +0.000 C 
ATOM     30  C   UNL     1      -4.023  14.150  21.807  0.00  0.00    +0.000 C 
ENDBRANCH   3  26
TORSDOF 5
ENDMDL
MODEL 4
REMARK VINA RESULT:      -6.7      3.047      5.996
REMARK  Name = 
REMARK  7 active torsions:
REMARK  status: ('A' for Active; 'I' for Inactive)
REMARK    1  A    between atoms: C_1  and  O_2
REMARK    2  A    between atoms: O_2  and  C_3
REMARK    3  A    between atoms: C_6  and  C_7
REMARK    4  A    between atoms: C_9  and  N_10
REMARK    5  A    between atoms: C_19  and  C_20
REMARK    6  A    between atoms: C_23  and  O_24
REMARK    7  A    between atoms: O_24  and  C_25
REMARK                            x       y       z     vdW  Elec       q    Type
REMARK                         _______ _______ _______ _____ _____    ______ ____
ROOT
ATOM      1  C   UNL     1      -1.444  11.420  19.878  0.00  0.00    +0.000 C 
ATOM      2  C   UNL     1      -2.360  12.099  20.927  0.00  0.00    +0.000 C 
ATOM      3  C   UNL     1      -1.871  13.534  21.259  0.00  0.00    +0.000 C 
ATOM      4  C   UNL     1      -0.517  13.326  22.000  0.00  0.00    +0.000 C 
ATOM      5  C   UNL     1       0.388  12.510  21.084  0.00  0.00    +0.000 C 
ATOM      6  O   UNL     1       1.467  12.054  21.464  0.00  0.00    +0.000 OA
ATOM      7  C   UNL     1      -0.159  12.264  19.679  0.00  0.00    +0.000 C 
ATOM      8  C   UNL     1      -0.485  13.639  19.073  0.00  0.00    +0.000 C 
ATOM      9  C   UNL     1      -1.521  14.353  19.967  0.00  0.00    +0.000 C 
ENDROOT
BRANCH   1  13
ATOM     10  C   UNL     1      -3.508  10.638  16.130  0.00  0.00    +0.000 A 
ATOM     11  C   UNL     1      -2.270  10.060  16.373  0.00  0.00    +0.000 A 
ATOM     12  C   UNL     1      -1.628  10.259  17.592  0.00  0.00    +0.000 A 
ATOM     13  C   UNL     1      -2.189  11.076  18.590  0.00  0.00    +0.000 A 
ATOM     14  C   UNL     1      -3.450  11.633  18.344  0.00  0.00    +0.000 A 
ATOM     15  C   UNL     1      -4.104  11.418  17.121  0.00  0.00    +0.000 A 
BRANCH  10  17
ATOM     16  C   UNL     1      -3.060   9.988  13.906  0.00  0.00    +0.000 C 
ATOM     17  O   UNL     1      -4.008  10.399  14.880  0.00  0.00    +0.000 OA
ENDBRANCH  10  17
ENDBRANCH   1  13
BRANCH   8  18
ATOM     18  C   UNL     1       0.743  14.468  18.728  0.00  0.00    +0.000 A 
ATOM     19  C   UNL     1       0.696  15.861  18.890  0.00  0.00    +0.000 A 
ATOM     20  C   UNL     1       1.815  16.653  18.613  0.00  0.00    +0.000 A 
ATOM     21  C   UNL     1       3.005  16.072  18.177  0.00  0.00    +0.000 A 
ATOM     22  C   UNL     1       3.056  14.695  17.985  0.00  0.00    +0.000 A 
ATOM     23  C   UNL     1       1.935  13.904  18.253  0.00  0.00    +0.000 A 
BRANCH  21  24
ATOM     24  O   UNL     1       4.037  16.937  17.942  0.00  0.00    +0.000 OA
ATOM     25  C   UNL     1       5.179  16.770  18.775  0.00  0.00    +0.000 C 
ENDBRANCH  21  24
ENDBRANCH   8  18
BRANCH   3  26
ATOM     26  N   UNL     1      -2.846  14.326  22.046  0.00  0.00    +0.000 NA
ATOM     27  C   UNL     1      -2.332  15.141  23.152  0.00  0.00    +0.000 C 
ATOM     28  C   UNL     1      -2.518  14.314  24.410  0.00  0.00    +0.000 C 
ATOM     29  C   UNL     1      -3.755  13.486  24.134  0.00  0.00    +0.000 C 
ATOM     30  C   UNL     1      -3.966  13.561  22.629  0.00  0.00    +0.000 C 
ENDBRANCH   3  26
TORSDOF 5
ENDMDL
MODEL 5
REMARK VINA RESULT:      -6.7      2.474      6.951
REMARK  Name = 
REMARK  7 active torsions:
REMARK  status: ('A' for Active; 'I' for Inactive)
REMARK    1  A    between atoms: C_1  and  O_2
REMARK    2  A    between atoms: O_2  and  C_3
REMARK    3  A    between atoms: C_6  and  C_7
REMARK    4  A    between atoms: C_9  and  N_10
REMARK    5  A    between atoms: C_19  and  C_20
REMARK    6  A    between atoms: C_23  and  O_24
REMARK    7  A    between atoms: O_24  and  C_25
REMARK                            x       y       z     vdW  Elec       q    Type
REMARK                         _______ _______ _______ _____ _____    ______ ____
ROOT
ATOM      1  C   UNL     1      -1.152  10.930  19.558  0.00  0.00    +0.000 C 
ATOM      2  C   UNL     1      -0.399  12.285  19.569  0.00  0.00    +0.000 C 
ATOM      3  C   UNL     1       1.138  12.077  19.527  0.00  0.00    +0.000 C 
ATOM      4  C   UNL     1       1.484  11.428  20.901  0.00  0.00    +0.000 C 
ATOM      5  C   UNL     1       0.645  10.162  21.036  0.00  0.00    +0.000 C 
ATOM      6  O   UNL     1       0.586   9.522  22.086  0.00  0.00    +0.000 OA
ATOM      7  C   UNL     1      -0.148   9.771  19.790  0.00  0.00    +0.000 C 
ATOM      8  C   UNL     1       0.855   9.663  18.630  0.00  0.00    +0.000 C 
ATOM      9  C   UNL     1       1.564  11.022  18.445  0.00  0.00    +0.000 C 
ENDROOT
BRANCH   1  13
ATOM     10  C   UNL     1      -3.605  10.660  15.978  0.00  0.00    +0.000 A 
ATOM     11  C   UNL     1      -2.466   9.877  16.097  0.00  0.00    +0.000 A 
ATOM     12  C   UNL     1      -1.706   9.916  17.263  0.00  0.00    +0.000 A 
ATOM     13  C   UNL     1      -2.043  10.769  18.329  0.00  0.00    +0.000 A 
ATOM     14  C   UNL     1      -3.209  11.534  18.208  0.00  0.00    +0.000 A 
ATOM     15  C   UNL     1      -3.984  11.482  17.038  0.00  0.00    +0.000 A 
BRANCH  10  17
ATOM     16  C   UNL     1      -3.471   9.980  13.722  0.00  0.00    +0.000 C 
ATOM     17  O   UNL     1      -4.235  10.561  14.768  0.00  0.00    +0.000 OA
ENDBRANCH  10  17
ENDBRANCH   1  13
BRANCH   8  18
ATOM     18  C   UNL     1       1.786   8.464  18.727  0.00  0.00    +0.000 A 
ATOM     19  C   UNL     1       2.727   8.243  17.710  0.00  0.00    +0.000 A 
ATOM     20  C   UNL     1       3.619   7.169  17.781  0.00  0.00    +0.000 A 
ATOM     21  C   UNL     1       3.598   6.299  18.871  0.00  0.00    +0.000 A 
ATOM     22  C   UNL     1       2.650   6.490  19.871  0.00  0.00    +0.000 A 
ATOM     23  C   UNL     1       1.752   7.558  19.796  0.00  0.00    +0.000 A 
BRANCH  21  24
ATOM     24  O   UNL     1       4.517   5.288  18.841  0.00  0.00    +0.000 OA
ATOM     25  C   UNL     1       4.236   4.231  17.930  0.00  0.00    +0.000 C 
ENDBRANCH  21  24
ENDBRANCH   8  18
BRANCH   3  26
ATOM     26  N   UNL     1       1.899  13.322  19.268  0.00  0.00    +0.000 NA
ATOM     27  C   UNL     1       2.784  13.818  20.329  0.00  0.00    +0.000 C 
ATOM     28  C   UNL     1       1.994  14.872  21.082  0.00  0.00    +0.000 C 
ATOM     29  C   UNL     1       1.083  15.476  20.034  0.00  0.00    +0.000 C 
ATOM     30  C   UNL     1       1.089  14.493  18.874  0.00  0.00    +0.000 C 
ENDBRANCH   3  26
TORSDOF 5
ENDMDL
MODEL 6
REMARK VINA RESULT:      -6.6      3.018      6.014
REMARK  Name = 
REMARK  7 active torsions:
REMARK  status: ('A' for Active; 'I' for Inactive)
REMARK    1  A    between atoms: C_1  and  O_2
REMARK    2  A    between atoms: O_2  and  C_3
REMARK    3  A    between atoms: C_6  and  C_7
REMARK    4  A    between atoms: C_9  and  N_10
REMARK    5  A    between atoms: C_19  and  C_20
REMARK    6  A    between atoms: C_23  and  O_24
REMARK    7  A    between atoms: O_24  and  C_25
REMARK                            x       y       z     vdW  Elec       q    Type
REMARK                         _______ _______ _______ _____ _____    ______ ____
ROOT
ATOM      1  C   UNL     1      -1.325  11.352  19.896  0.00  0.00    +0.000 C 
ATOM      2  C   UNL     1      -2.220  11.964  21.004  0.00  0.00    +0.000 C 
ATOM      3  C   UNL     1      -1.753  13.396  21.380  0.00  0.00    +0.000 C 
ATOM      4  C   UNL     1      -0.369  13.189  22.066  0.00  0.00    +0.000 C 
ATOM      5  C   UNL     1       0.522  12.434  21.086  0.00  0.00    +0.000 C 
ATOM      6  O   UNL     1       1.624  11.989  21.410  0.00  0.00    +0.000 OA
ATOM      7  C   UNL     1      -0.067  12.235  19.691  0.00  0.00    +0.000 C 
ATOM      8  C   UNL     1      -0.445  13.625  19.156  0.00  0.00    +0.000 C 
ATOM      9  C   UNL     1      -1.466  14.277  20.113  0.00  0.00    +0.000 C 
ENDROOT
BRANCH   1  13
ATOM     10  C   UNL     1      -3.488  10.674  16.185  0.00  0.00    +0.000 A 
ATOM     11  C   UNL     1      -2.258  10.065  16.391  0.00  0.00    +0.000 A 
ATOM     12  C   UNL     1      -1.585  10.231  17.598  0.00  0.00    +0.000 A 
ATOM     13  C   UNL     1      -2.106  11.044  18.621  0.00  0.00    +0.000 A 
ATOM     14  C   UNL     1      -3.359  11.633  18.412  0.00  0.00    +0.000 A 
ATOM     15  C   UNL     1      -4.045  11.451  17.200  0.00  0.00    +0.000 A 
BRANCH  10  17
ATOM     16  C   UNL     1      -3.113  10.007  13.953  0.00  0.00    +0.000 C 
ATOM     17  O   UNL     1      -4.021  10.466  14.943  0.00  0.00    +0.000 OA
ENDBRANCH  10  17
ENDBRANCH   1  13
BRANCH   8  18
ATOM     18  C   UNL     1       0.752  14.498  18.806  0.00  0.00    +0.000 A 
ATOM     19  C   UNL     1       0.654  15.889  18.965  0.00  0.00    +0.000 A 
ATOM     20  C   UNL     1       1.743  16.720  18.683  0.00  0.00    +0.000 A 
ATOM     21  C   UNL     1       2.952  16.182  18.246  0.00  0.00    +0.000 A 
ATOM     22  C   UNL     1       3.052  14.807  18.055  0.00  0.00    +0.000 A 
ATOM     23  C   UNL     1       1.962  13.977  18.329  0.00  0.00    +0.000 A 
BRANCH  21  24
ATOM     24  O   UNL     1       3.951  17.084  18.005  0.00  0.00    +0.000 OA
ATOM     25  C   UNL     1       5.189  16.813  18.654  0.00  0.00    +0.000 C 
ENDBRANCH  21  24
ENDBRANCH   8  18
BRANCH   3  26
ATOM     26  N   UNL     1      -2.717  14.130  22.233  0.00  0.00    +0.000 NA
ATOM     27  C   UNL     1      -3.795  13.362  22.866  0.00  0.00    +0.000 C 
ATOM     28  C   UNL     1      -5.008  13.515  21.968  0.00  0.00    +0.000 C 
ATOM     29  C   UNL     1      -4.848  14.890  21.354  0.00  0.00    +0.000 C 
ATOM     30  C   UNL     1      -3.395  15.273  21.589  0.00  0.00    +0.000 C 
ENDBRANCH   3  26
TORSDOF 5
ENDMDL
MODEL 7
REMARK VINA RESULT:      -6.6      2.715      5.730
REMARK  Name = 
REMARK  7 active torsions:
REMARK  status: ('A' for Active; 'I' for Inactive)
REMARK    1  A    between atoms: C_1  and  O_2
REMARK    2  A    between atoms: O_2  and  C_3
REMARK    3  A    between atoms: C_6  and  C_7
REMARK    4  A    between atoms: C_9  and  N_10
REMARK    5  A    between atoms: C_19  and  C_20
REMARK    6  A    between atoms: C_23  and  O_24
REMARK    7  A    between atoms: O_24  and  C_25
REMARK                            x       y       z     vdW  Elec       q    Type
REMARK                         _______ _______ _______ _____ _____    ______ ____
ROOT
ATOM      1  C   UNL     1       0.102  10.357  20.283  0.00  0.00    +0.000 C 
ATOM      2  C   UNL     1      -1.236  10.445  19.505  0.00  0.00    +0.000 C 
ATOM      3  C   UNL     1      -1.444  11.858  18.899  0.00  0.00    +0.000 C 
ATOM      4  C   UNL     1      -1.648  12.789  20.132  0.00  0.00    +0.000 C 
ATOM      5  C   UNL     1      -0.432  12.626  21.037  0.00  0.00    +0.000 C 
ATOM      6  O   UNL     1      -0.383  13.117  22.165  0.00  0.00    +0.000 OA
ATOM      7  C   UNL     1       0.700  11.777  20.460  0.00  0.00    +0.000 C 
ATOM      8  C   UNL     1       1.082  12.393  19.104  0.00  0.00    +0.000 C 
ATOM      9  C   UNL     1      -0.155  12.390  18.180  0.00  0.00    +0.000 C 
ENDROOT
BRANCH   1  13
ATOM     10  C   UNL     1       2.657   7.296  18.546  0.00  0.00    +0.000 A 
ATOM     11  C   UNL     1       2.243   8.373  17.774  0.00  0.00    +0.000 A 
ATOM     12  C   UNL     1       1.472   9.386  18.338  0.00  0.00    +0.000 A 
ATOM     13  C   UNL     1       1.059   9.331  19.681  0.00  0.00    +0.000 A 
ATOM     14  C   UNL     1       1.504   8.253  20.456  0.00  0.00    +0.000 A 
ATOM     15  C   UNL     1       2.295   7.240  19.892  0.00  0.00    +0.000 A 
BRANCH  10  17
ATOM     16  C   UNL     1       4.492   6.832  17.138  0.00  0.00    +0.000 C 
ATOM     17  O   UNL     1       3.370   6.351  17.862  0.00  0.00    +0.000 OA
ENDBRANCH  10  17
ENDBRANCH   1  13
BRANCH   8  18
ATOM     18  C   UNL     1       1.797  13.732  19.213  0.00  0.00    +0.000 A 
ATOM     19  C   UNL     1       3.037  13.795  19.866  0.00  0.00    +0.000 A 
ATOM     20  C   UNL     1       3.737  15.002  19.959  0.00  0.00    +0.000 A 
ATOM     21  C   UNL     1       3.220  16.167  19.395  0.00  0.00    +0.000 A 
ATOM     22  C   UNL     1       1.978  16.124  18.770  0.00  0.00    +0.000 A 
ATOM     23  C   UNL     1       1.274  14.920  18.685  0.00  0.00    +0.000 A 
BRANCH  21  24
ATOM     24  O   UNL     1       3.990  17.288  19.538  0.00  0.00    +0.000 OA
ATOM     25  C   UNL     1       5.392  17.092  19.388  0.00  0.00    +0.000 C 
ENDBRANCH  21  24
ENDBRANCH   8  18
BRANCH   3  26
ATOM     26  N   UNL     1      -2.564  11.929  17.930  0.00  0.00    +0.000 NA
ATOM     27  C   UNL     1      -3.870  11.413  18.354  0.00  0.00    +0.000 C 
ATOM     28  C   UNL     1      -3.959   9.995  17.819  0.00  0.00    +0.000 C 
ATOM     29  C   UNL     1      -3.147  10.026  16.541  0.00  0.00    +0.000 C 
ATOM     30  C   UNL     1      -2.313  11.295  16.620  0.00  0.00    +0.000 C 
ENDBRANCH   3  26
TORSDOF 5
ENDMDL
MODEL 8
REMARK VINA RESULT:      -6.6      2.702      4.799
REMARK  Name = 
REMARK  7 active torsions:
REMARK  status: ('A' for Active; 'I' for Inactive)
REMARK    1  A    between atoms: C_1  and  O_2
REMARK    2  A    between atoms: O_2  and  C_3
REMARK    3  A    between atoms: C_6  and  C_7
REMARK    4  A    between atoms: C_9  and  N_10
REMARK    5  A    between atoms: C_19  and  C_20
REMARK    6  A    between atoms: C_23  and  O_24
REMARK    7  A    between atoms: O_24  and  C_25
REMARK                            x       y       z     vdW  Elec       q    Type
REMARK                         _______ _______ _______ _____ _____    ______ ____
ROOT
ATOM      1  C   UNL     1       0.870  10.596  18.548  0.00  0.00    +0.000 C 
ATOM      2  C   UNL     1       1.987  11.610  18.194  0.00  0.00    +0.000 C 
ATOM      3  C   UNL     1       1.905  12.876  19.088  0.00  0.00    +0.000 C 
ATOM      4  C   UNL     1       0.586  13.581  18.649  0.00  0.00    +0.000 C 
ATOM      5  C   UNL     1      -0.548  12.576  18.812  0.00  0.00    +0.000 C 
ATOM      6  O   UNL     1      -1.685  12.797  18.394  0.00  0.00    +0.000 OA
ATOM      7  C   UNL     1      -0.163  11.264  19.492  0.00  0.00    +0.000 C 
ATOM      8  C   UNL     1       0.472  11.624  20.845  0.00  0.00    +0.000 C 
ATOM      9  C   UNL     1       1.706  12.519  20.603  0.00  0.00    +0.000 C 
ENDROOT
BRANCH   1  13
ATOM     10  C   UNL     1       2.260   6.714  19.930  0.00  0.00    +0.000 A 
ATOM     11  C   UNL     1       2.618   7.169  18.669  0.00  0.00    +0.000 A 
ATOM     12  C   UNL     1       2.224   8.434  18.240  0.00  0.00    +0.000 A 
ATOM     13  C   UNL     1       1.427   9.265  19.047  0.00  0.00    +0.000 A 
ATOM     14  C   UNL     1       1.094   8.806  20.327  0.00  0.00    +0.000 A 
ATOM     15  C   UNL     1       1.505   7.537  20.765  0.00  0.00    +0.000 A 
BRANCH  10  17
ATOM     16  C   UNL     1       1.691   4.588  20.782  0.00  0.00    +0.000 C 
ATOM     17  O   UNL     1       2.672   5.441  20.210  0.00  0.00    +0.000 OA
ENDBRANCH  10  17
ENDBRANCH   1  13
BRANCH   8  18
ATOM     18  C   UNL     1      -0.518  12.161  21.869  0.00  0.00    +0.000 A 
ATOM     19  C   UNL     1      -0.389  13.485  22.315  0.00  0.00    +0.000 A 
ATOM     20  C   UNL     1      -1.299  14.023  23.232  0.00  0.00    +0.000 A 
ATOM     21  C   UNL     1      -2.358  13.256  23.714  0.00  0.00    +0.000 A 
ATOM     22  C   UNL     1      -2.479  11.933  23.301  0.00  0.00    +0.000 A 
ATOM     23  C   UNL     1      -1.566  11.392  22.393  0.00  0.00    +0.000 A 
BRANCH  21  24
ATOM     24  O   UNL     1      -3.189  13.883  24.600  0.00  0.00    +0.000 OA
ATOM     25  C   UNL     1      -2.739  15.147  25.073  0.00  0.00    +0.000 C 
ENDBRANCH  21  24
ENDBRANCH   8  18
BRANCH   3  26
ATOM     26  N   UNL     1       3.094  13.755  18.982  0.00  0.00    +0.000 NA
ATOM     27  C   UNL     1       3.557  14.431  20.200  0.00  0.00    +0.000 C 
ATOM     28  C   UNL     1       2.958  15.824  20.164  0.00  0.00    +0.000 C 
ATOM     29  C   UNL     1       2.862  16.153  18.689  0.00  0.00    +0.000 C 
ATOM     30  C   UNL     1       3.008  14.823  17.966  0.00  0.00    +0.000 C 
ENDBRANCH   3  26
TORSDOF 5
ENDMDL
MODEL 9
REMARK VINA RESULT:      -6.6      3.001      6.167
REMARK  Name = 
REMARK  7 active torsions:
REMARK  status: ('A' for Active; 'I' for Inactive)
REMARK    1  A    between atoms: C_1  and  O_2
REMARK    2  A    between atoms: O_2  and  C_3
REMARK    3  A    between atoms: C_6  and  C_7
REMARK    4  A    between atoms: C_9  and  N_10
REMARK    5  A    between atoms: C_19  and  C_20
REMARK    6  A    between atoms: C_23  and  O_24
REMARK    7  A    between atoms: O_24  and  C_25
REMARK                            x       y       z     vdW  Elec       q    Type
REMARK                         _______ _______ _______ _____ _____    ______ ____
ROOT
ATOM      1  C   UNL     1      -1.476  11.351  19.668  0.00  0.00    +0.000 C 
ATOM      2  C   UNL     1      -2.363  12.234  20.582  0.00  0.00    +0.000 C 
ATOM      3  C   UNL     1      -1.662  13.576  20.924  0.00  0.00    +0.000 C 
ATOM      4  C   UNL     1      -0.458  13.170  21.825  0.00  0.00    +0.000 C 
ATOM      5  C   UNL     1       0.380  12.162  21.048  0.00  0.00    +0.000 C 
ATOM      6  O   UNL     1       1.310  11.543  21.565  0.00  0.00    +0.000 OA
ATOM      7  C   UNL     1      -0.045  11.944  19.596  0.00  0.00    +0.000 C 
ATOM      8  C   UNL     1      -0.048  13.322  18.914  0.00  0.00    +0.000 C 
ATOM      9  C   UNL     1      -1.030  14.253  19.657  0.00  0.00    +0.000 C 
ENDROOT
BRANCH   1  13
ATOM     10  C   UNL     1      -3.407  10.387  15.893  0.00  0.00    +0.000 A 
ATOM     11  C   UNL     1      -3.964  11.340  16.733  0.00  0.00    +0.000 A 
ATOM     12  C   UNL     1      -3.323  11.696  17.916  0.00  0.00    +0.000 A 
ATOM     13  C   UNL     1      -2.124  11.078  18.313  0.00  0.00    +0.000 A 
ATOM     14  C   UNL     1      -1.557  10.136  17.446  0.00  0.00    +0.000 A 
ATOM     15  C   UNL     1      -2.196   9.790  16.245  0.00  0.00    +0.000 A 
BRANCH  10  17
ATOM     16  C   UNL     1      -3.436   9.971  13.570  0.00  0.00    +0.000 C 
ATOM     17  O   UNL     1      -4.157  10.098  14.787  0.00  0.00    +0.000 OA
ENDBRANCH  10  17
ENDBRANCH   1  13
BRANCH   8  18
ATOM     18  C   UNL     1       1.340  13.904  18.690  0.00  0.00    +0.000 A 
ATOM     19  C   UNL     1       1.562  15.265  18.947  0.00  0.00    +0.000 A 
ATOM     20  C   UNL     1       2.832  15.828  18.782  0.00  0.00    +0.000 A 
ATOM     21  C   UNL     1       3.907  15.043  18.367  0.00  0.00    +0.000 A 
ATOM     22  C   UNL     1       3.694  13.698  18.081  0.00  0.00    +0.000 A 
ATOM     23  C   UNL     1       2.423  13.138  18.237  0.00  0.00    +0.000 A 
BRANCH  21  24
ATOM     24  O   UNL     1       5.103  15.693  18.245  0.00  0.00    +0.000 OA
ATOM     25  C   UNL     1       6.199  14.886  17.829  0.00  0.00    +0.000 C 
ENDBRANCH  21  24
ENDBRANCH   8  18
BRANCH   3  26
ATOM     26  N   UNL     1      -2.558  14.566  21.567  0.00  0.00    +0.000 NA
ATOM     27  C   UNL     1      -2.357  14.848  22.992  0.00  0.00    +0.000 C 
ATOM     28  C   UNL     1      -3.355  13.983  23.740  0.00  0.00    +0.000 C 
ATOM     29  C   UNL     1      -4.532  13.867  22.794  0.00  0.00    +0.000 C 
ATOM     30  C   UNL     1      -4.004  14.298  21.434  0.00  0.00    +0.000 C 
ENDBRANCH   3  26
TORSDOF 5
ENDMDL
