MODEL 1
REMARK VINA RESULT:      -4.6      0.000      0.000
REMARK  Name = 
REMARK  14 active torsions:
REMARK  status: ('A' for Active; 'I' for Inactive)
REMARK    1  A    between atoms: C_1  and  C_2
REMARK    2  A    between atoms: C_2  and  N_3
REMARK    3  A    between atoms: N_3  and  C_4
REMARK    4  A    between atoms: N_3  and  C_5
REMARK    5  A    between atoms: N_3  and  C_6
REMARK    6  A    between atoms: C_6  and  C_7
REMARK    7  A    between atoms: C_7  and  S_8
REMARK    8  A    between atoms: S_8  and  C_9
REMARK    9  A    between atoms: C_9  and  C_10
REMARK   10  A    between atoms: C_10  and  N_11
REMARK   11  A    between atoms: N_11  and  C_12
REMARK   12  A    between atoms: N_11  and  C_13
REMARK   13  A    between atoms: N_11  and  C_14
REMARK   14  A    between atoms: C_14  and  C_15
REMARK                            x       y       z     vdW  Elec       q    Type
REMARK                         _______ _______ _______ _____ _____    ______ ____
ROOT
ATOM      1  S   UNL     1       2.901   6.839  18.437  0.00  0.00    +0.000 S 
ENDROOT
BRANCH   1   2
ATOM      2  C   UNL     1       2.700   5.457  19.605  0.00  0.00    +0.000 C 
BRANCH   2   3
ATOM      3  C   UNL     1       1.695   4.457  19.011  0.00  0.00    +0.000 C 
BRANCH   3   4
ATOM      4  N   UNL     1       1.731   3.067  19.573  0.00  0.00    +0.000 N 
ATOM      5  C   UNL     1       0.803   2.186  18.818  0.00  0.00    +0.000 C 
ATOM      6  C   UNL     1       1.346   3.079  21.008  0.00  0.00    +0.000 C 
BRANCH   4   8
ATOM      7  C   UNL     1       3.516   1.974  18.061  0.00  0.00    +0.000 C 
ATOM      8  C   UNL     1       3.146   2.597  19.416  0.00  0.00    +0.000 C 
ENDBRANCH   4   8
ENDBRANCH   3   4
ENDBRANCH   2   3
ENDBRANCH   1   2
BRANCH   1   9
ATOM      9  C   UNL     1       4.256   6.030  17.532  0.00  0.00    +0.000 C 
BRANCH   9  10
ATOM     10  C   UNL     1       5.340   5.599  18.537  0.00  0.00    +0.000 C 
BRANCH  10  11
ATOM     11  N   UNL     1       6.758   5.720  18.065  0.00  0.00    +0.000 N 
ATOM     12  C   UNL     1       6.925   6.948  17.246  0.00  0.00    +0.000 C 
ATOM     13  C   UNL     1       7.685   5.769  19.225  0.00  0.00    +0.000 C 
BRANCH  11  14
ATOM     14  C   UNL     1       7.027   4.499  17.234  0.00  0.00    +0.000 C 
ATOM     15  C   UNL     1       7.098   4.711  15.711  0.00  0.00    +0.000 C 
ENDBRANCH  11  14
ENDBRANCH  10  11
ENDBRANCH   9  10
ENDBRANCH   1   9
TORSDOF 8
ENDMDL
MODEL 2
REMARK VINA RESULT:      -4.6      1.114      2.325
REMARK  Name = 
REMARK  14 active torsions:
REMARK  status: ('A' for Active; 'I' for Inactive)
REMARK    1  A    between atoms: C_1  and  C_2
REMARK    2  A    between atoms: C_2  and  N_3
REMARK    3  A    between atoms: N_3  and  C_4
REMARK    4  A    between atoms: N_3  and  C_5
REMARK    5  A    between atoms: N_3  and  C_6
REMARK    6  A    between atoms: C_6  and  C_7
REMARK    7  A    between atoms: C_7  and  S_8
REMARK    8  A    between atoms: S_8  and  C_9
REMARK    9  A    between atoms: C_9  and  C_10
REMARK   10  A    between atoms: C_10  and  N_11
REMARK   11  A    between atoms: N_11  and  C_12
REMARK   12  A    between atoms: N_11  and  C_13
REMARK   13  A    between atoms: N_11  and  C_14
REMARK   14  A    between atoms: C_14  and  C_15
REMARK                            x       y       z     vdW  Elec       q    Type
REMARK                         _______ _______ _______ _____ _____    ______ ____
ROOT
ATOM      1  S   UNL     1       3.307   6.512  18.423  0.00  0.00    +0.000 S 
ENDROOT
BRANCH   1   2
ATOM      2  C   UNL     1       3.388   5.366  19.836  0.00  0.00    +0.000 C 
BRANCH   2   3
ATOM      3  C   UNL     1       2.354   4.249  19.619  0.00  0.00    +0.000 C 
BRANCH   3   4
ATOM      4  N   UNL     1       2.725   2.892  20.137  0.00  0.00    +0.000 N 
ATOM      5  C   UNL     1       2.365   2.775  21.574  0.00  0.00    +0.000 C 
ATOM      6  C   UNL     1       4.182   2.656  19.971  0.00  0.00    +0.000 C 
BRANCH   4   8
ATOM      7  C   UNL     1       0.614   2.417  18.728  0.00  0.00    +0.000 C 
ATOM      8  C   UNL     1       1.941   1.912  19.317  0.00  0.00    +0.000 C 
ENDBRANCH   4   8
ENDBRANCH   3   4
ENDBRANCH   2   3
ENDBRANCH   1   2
BRANCH   1   9
ATOM      9  C   UNL     1       3.984   5.297  17.251  0.00  0.00    +0.000 C 
BRANCH   9  10
ATOM     10  C   UNL     1       5.070   5.979  16.396  0.00  0.00    +0.000 C 
BRANCH  10  11
ATOM     11  N   UNL     1       6.473   5.495  16.609  0.00  0.00    +0.000 N 
ATOM     12  C   UNL     1       6.501   4.441  17.655  0.00  0.00    +0.000 C 
ATOM     13  C   UNL     1       7.027   4.950  15.343  0.00  0.00    +0.000 C 
BRANCH  11  14
ATOM     14  C   UNL     1       7.264   6.691  17.052  0.00  0.00    +0.000 C 
ATOM     15  C   UNL     1       7.826   6.646  18.486  0.00  0.00    +0.000 C 
ENDBRANCH  11  14
ENDBRANCH  10  11
ENDBRANCH   9  10
ENDBRANCH   1   9
TORSDOF 8
ENDMDL
MODEL 3
REMARK VINA RESULT:      -4.6      1.375      5.896
REMARK  Name = 
REMARK  14 active torsions:
REMARK  status: ('A' for Active; 'I' for Inactive)
REMARK    1  A    between atoms: C_1  and  C_2
REMARK    2  A    between atoms: C_2  and  N_3
REMARK    3  A    between atoms: N_3  and  C_4
REMARK    4  A    between atoms: N_3  and  C_5
REMARK    5  A    between atoms: N_3  and  C_6
REMARK    6  A    between atoms: C_6  and  C_7
REMARK    7  A    between atoms: C_7  and  S_8
REMARK    8  A    between atoms: S_8  and  C_9
REMARK    9  A    between atoms: C_9  and  C_10
REMARK   10  A    between atoms: C_10  and  N_11
REMARK   11  A    between atoms: N_11  and  C_12
REMARK   12  A    between atoms: N_11  and  C_13
REMARK   13  A    between atoms: N_11  and  C_14
REMARK   14  A    between atoms: C_14  and  C_15
REMARK                            x       y       z     vdW  Elec       q    Type
REMARK                         _______ _______ _______ _____ _____    ______ ____
ROOT
ATOM      1  S   UNL     1       3.597   3.875  17.290  0.00  0.00    +0.000 S 
ENDROOT
BRANCH   1   2
ATOM      2  C   UNL     1       4.267   5.565  17.400  0.00  0.00    +0.000 C 
BRANCH   2   3
ATOM      3  C   UNL     1       5.531   5.534  18.276  0.00  0.00    +0.000 C 
BRANCH   3   4
ATOM      4  N   UNL     1       6.840   5.661  17.557  0.00  0.00    +0.000 N 
ATOM      5  C   UNL     1       6.612   6.042  16.139  0.00  0.00    +0.000 C 
ATOM      6  C   UNL     1       7.586   4.377  17.612  0.00  0.00    +0.000 C 
BRANCH   4   8
ATOM      7  C   UNL     1       7.710   8.093  17.559  0.00  0.00    +0.000 C 
ATOM      8  C   UNL     1       7.599   6.736  18.275  0.00  0.00    +0.000 C 
ENDBRANCH   4   8
ENDBRANCH   3   4
ENDBRANCH   2   3
ENDBRANCH   1   2
BRANCH   1   9
ATOM      9  C   UNL     1       4.165   3.416  18.956  0.00  0.00    +0.000 C 
BRANCH   9  10
ATOM     10  C   UNL     1       3.091   2.540  19.626  0.00  0.00    +0.000 C 
BRANCH  10  11
ATOM     11  N   UNL     1       2.064   3.268  20.442  0.00  0.00    +0.000 N 
ATOM     12  C   UNL     1       0.813   3.441  19.660  0.00  0.00    +0.000 C 
ATOM     13  C   UNL     1       1.769   2.516  21.688  0.00  0.00    +0.000 C 
BRANCH  11  14
ATOM     14  C   UNL     1       2.663   4.605  20.768  0.00  0.00    +0.000 C 
ATOM     15  C   UNL     1       1.793   5.838  20.461  0.00  0.00    +0.000 C 
ENDBRANCH  11  14
ENDBRANCH  10  11
ENDBRANCH   9  10
ENDBRANCH   1   9
TORSDOF 8
ENDMDL
MODEL 4
REMARK VINA RESULT:      -4.5      0.993      1.776
REMARK  Name = 
REMARK  14 active torsions:
REMARK  status: ('A' for Active; 'I' for Inactive)
REMARK    1  A    between atoms: C_1  and  C_2
REMARK    2  A    between atoms: C_2  and  N_3
REMARK    3  A    between atoms: N_3  and  C_4
REMARK    4  A    between atoms: N_3  and  C_5
REMARK    5  A    between atoms: N_3  and  C_6
REMARK    6  A    between atoms: C_6  and  C_7
REMARK    7  A    between atoms: C_7  and  S_8
REMARK    8  A    between atoms: S_8  and  C_9
REMARK    9  A    between atoms: C_9  and  C_10
REMARK   10  A    between atoms: C_10  and  N_11
REMARK   11  A    between atoms: N_11  and  C_12
REMARK   12  A    between atoms: N_11  and  C_13
REMARK   13  A    between atoms: N_11  and  C_14
REMARK   14  A    between atoms: C_14  and  C_15
REMARK                            x       y       z     vdW  Elec       q    Type
REMARK                         _______ _______ _______ _____ _____    ______ ____
ROOT
ATOM      1  S   UNL     1       3.129   6.498  18.310  0.00  0.00    +0.000 S 
ENDROOT
BRANCH   1   2
ATOM      2  C   UNL     1       3.180   5.536  19.856  0.00  0.00    +0.000 C 
BRANCH   2   3
ATOM      3  C   UNL     1       3.192   4.040  19.501  0.00  0.00    +0.000 C 
BRANCH   3   4
ATOM      4  N   UNL     1       2.129   3.198  20.139  0.00  0.00    +0.000 N 
ATOM      5  C   UNL     1       0.851   3.951  20.209  0.00  0.00    +0.000 C 
ATOM      6  C   UNL     1       2.542   2.794  21.508  0.00  0.00    +0.000 C 
BRANCH   4   8
ATOM      7  C   UNL     1       3.042   1.805  18.165  0.00  0.00    +0.000 C 
ATOM      8  C   UNL     1       1.981   1.991  19.261  0.00  0.00    +0.000 C 
ENDBRANCH   4   8
ENDBRANCH   3   4
ENDBRANCH   2   3
ENDBRANCH   1   2
BRANCH   1   9
ATOM      9  C   UNL     1       4.001   5.222  17.352  0.00  0.00    +0.000 C 
BRANCH   9  10
ATOM     10  C   UNL     1       5.075   5.900  16.480  0.00  0.00    +0.000 C 
BRANCH  10  11
ATOM     11  N   UNL     1       6.499   5.617  16.855  0.00  0.00    +0.000 N 
ATOM     12  C   UNL     1       7.162   4.815  15.795  0.00  0.00    +0.000 C 
ATOM     13  C   UNL     1       7.242   6.889  17.051  0.00  0.00    +0.000 C 
BRANCH  11  14
ATOM     14  C   UNL     1       6.447   4.841  18.139  0.00  0.00    +0.000 C 
ATOM     15  C   UNL     1       7.103   5.502  19.365  0.00  0.00    +0.000 C 
ENDBRANCH  11  14
ENDBRANCH  10  11
ENDBRANCH   9  10
ENDBRANCH   1   9
TORSDOF 8
ENDMDL
MODEL 5
REMARK VINA RESULT:      -4.5      0.808      1.704
REMARK  Name = 
REMARK  14 active torsions:
REMARK  status: ('A' for Active; 'I' for Inactive)
REMARK    1  A    between atoms: C_1  and  C_2
REMARK    2  A    between atoms: C_2  and  N_3
REMARK    3  A    between atoms: N_3  and  C_4
REMARK    4  A    between atoms: N_3  and  C_5
REMARK    5  A    between atoms: N_3  and  C_6
REMARK    6  A    between atoms: C_6  and  C_7
REMARK    7  A    between atoms: C_7  and  S_8
REMARK    8  A    between atoms: S_8  and  C_9
REMARK    9  A    between atoms: C_9  and  C_10
REMARK   10  A    between atoms: C_10  and  N_11
REMARK   11  A    between atoms: N_11  and  C_12
REMARK   12  A    between atoms: N_11  and  C_13
REMARK   13  A    between atoms: N_11  and  C_14
REMARK   14  A    between atoms: C_14  and  C_15
REMARK                            x       y       z     vdW  Elec       q    Type
REMARK                         _______ _______ _______ _____ _____    ______ ____
ROOT
ATOM      1  S   UNL     1       3.328   6.877  18.264  0.00  0.00    +0.000 S 
ENDROOT
BRANCH   1   2
ATOM      2  C   UNL     1       2.320   5.702  19.223  0.00  0.00    +0.000 C 
BRANCH   2   3
ATOM      3  C   UNL     1       2.180   4.402  18.413  0.00  0.00    +0.000 C 
BRANCH   3   4
ATOM      4  N   UNL     1       2.118   3.131  19.204  0.00  0.00    +0.000 N 
ATOM      5  C   UNL     1       0.764   2.957  19.790  0.00  0.00    +0.000 C 
ATOM      6  C   UNL     1       3.130   3.148  20.292  0.00  0.00    +0.000 C 
BRANCH   4   8
ATOM      7  C   UNL     1       3.741   1.275  18.434  0.00  0.00    +0.000 C 
ATOM      8  C   UNL     1       2.415   2.028  18.232  0.00  0.00    +0.000 C 
ENDBRANCH   4   8
ENDBRANCH   3   4
ENDBRANCH   2   3
ENDBRANCH   1   2
BRANCH   1   9
ATOM      9  C   UNL     1       4.461   5.589  17.658  0.00  0.00    +0.000 C 
BRANCH   9  10
ATOM     10  C   UNL     1       5.623   5.436  18.657  0.00  0.00    +0.000 C 
BRANCH  10  11
ATOM     11  N   UNL     1       6.998   5.672  18.107  0.00  0.00    +0.000 N 
ATOM     12  C   UNL     1       7.972   5.851  19.213  0.00  0.00    +0.000 C 
ATOM     13  C   UNL     1       7.416   4.526  17.259  0.00  0.00    +0.000 C 
BRANCH  11  14
ATOM     14  C   UNL     1       6.908   6.925  17.284  0.00  0.00    +0.000 C 
ATOM     15  C   UNL     1       7.824   8.088  17.707  0.00  0.00    +0.000 C 
ENDBRANCH  11  14
ENDBRANCH  10  11
ENDBRANCH   9  10
ENDBRANCH   1   9
TORSDOF 8
ENDMDL
MODEL 6
REMARK VINA RESULT:      -4.5      1.177      5.153
REMARK  Name = 
REMARK  14 active torsions:
REMARK  status: ('A' for Active; 'I' for Inactive)
REMARK    1  A    between atoms: C_1  and  C_2
REMARK    2  A    between atoms: C_2  and  N_3
REMARK    3  A    between atoms: N_3  and  C_4
REMARK    4  A    between atoms: N_3  and  C_5
REMARK    5  A    between atoms: N_3  and  C_6
REMARK    6  A    between atoms: C_6  and  C_7
REMARK    7  A    between atoms: C_7  and  S_8
REMARK    8  A    between atoms: S_8  and  C_9
REMARK    9  A    between atoms: C_9  and  C_10
REMARK   10  A    between atoms: C_10  and  N_11
REMARK   11  A    between atoms: N_11  and  C_12
REMARK   12  A    between atoms: N_11  and  C_13
REMARK   13  A    between atoms: N_11  and  C_14
REMARK   14  A    between atoms: C_14  and  C_15
REMARK                            x       y       z     vdW  Elec       q    Type
REMARK                         _______ _______ _______ _____ _____    ______ ____
ROOT
ATOM      1  S   UNL     1       2.620   6.933  18.754  0.00  0.00    +0.000 S 
ENDROOT
BRANCH   1   2
ATOM      2  C   UNL     1       3.944   6.789  17.512  0.00  0.00    +0.000 C 
BRANCH   2   3
ATOM      3  C   UNL     1       4.353   5.311  17.400  0.00  0.00    +0.000 C 
BRANCH   3   4
ATOM      4  N   UNL     1       5.783   5.043  17.040  0.00  0.00    +0.000 N 
ATOM      5  C   UNL     1       6.536   4.586  18.237  0.00  0.00    +0.000 C 
ATOM      6  C   UNL     1       6.418   6.270  16.494  0.00  0.00    +0.000 C 
BRANCH   4   8
ATOM      7  C   UNL     1       5.586   4.426  14.540  0.00  0.00    +0.000 C 
ATOM      8  C   UNL     1       5.748   3.966  15.998  0.00  0.00    +0.000 C 
ENDBRANCH   4   8
ENDBRANCH   3   4
ENDBRANCH   2   3
ENDBRANCH   1   2
BRANCH   1   9
ATOM      9  C   UNL     1       3.209   5.506  19.716  0.00  0.00    +0.000 C 
BRANCH   9  10
ATOM     10  C   UNL     1       1.992   4.720  20.240  0.00  0.00    +0.000 C 
BRANCH  10  11
ATOM     11  N   UNL     1       2.143   3.229  20.285  0.00  0.00    +0.000 N 
ATOM     12  C   UNL     1       3.576   2.853  20.186  0.00  0.00    +0.000 C 
ATOM     13  C   UNL     1       1.576   2.692  21.549  0.00  0.00    +0.000 C 
BRANCH  11  14
ATOM     14  C   UNL     1       1.382   2.697  19.105  0.00  0.00    +0.000 C 
ATOM     15  C   UNL     1       2.214   2.340  17.859  0.00  0.00    +0.000 C 
ENDBRANCH  11  14
ENDBRANCH  10  11
ENDBRANCH   9  10
ENDBRANCH   1   9
TORSDOF 8
ENDMDL
MODEL 7
REMARK VINA RESULT:      -4.5      1.443      2.523
REMARK  Name = 
REMARK  14 active torsions:
REMARK  status: ('A' for Active; 'I' for Inactive)
REMARK    1  A    between atoms: C_1  and  C_2
REMARK    2  A    between atoms: C_2  and  N_3
REMARK    3  A    between atoms: N_3  and  C_4
REMARK    4  A    between atoms: N_3  and  C_5
REMARK    5  A    between atoms: N_3  and  C_6
REMARK    6  A    between atoms: C_6  and  C_7
REMARK    7  A    between atoms: C_7  and  S_8
REMARK    8  A    between atoms: S_8  and  C_9
REMARK    9  A    between atoms: C_9  and  C_10
REMARK   10  A    between atoms: C_10  and  N_11
REMARK   11  A    between atoms: N_11  and  C_12
REMARK   12  A    between atoms: N_11  and  C_13
REMARK   13  A    between atoms: N_11  and  C_14
REMARK   14  A    between atoms: C_14  and  C_15
REMARK                            x       y       z     vdW  Elec       q    Type
REMARK                         _______ _______ _______ _____ _____    ______ ____
ROOT
ATOM      1  S   UNL     1       2.863   6.703  18.479  0.00  0.00    +0.000 S 
ENDROOT
BRANCH   1   2
ATOM      2  C   UNL     1       2.262   5.059  18.982  0.00  0.00    +0.000 C 
BRANCH   2   3
ATOM      3  C   UNL     1       3.354   4.373  19.819  0.00  0.00    +0.000 C 
BRANCH   3   4
ATOM      4  N   UNL     1       3.165   2.911  20.087  0.00  0.00    +0.000 N 
ATOM      5  C   UNL     1       4.450   2.187  19.910  0.00  0.00    +0.000 C 
ATOM      6  C   UNL     1       2.146   2.344  19.167  0.00  0.00    +0.000 C 
BRANCH   4   8
ATOM      7  C   UNL     1       1.198   2.549  21.721  0.00  0.00    +0.000 C 
ATOM      8  C   UNL     1       2.698   2.812  21.509  0.00  0.00    +0.000 C 
ENDBRANCH   4   8
ENDBRANCH   3   4
ENDBRANCH   2   3
ENDBRANCH   1   2
BRANCH   1   9
ATOM      9  C   UNL     1       4.575   6.134  18.248  0.00  0.00    +0.000 C 
BRANCH   9  10
ATOM     10  C   UNL     1       4.905   6.140  16.744  0.00  0.00    +0.000 C 
BRANCH  10  11
ATOM     11  N   UNL     1       5.648   4.943  16.230  0.00  0.00    +0.000 N 
ATOM     12  C   UNL     1       6.992   4.863  16.857  0.00  0.00    +0.000 C 
ATOM     13  C   UNL     1       4.890   3.701  16.523  0.00  0.00    +0.000 C 
BRANCH  11  14
ATOM     14  C   UNL     1       5.777   5.138  14.747  0.00  0.00    +0.000 C 
ATOM     15  C   UNL     1       6.208   3.906  13.930  0.00  0.00    +0.000 C 
ENDBRANCH  11  14
ENDBRANCH  10  11
ENDBRANCH   9  10
ENDBRANCH   1   9
TORSDOF 8
ENDMDL
MODEL 8
REMARK VINA RESULT:      -4.4      0.876      5.427
REMARK  Name = 
REMARK  14 active torsions:
REMARK  status: ('A' for Active; 'I' for Inactive)
REMARK    1  A    between atoms: C_1  and  C_2
REMARK    2  A    between atoms: C_2  and  N_3
REMARK    3  A    between atoms: N_3  and  C_4
REMARK    4  A    between atoms: N_3  and  C_5
REMARK    5  A    between atoms: N_3  and  C_6
REMARK    6  A    between atoms: C_6  and  C_7
REMARK    7  A    between atoms: C_7  and  S_8
REMARK    8  A    between atoms: S_8  and  C_9
REMARK    9  A    between atoms: C_9  and  C_10
REMARK   10  A    between atoms: C_10  and  N_11
REMARK   11  A    between atoms: N_11  and  C_12
REMARK   12  A    between atoms: N_11  and  C_13
REMARK   13  A    between atoms: N_11  and  C_14
REMARK   14  A    between atoms: C_14  and  C_15
REMARK                            x       y       z     vdW  Elec       q    Type
REMARK                         _______ _______ _______ _____ _____    ______ ____
ROOT
ATOM      1  S   UNL     1       2.620   7.032  19.194  0.00  0.00    +0.000 S 
ENDROOT
BRANCH   1   2
ATOM      2  C   UNL     1       3.656   6.884  17.704  0.00  0.00    +0.000 C 
BRANCH   2   3
ATOM      3  C   UNL     1       4.883   6.023  18.045  0.00  0.00    +0.000 C 
BRANCH   3   4
ATOM      4  N   UNL     1       5.841   5.757  16.923  0.00  0.00    +0.000 N 
ATOM      5  C   UNL     1       5.286   6.270  15.643  0.00  0.00    +0.000 C 
ATOM      6  C   UNL     1       6.103   4.300  16.800  0.00  0.00    +0.000 C 
BRANCH   4   8
ATOM      7  C   UNL     1       7.703   6.182  18.661  0.00  0.00    +0.000 C 
ATOM      8  C   UNL     1       7.102   6.486  17.278  0.00  0.00    +0.000 C 
ENDBRANCH   4   8
ENDBRANCH   3   4
ENDBRANCH   2   3
ENDBRANCH   1   2
BRANCH   1   9
ATOM      9  C   UNL     1       2.928   5.319  19.721  0.00  0.00    +0.000 C 
BRANCH   9  10
ATOM     10  C   UNL     1       1.702   4.459  19.363  0.00  0.00    +0.000 C 
BRANCH  10  11
ATOM     11  N   UNL     1       1.788   3.008  19.731  0.00  0.00    +0.000 N 
ATOM     12  C   UNL     1       1.466   2.822  21.169  0.00  0.00    +0.000 C 
ATOM     13  C   UNL     1       0.845   2.211  18.906  0.00  0.00    +0.000 C 
BRANCH  11  14
ATOM     14  C   UNL     1       3.203   2.590  19.456  0.00  0.00    +0.000 C 
ATOM     15  C   UNL     1       3.437   1.767  18.176  0.00  0.00    +0.000 C 
ENDBRANCH  11  14
ENDBRANCH  10  11
ENDBRANCH   9  10
ENDBRANCH   1   9
TORSDOF 8
ENDMDL
MODEL 9
REMARK VINA RESULT:      -4.4      1.043      1.892
REMARK  Name = 
REMARK  14 active torsions:
REMARK  status: ('A' for Active; 'I' for Inactive)
REMARK    1  A    between atoms: C_1  and  C_2
REMARK    2  A    between atoms: C_2  and  N_3
REMARK    3  A    between atoms: N_3  and  C_4
REMARK    4  A    between atoms: N_3  and  C_5
REMARK    5  A    between atoms: N_3  and  C_6
REMARK    6  A    between atoms: C_6  and  C_7
REMARK    7  A    between atoms: C_7  and  S_8
REMARK    8  A    between atoms: S_8  and  C_9
REMARK    9  A    between atoms: C_9  and  C_10
REMARK   10  A    between atoms: C_10  and  N_11
REMARK   11  A    between atoms: N_11  and  C_12
REMARK   12  A    between atoms: N_11  and  C_13
REMARK   13  A    between atoms: N_11  and  C_14
REMARK   14  A    between atoms: C_14  and  C_15
REMARK                            x       y       z     vdW  Elec       q    Type
REMARK                         _______ _______ _______ _____ _____    ______ ____
ROOT
ATOM      1  S   UNL     1       3.184   6.481  18.111  0.00  0.00    +0.000 S 
ENDROOT
BRANCH   1   2
ATOM      2  C   UNL     1       3.676   4.809  18.637  0.00  0.00    +0.000 C 
BRANCH   2   3
ATOM      3  C   UNL     1       2.582   4.244  19.558  0.00  0.00    +0.000 C 
BRANCH   3   4
ATOM      4  N   UNL     1       2.219   2.804  19.352  0.00  0.00    +0.000 N 
ATOM      5  C   UNL     1       3.306   2.100  18.625  0.00  0.00    +0.000 C 
ATOM      6  C   UNL     1       0.954   2.695  18.579  0.00  0.00    +0.000 C 
BRANCH   4   8
ATOM      7  C   UNL     1       2.048   3.221  21.895  0.00  0.00    +0.000 C 
ATOM      8  C   UNL     1       2.043   2.225  20.724  0.00  0.00    +0.000 C 
ENDBRANCH   4   8
ENDBRANCH   3   4
ENDBRANCH   2   3
ENDBRANCH   1   2
BRANCH   1   9
ATOM      9  C   UNL     1       4.617   6.683  17.010  0.00  0.00    +0.000 C 
BRANCH   9  10
ATOM     10  C   UNL     1       5.377   5.346  16.930  0.00  0.00    +0.000 C 
BRANCH  10  11
ATOM     11  N   UNL     1       6.863   5.444  16.755  0.00  0.00    +0.000 N 
ATOM     12  C   UNL     1       7.317   6.840  16.984  0.00  0.00    +0.000 C 
ATOM     13  C   UNL     1       7.555   4.537  17.706  0.00  0.00    +0.000 C 
BRANCH  11  14
ATOM     14  C   UNL     1       7.145   5.030  15.340  0.00  0.00    +0.000 C 
ATOM     15  C   UNL     1       6.154   4.034  14.709  0.00  0.00    +0.000 C 
ENDBRANCH  11  14
ENDBRANCH  10  11
ENDBRANCH   9  10
ENDBRANCH   1   9
TORSDOF 8
ENDMDL
