MODEL 1
REMARK VINA RESULT:      -8.8      0.000      0.000
REMARK  Name = 
REMARK  2 active torsions:
REMARK  status: ('A' for Active; 'I' for Inactive)
REMARK    1  A    between atoms: C_1  and  C_2
REMARK    2  A    between atoms: N_11  and  C_12
REMARK                            x       y       z     vdW  Elec       q    Type
REMARK                         _______ _______ _______ _____ _____    ______ ____
ROOT
ATOM      1  C   UNL     1      -1.112  12.638  17.940  0.00  0.00    +0.000 C 
ATOM      2  C   UNL     1      -0.913  12.111  19.333  0.00  0.00    +0.000 A 
ATOM      3  C   UNL     1      -1.576  12.666  20.425  0.00  0.00    +0.000 A 
ATOM      4  C   UNL     1      -1.356  12.151  21.700  0.00  0.00    +0.000 A 
ATOM      5  C   UNL     1      -0.494  11.064  21.888  0.00  0.00    +0.000 A 
ATOM      6  C   UNL     1       0.179  10.468  20.800  0.00  0.00    +0.000 A 
ATOM      7  C   UNL     1      -0.037  11.030  19.531  0.00  0.00    +0.000 A 
ATOM      8  N   UNL     1       1.062   9.338  21.022  0.00  0.00    +0.000 N 
ATOM      9  C   UNL     1       1.486   8.500  19.975  0.00  0.00    +0.000 C 
ATOM     10  O   UNL     1       1.139   8.634  18.806  0.00  0.00    +0.000 OA
ATOM     11  N   UNL     1       2.296   7.425  20.349  0.00  0.00    +0.000 N 
ATOM     12  C   UNL     1       1.433   9.204  22.444  0.00  0.00    +0.000 C 
ATOM     13  C   UNL     1       0.192   9.345  23.315  0.00  0.00    +0.000 C 
ATOM     14  O   UNL     1      -0.377  10.648  23.195  0.00  0.00    +0.000 OA
ATOM     15  H   UNL     1       2.077   7.027  21.245  0.00  0.00    +0.000 HD
ENDROOT
BRANCH  11  16
ATOM     16  C   UNL     1       2.702   6.472  19.367  0.00  0.00    +0.000 A 
ATOM     17  C   UNL     1       3.542   6.887  18.324  0.00  0.00    +0.000 A 
ATOM     18  C   UNL     1       3.970   5.986  17.350  0.00  0.00    +0.000 A 
ATOM     19  C   UNL     1       3.564   4.660  17.410  0.00  0.00    +0.000 A 
ATOM     20  C   UNL     1       2.737   4.210  18.449  0.00  0.00    +0.000 A 
ATOM     21  C   UNL     1       2.287   5.122  19.437  0.00  0.00    +0.000 A 
ATOM     22  C   UNL     1       1.347   4.645  20.525  0.00  0.00    +0.000 C 
ATOM     23  C   UNL     1       0.661   3.315  20.215  0.00  0.00    +0.000 C 
ATOM     24  C   UNL     1       1.680   2.297  19.729  0.00  0.00    +0.000 C 
ATOM     25  C   UNL     1       2.286   2.769  18.414  0.00  0.00    +0.000 C 
ENDBRANCH  11  16
TORSDOF 1
ENDMDL
MODEL 2
REMARK VINA RESULT:      -8.0      1.678      2.105
REMARK  Name = 
REMARK  2 active torsions:
REMARK  status: ('A' for Active; 'I' for Inactive)
REMARK    1  A    between atoms: C_1  and  C_2
REMARK    2  A    between atoms: N_11  and  C_12
REMARK                            x       y       z     vdW  Elec       q    Type
REMARK                         _______ _______ _______ _____ _____    ______ ____
ROOT
ATOM      1  C   UNL     1      -2.886  10.434  15.471  0.00  0.00    +0.000 C 
ATOM      2  C   UNL     1      -2.458  10.743  16.878  0.00  0.00    +0.000 A 
ATOM      3  C   UNL     1      -3.226  11.552  17.713  0.00  0.00    +0.000 A 
ATOM      4  C   UNL     1      -2.787  11.819  19.008  0.00  0.00    +0.000 A 
ATOM      5  C   UNL     1      -1.595  11.260  19.484  0.00  0.00    +0.000 A 
ATOM      6  C   UNL     1      -0.804  10.423  18.669  0.00  0.00    +0.000 A 
ATOM      7  C   UNL     1      -1.254  10.199  17.357  0.00  0.00    +0.000 A 
ATOM      8  N   UNL     1       0.424   9.852  19.189  0.00  0.00    +0.000 N 
ATOM      9  C   UNL     1       1.068   8.765  18.569  0.00  0.00    +0.000 C 
ATOM     10  O   UNL     1       0.648   8.201  17.565  0.00  0.00    +0.000 OA
ATOM     11  N   UNL     1       2.215   8.293  19.212  0.00  0.00    +0.000 N 
ATOM     12  C   UNL     1       0.878  10.547  20.409  0.00  0.00    +0.000 C 
ATOM     13  C   UNL     1      -0.297  10.743  21.356  0.00  0.00    +0.000 C 
ATOM     14  O   UNL     1      -1.287  11.596  20.782  0.00  0.00    +0.000 OA
ATOM     15  H   UNL     1       2.185   8.346  20.215  0.00  0.00    +0.000 HD
ENDROOT
BRANCH  11  16
ATOM     16  C   UNL     1       2.885   7.139  18.705  0.00  0.00    +0.000 A 
ATOM     17  C   UNL     1       3.741   7.280  17.605  0.00  0.00    +0.000 A 
ATOM     18  C   UNL     1       4.422   6.180  17.084  0.00  0.00    +0.000 A 
ATOM     19  C   UNL     1       4.255   4.928  17.660  0.00  0.00    +0.000 A 
ATOM     20  C   UNL     1       3.417   4.758  18.771  0.00  0.00    +0.000 A 
ATOM     21  C   UNL     1       2.711   5.868  19.300  0.00  0.00    +0.000 A 
ATOM     22  C   UNL     1       1.762   5.669  20.463  0.00  0.00    +0.000 C 
ATOM     23  C   UNL     1       1.359   4.212  20.695  0.00  0.00    +0.000 C 
ATOM     24  C   UNL     1       2.588   3.317  20.683  0.00  0.00    +0.000 C 
ATOM     25  C   UNL     1       3.235   3.356  19.305  0.00  0.00    +0.000 C 
ENDBRANCH  11  16
TORSDOF 1
ENDMDL
MODEL 3
REMARK VINA RESULT:      -7.8      1.755      7.633
REMARK  Name = 
REMARK  2 active torsions:
REMARK  status: ('A' for Active; 'I' for Inactive)
REMARK    1  A    between atoms: C_1  and  C_2
REMARK    2  A    between atoms: N_11  and  C_12
REMARK                            x       y       z     vdW  Elec       q    Type
REMARK                         _______ _______ _______ _____ _____    ______ ____
ROOT
ATOM      1  C   UNL     1       1.656   2.540  21.950  0.00  0.00    +0.000 C 
ATOM      2  C   UNL     1       2.360   3.164  20.779  0.00  0.00    +0.000 A 
ATOM      3  C   UNL     1       3.080   2.396  19.866  0.00  0.00    +0.000 A 
ATOM      4  C   UNL     1       3.725   3.017  18.799  0.00  0.00    +0.000 A 
ATOM      5  C   UNL     1       3.633   4.403  18.623  0.00  0.00    +0.000 A 
ATOM      6  C   UNL     1       2.898   5.206  19.521  0.00  0.00    +0.000 A 
ATOM      7  C   UNL     1       2.287   4.556  20.605  0.00  0.00    +0.000 A 
ATOM      8  N   UNL     1       2.815   6.640  19.312  0.00  0.00    +0.000 N 
ATOM      9  C   UNL     1       1.846   7.436  19.949  0.00  0.00    +0.000 C 
ATOM     10  O   UNL     1       0.989   6.997  20.709  0.00  0.00    +0.000 OA
ATOM     11  N   UNL     1       1.859   8.793  19.613  0.00  0.00    +0.000 N 
ATOM     12  C   UNL     1       3.850   7.118  18.375  0.00  0.00    +0.000 C 
ATOM     13  C   UNL     1       3.905   6.204  17.159  0.00  0.00    +0.000 C 
ATOM     14  O   UNL     1       4.307   4.883  17.524  0.00  0.00    +0.000 OA
ATOM     15  H   UNL     1       2.111   8.985  18.660  0.00  0.00    +0.000 HD
ENDROOT
BRANCH  11  16
ATOM     16  C   UNL     1       0.858   9.661  20.143  0.00  0.00    +0.000 A 
ATOM     17  C   UNL     1       0.914  10.015  21.498  0.00  0.00    +0.000 A 
ATOM     18  C   UNL     1      -0.039  10.868  22.053  0.00  0.00    +0.000 A 
ATOM     19  C   UNL     1      -1.056  11.378  21.258  0.00  0.00    +0.000 A 
ATOM     20  C   UNL     1      -1.131  11.055  19.896  0.00  0.00    +0.000 A 
ATOM     21  C   UNL     1      -0.173  10.178  19.326  0.00  0.00    +0.000 A 
ATOM     22  C   UNL     1      -0.291   9.786  17.867  0.00  0.00    +0.000 C 
ATOM     23  C   UNL     1      -1.665  10.064  17.257  0.00  0.00    +0.000 C 
ATOM     24  C   UNL     1      -2.120  11.472  17.601  0.00  0.00    +0.000 C 
ATOM     25  C   UNL     1      -2.301  11.597  19.108  0.00  0.00    +0.000 C 
ENDBRANCH  11  16
TORSDOF 1
ENDMDL
MODEL 4
REMARK VINA RESULT:      -7.8      1.845      2.983
REMARK  Name = 
REMARK  2 active torsions:
REMARK  status: ('A' for Active; 'I' for Inactive)
REMARK    1  A    between atoms: C_1  and  C_2
REMARK    2  A    between atoms: N_11  and  C_12
REMARK                            x       y       z     vdW  Elec       q    Type
REMARK                         _______ _______ _______ _____ _____    ______ ____
ROOT
ATOM      1  C   UNL     1      -0.589   9.359  23.460  0.00  0.00    +0.000 C 
ATOM      2  C   UNL     1      -0.146   9.977  22.164  0.00  0.00    +0.000 A 
ATOM      3  C   UNL     1      -0.377  11.321  21.879  0.00  0.00    +0.000 A 
ATOM      4  C   UNL     1       0.044  11.850  20.662  0.00  0.00    +0.000 A 
ATOM      5  C   UNL     1       0.720  11.049  19.734  0.00  0.00    +0.000 A 
ATOM      6  C   UNL     1       0.985   9.688  20.000  0.00  0.00    +0.000 A 
ATOM      7  C   UNL     1       0.519   9.174  21.221  0.00  0.00    +0.000 A 
ATOM      8  N   UNL     1       1.692   8.882  19.023  0.00  0.00    +0.000 N 
ATOM      9  C   UNL     1       2.277   7.645  19.353  0.00  0.00    +0.000 C 
ATOM     10  O   UNL     1       2.260   7.157  20.478  0.00  0.00    +0.000 OA
ATOM     11  N   UNL     1       2.966   7.005  18.320  0.00  0.00    +0.000 N 
ATOM     12  C   UNL     1       1.707   9.519  17.693  0.00  0.00    +0.000 C 
ATOM     13  C   UNL     1       2.074  10.990  17.831  0.00  0.00    +0.000 C 
ATOM     14  O   UNL     1       1.088  11.700  18.580  0.00  0.00    +0.000 OA
ATOM     15  H   UNL     1       3.439   7.624  17.686  0.00  0.00    +0.000 HD
ENDROOT
BRANCH  11  16
ATOM     16  C   UNL     1       3.666   5.790  18.585  0.00  0.00    +0.000 A 
ATOM     17  C   UNL     1       5.053   5.834  18.783  0.00  0.00    +0.000 A 
ATOM     18  C   UNL     1       5.774   4.672  19.054  0.00  0.00    +0.000 A 
ATOM     19  C   UNL     1       5.114   3.453  19.131  0.00  0.00    +0.000 A 
ATOM     20  C   UNL     1       3.726   3.377  18.953  0.00  0.00    +0.000 A 
ATOM     21  C   UNL     1       2.986   4.553  18.665  0.00  0.00    +0.000 A 
ATOM     22  C   UNL     1       1.495   4.459  18.416  0.00  0.00    +0.000 C 
ATOM     23  C   UNL     1       1.004   3.044  18.107  0.00  0.00    +0.000 C 
ATOM     24  C   UNL     1       1.569   2.058  19.116  0.00  0.00    +0.000 C 
ATOM     25  C   UNL     1       3.086   2.009  18.989  0.00  0.00    +0.000 C 
ENDBRANCH  11  16
TORSDOF 1
ENDMDL
MODEL 5
REMARK VINA RESULT:      -7.7      2.008      3.944
REMARK  Name = 
REMARK  2 active torsions:
REMARK  status: ('A' for Active; 'I' for Inactive)
REMARK    1  A    between atoms: C_1  and  C_2
REMARK    2  A    between atoms: N_11  and  C_12
REMARK                            x       y       z     vdW  Elec       q    Type
REMARK                         _______ _______ _______ _____ _____    ______ ____
ROOT
ATOM      1  C   UNL     1      -0.676   9.343  23.326  0.00  0.00    +0.000 C 
ATOM      2  C   UNL     1      -0.136  10.126  22.162  0.00  0.00    +0.000 A 
ATOM      3  C   UNL     1      -0.199  11.516  22.125  0.00  0.00    +0.000 A 
ATOM      4  C   UNL     1       0.306  12.201  21.023  0.00  0.00    +0.000 A 
ATOM      5  C   UNL     1       0.901  11.504  19.964  0.00  0.00    +0.000 A 
ATOM      6  C   UNL     1       0.996  10.096  19.979  0.00  0.00    +0.000 A 
ATOM      7  C   UNL     1       0.447   9.431  21.089  0.00  0.00    +0.000 A 
ATOM      8  N   UNL     1       1.622   9.398  18.872  0.00  0.00    +0.000 N 
ATOM      9  C   UNL     1       2.048   8.061  18.972  0.00  0.00    +0.000 C 
ATOM     10  O   UNL     1       1.950   7.384  19.990  0.00  0.00    +0.000 OA
ATOM     11  N   UNL     1       2.677   7.538  17.839  0.00  0.00    +0.000 N 
ATOM     12  C   UNL     1       1.739  10.258  17.679  0.00  0.00    +0.000 C 
ATOM     13  C   UNL     1       2.277  11.624  18.080  0.00  0.00    +0.000 C 
ATOM     14  O   UNL     1       1.368  12.302  18.946  0.00  0.00    +0.000 OA
ATOM     15  H   UNL     1       3.232   8.199  17.326  0.00  0.00    +0.000 HD
ENDROOT
BRANCH  11  16
ATOM     16  C   UNL     1       3.221   6.219  17.878  0.00  0.00    +0.000 A 
ATOM     17  C   UNL     1       2.383   5.149  18.219  0.00  0.00    +0.000 A 
ATOM     18  C   UNL     1       2.871   3.844  18.260  0.00  0.00    +0.000 A 
ATOM     19  C   UNL     1       4.203   3.595  17.959  0.00  0.00    +0.000 A 
ATOM     20  C   UNL     1       5.063   4.643  17.599  0.00  0.00    +0.000 A 
ATOM     21  C   UNL     1       4.578   5.975  17.567  0.00  0.00    +0.000 A 
ATOM     22  C   UNL     1       5.524   7.110  17.234  0.00  0.00    +0.000 C 
ATOM     23  C   UNL     1       7.003   6.742  17.356  0.00  0.00    +0.000 C 
ATOM     24  C   UNL     1       7.279   5.424  16.652  0.00  0.00    +0.000 C 
ATOM     25  C   UNL     1       6.514   4.305  17.345  0.00  0.00    +0.000 C 
ENDBRANCH  11  16
TORSDOF 1
ENDMDL
MODEL 6
REMARK VINA RESULT:      -7.4      4.428      8.743
REMARK  Name = 
REMARK  2 active torsions:
REMARK  status: ('A' for Active; 'I' for Inactive)
REMARK    1  A    between atoms: C_1  and  C_2
REMARK    2  A    between atoms: N_11  and  C_12
REMARK                            x       y       z     vdW  Elec       q    Type
REMARK                         _______ _______ _______ _____ _____    ______ ____
ROOT
ATOM      1  C   UNL     1       4.373   2.900  11.485  0.00  0.00    +0.000 C 
ATOM      2  C   UNL     1       5.385   3.593  12.353  0.00  0.00    +0.000 A 
ATOM      3  C   UNL     1       6.479   4.260  11.809  0.00  0.00    +0.000 A 
ATOM      4  C   UNL     1       7.397   4.883  12.651  0.00  0.00    +0.000 A 
ATOM      5  C   UNL     1       7.213   4.865  14.039  0.00  0.00    +0.000 A 
ATOM      6  C   UNL     1       6.105   4.212  14.621  0.00  0.00    +0.000 A 
ATOM      7  C   UNL     1       5.215   3.565  13.748  0.00  0.00    +0.000 A 
ATOM      8  N   UNL     1       5.936   4.214  16.062  0.00  0.00    +0.000 N 
ATOM      9  C   UNL     1       4.711   3.889  16.674  0.00  0.00    +0.000 C 
ATOM     10  O   UNL     1       3.691   3.601  16.056  0.00  0.00    +0.000 OA
ATOM     11  N   UNL     1       4.686   3.980  18.068  0.00  0.00    +0.000 N 
ATOM     12  C   UNL     1       7.180   4.588  16.760  0.00  0.00    +0.000 C 
ATOM     13  C   UNL     1       7.795   5.811  16.094  0.00  0.00    +0.000 C 
ATOM     14  O   UNL     1       8.186   5.527  14.751  0.00  0.00    +0.000 OA
ATOM     15  H   UNL     1       5.251   4.718  18.449  0.00  0.00    +0.000 HD
ENDROOT
BRANCH  11  16
ATOM     16  C   UNL     1       3.463   3.756  18.769  0.00  0.00    +0.000 A 
ATOM     17  C   UNL     1       2.969   2.448  18.869  0.00  0.00    +0.000 A 
ATOM     18  C   UNL     1       1.784   2.183  19.553  0.00  0.00    +0.000 A 
ATOM     19  C   UNL     1       1.081   3.224  20.146  0.00  0.00    +0.000 A 
ATOM     20  C   UNL     1       1.557   4.540  20.076  0.00  0.00    +0.000 A 
ATOM     21  C   UNL     1       2.756   4.821  19.372  0.00  0.00    +0.000 A 
ATOM     22  C   UNL     1       3.236   6.252  19.249  0.00  0.00    +0.000 C 
ATOM     23  C   UNL     1       2.164   7.297  19.561  0.00  0.00    +0.000 C 
ATOM     24  C   UNL     1       1.449   6.948  20.856  0.00  0.00    +0.000 C 
ATOM     25  C   UNL     1       0.708   5.628  20.690  0.00  0.00    +0.000 C 
ENDBRANCH  11  16
TORSDOF 1
ENDMDL
MODEL 7
REMARK VINA RESULT:      -7.2      1.978      7.398
REMARK  Name = 
REMARK  2 active torsions:
REMARK  status: ('A' for Active; 'I' for Inactive)
REMARK    1  A    between atoms: C_1  and  C_2
REMARK    2  A    between atoms: N_11  and  C_12
REMARK                            x       y       z     vdW  Elec       q    Type
REMARK                         _______ _______ _______ _____ _____    ______ ____
ROOT
ATOM      1  C   UNL     1       5.580   5.815  15.237  0.00  0.00    +0.000 C 
ATOM      2  C   UNL     1       4.981   5.162  16.450  0.00  0.00    +0.000 A 
ATOM      3  C   UNL     1       5.371   3.890  16.862  0.00  0.00    +0.000 A 
ATOM      4  C   UNL     1       4.783   3.318  17.988  0.00  0.00    +0.000 A 
ATOM      5  C   UNL     1       3.824   4.024  18.724  0.00  0.00    +0.000 A 
ATOM      6  C   UNL     1       3.420   5.321  18.343  0.00  0.00    +0.000 A 
ATOM      7  C   UNL     1       4.005   5.858  17.184  0.00  0.00    +0.000 A 
ATOM      8  N   UNL     1       2.427   6.033  19.126  0.00  0.00    +0.000 N 
ATOM      9  C   UNL     1       2.233   7.421  19.009  0.00  0.00    +0.000 C 
ATOM     10  O   UNL     1       2.885   8.145  18.265  0.00  0.00    +0.000 OA
ATOM     11  N   UNL     1       1.274   7.974  19.863  0.00  0.00    +0.000 N 
ATOM     12  C   UNL     1       1.684   5.126  20.023  0.00  0.00    +0.000 C 
ATOM     13  C   UNL     1       2.657   4.202  20.740  0.00  0.00    +0.000 C 
ATOM     14  O   UNL     1       3.334   3.349  19.818  0.00  0.00    +0.000 OA
ATOM     15  H   UNL     1       1.218   7.539  20.766  0.00  0.00    +0.000 HD
ENDROOT
BRANCH  11  16
ATOM     16  C   UNL     1       1.072   9.387  19.877  0.00  0.00    +0.000 A 
ATOM     17  C   UNL     1       1.583  10.156  18.824  0.00  0.00    +0.000 A 
ATOM     18  C   UNL     1       1.400  11.538  18.794  0.00  0.00    +0.000 A 
ATOM     19  C   UNL     1       0.701  12.164  19.817  0.00  0.00    +0.000 A 
ATOM     20  C   UNL     1       0.163  11.420  20.877  0.00  0.00    +0.000 A 
ATOM     21  C   UNL     1       0.356  10.015  20.921  0.00  0.00    +0.000 A 
ATOM     22  C   UNL     1      -0.176   9.223  22.097  0.00  0.00    +0.000 C 
ATOM     23  C   UNL     1      -0.523  10.076  23.317  0.00  0.00    +0.000 C 
ATOM     24  C   UNL     1      -1.354  11.279  22.901  0.00  0.00    +0.000 C 
ATOM     25  C   UNL     1      -0.531  12.176  21.985  0.00  0.00    +0.000 C 
ENDBRANCH  11  16
TORSDOF 1
ENDMDL
MODEL 8
REMARK VINA RESULT:      -7.2      0.882      2.567
REMARK  Name = 
REMARK  2 active torsions:
REMARK  status: ('A' for Active; 'I' for Inactive)
REMARK    1  A    between atoms: C_1  and  C_2
REMARK    2  A    between atoms: N_11  and  C_12
REMARK                            x       y       z     vdW  Elec       q    Type
REMARK                         _______ _______ _______ _____ _____    ______ ____
ROOT
ATOM      1  C   UNL     1      -1.543  11.853  17.606  0.00  0.00    +0.000 C 
ATOM      2  C   UNL     1      -1.121  11.532  19.012  0.00  0.00    +0.000 A 
ATOM      3  C   UNL     1      -1.608  12.249  20.102  0.00  0.00    +0.000 A 
ATOM      4  C   UNL     1      -1.184  11.922  21.388  0.00  0.00    +0.000 A 
ATOM      5  C   UNL     1      -0.294  10.862  21.595  0.00  0.00    +0.000 A 
ATOM      6  C   UNL     1       0.204  10.105  20.513  0.00  0.00    +0.000 A 
ATOM      7  C   UNL     1      -0.215  10.479  19.225  0.00  0.00    +0.000 A 
ATOM      8  N   UNL     1       1.122   9.007  20.755  0.00  0.00    +0.000 N 
ATOM      9  C   UNL     1       1.383   8.020  19.788  0.00  0.00    +0.000 C 
ATOM     10  O   UNL     1       0.855   7.986  18.682  0.00  0.00    +0.000 OA
ATOM     11  N   UNL     1       2.252   6.999  20.182  0.00  0.00    +0.000 N 
ATOM     12  C   UNL     1       1.714   9.076  22.105  0.00  0.00    +0.000 C 
ATOM     13  C   UNL     1       0.626   9.360  23.130  0.00  0.00    +0.000 C 
ATOM     14  O   UNL     1       0.032  10.640  22.912  0.00  0.00    +0.000 OA
ATOM     15  H   UNL     1       2.181   6.740  21.150  0.00  0.00    +0.000 HD
ENDROOT
BRANCH  11  16
ATOM     16  C   UNL     1       2.507   5.907  19.299  0.00  0.00    +0.000 A 
ATOM     17  C   UNL     1       1.775   4.723  19.456  0.00  0.00    +0.000 A 
ATOM     18  C   UNL     1       1.985   3.636  18.608  0.00  0.00    +0.000 A 
ATOM     19  C   UNL     1       2.929   3.723  17.594  0.00  0.00    +0.000 A 
ATOM     20  C   UNL     1       3.666   4.900  17.401  0.00  0.00    +0.000 A 
ATOM     21  C   UNL     1       3.468   6.007  18.267  0.00  0.00    +0.000 A 
ATOM     22  C   UNL     1       4.307   7.255  18.092  0.00  0.00    +0.000 C 
ATOM     23  C   UNL     1       5.564   7.046  17.248  0.00  0.00    +0.000 C 
ATOM     24  C   UNL     1       5.224   6.295  15.971  0.00  0.00    +0.000 C 
ATOM     25  C   UNL     1       4.719   4.901  16.318  0.00  0.00    +0.000 C 
ENDBRANCH  11  16
TORSDOF 1
ENDMDL
MODEL 9
REMARK VINA RESULT:      -7.1      1.749      3.393
REMARK  Name = 
REMARK  2 active torsions:
REMARK  status: ('A' for Active; 'I' for Inactive)
REMARK    1  A    between atoms: C_1  and  C_2
REMARK    2  A    between atoms: N_11  and  C_12
REMARK                            x       y       z     vdW  Elec       q    Type
REMARK                         _______ _______ _______ _____ _____    ______ ____
ROOT
ATOM      1  C   UNL     1      -1.649  11.407  23.245  0.00  0.00    +0.000 C 
ATOM      2  C   UNL     1      -0.813  11.829  22.070  0.00  0.00    +0.000 A 
ATOM      3  C   UNL     1      -0.622  13.172  21.754  0.00  0.00    +0.000 A 
ATOM      4  C   UNL     1       0.154  13.519  20.651  0.00  0.00    +0.000 A 
ATOM      5  C   UNL     1       0.766  12.528  19.874  0.00  0.00    +0.000 A 
ATOM      6  C   UNL     1       0.607  11.159  20.178  0.00  0.00    +0.000 A 
ATOM      7  C   UNL     1      -0.209  10.839  21.276  0.00  0.00    +0.000 A 
ATOM      8  N   UNL     1       1.257  10.153  19.359  0.00  0.00    +0.000 N 
ATOM      9  C   UNL     1       1.420   8.824  19.791  0.00  0.00    +0.000 C 
ATOM     10  O   UNL     1       1.054   8.409  20.886  0.00  0.00    +0.000 OA
ATOM     11  N   UNL     1       2.107   7.980  18.915  0.00  0.00    +0.000 N 
ATOM     12  C   UNL     1       1.701  10.703  18.064  0.00  0.00    +0.000 C 
ATOM     13  C   UNL     1       2.406  12.033  18.285  0.00  0.00    +0.000 C 
ATOM     14  O   UNL     1       1.513  13.008  18.823  0.00  0.00    +0.000 OA
ATOM     15  H   UNL     1       2.841   8.426  18.394  0.00  0.00    +0.000 HD
ENDROOT
BRANCH  11  16
ATOM     16  C   UNL     1       2.397   6.639  19.307  0.00  0.00    +0.000 A 
ATOM     17  C   UNL     1       1.780   6.118  20.452  0.00  0.00    +0.000 A 
ATOM     18  C   UNL     1       2.028   4.809  20.864  0.00  0.00    +0.000 A 
ATOM     19  C   UNL     1       2.895   4.008  20.135  0.00  0.00    +0.000 A 
ATOM     20  C   UNL     1       3.517   4.495  18.976  0.00  0.00    +0.000 A 
ATOM     21  C   UNL     1       3.280   5.829  18.556  0.00  0.00    +0.000 A 
ATOM     22  C   UNL     1       3.998   6.370  17.338  0.00  0.00    +0.000 C 
ATOM     23  C   UNL     1       5.213   5.544  16.914  0.00  0.00    +0.000 C 
ATOM     24  C   UNL     1       4.858   4.067  16.870  0.00  0.00    +0.000 C 
ATOM     25  C   UNL     1       4.496   3.587  18.269  0.00  0.00    +0.000 C 
ENDBRANCH  11  16
TORSDOF 1
ENDMDL
