MODEL 1
REMARK VINA RESULT:      -7.7      0.000      0.000
REMARK  Name = 
REMARK  6 active torsions:
REMARK  status: ('A' for Active; 'I' for Inactive)
REMARK    1  A    between atoms: C_1  and  C_2
REMARK    2  A    between atoms: C_7  and  C_8
REMARK    3  A    between atoms: C_11  and  C_13
REMARK    4  A    between atoms: C_18  and  C_19
REMARK    5  A    between atoms: C_20  and  C_21
REMARK    6  A    between atoms: C_23  and  N_24
REMARK                            x       y       z     vdW  Elec       q    Type
REMARK                         _______ _______ _______ _____ _____    ______ ____
ROOT
ATOM      1  C   UNL     1       0.929   9.849  19.606  0.00  0.00    +0.000 A 
ATOM      2  S   UNL     1       1.289   9.594  21.262  0.00  0.00    +0.000 S 
ATOM      3  C   UNL     1      -0.028  10.523  21.764  0.00  0.00    +0.000 A 
ATOM      4  N   UNL     1      -0.324  10.623  23.071  0.00  0.00    +0.000 NA
ATOM      5  N   UNL     1      -1.321  11.394  23.419  0.00  0.00    +0.000 NA
ATOM      6  C   UNL     1      -2.007  12.102  22.488  0.00  0.00    +0.000 A 
ATOM      7  C   UNL     1      -3.084  12.980  23.055  0.00  0.00    +0.000 C 
ATOM      8  C   UNL     1      -1.739  12.044  21.106  0.00  0.00    +0.000 A 
ATOM      9  C   UNL     1      -2.493  12.880  20.115  0.00  0.00    +0.000 C 
ATOM     10  C   UNL     1      -0.691  11.159  20.725  0.00  0.00    +0.000 A 
ATOM     11  C   UNL     1      -0.121  10.744  19.466  0.00  0.00    +0.000 A 
ENDROOT
BRANCH   1  15
ATOM     12  C   UNL     1       2.979   6.129  19.088  0.00  0.00    +0.000 C 
ATOM     13  C   UNL     1       3.057   7.149  17.917  0.00  0.00    +0.000 C 
ATOM     14  N   UNL     1       2.230   7.985  18.778  0.00  0.00    +0.000 N 
ATOM     15  C   UNL     1       1.758   9.258  18.564  0.00  0.00    +0.000 C 
ATOM     16  O   UNL     1       2.048   9.866  17.531  0.00  0.00    +0.000 OA
ATOM     17  C   UNL     1       1.635   6.821  19.424  0.00  0.00    +0.000 C 
BRANCH  12  24
ATOM     18  C   UNL     1       5.529   4.484  19.088  0.00  0.00    +0.000 C 
ATOM     19  C   UNL     1       4.202   3.812  18.839  0.00  0.00    +0.000 A 
ATOM     20  C   UNL     1       4.196   2.434  18.568  0.00  0.00    +0.000 A 
ATOM     21  C   UNL     1       3.002   1.760  18.337  0.00  0.00    +0.000 A 
ATOM     22  C   UNL     1       1.803   2.456  18.385  0.00  0.00    +0.000 A 
ATOM     23  C   UNL     1       1.802   3.829  18.644  0.00  0.00    +0.000 A 
ATOM     24  C   UNL     1       2.990   4.557  18.865  0.00  0.00    +0.000 A 
ENDBRANCH  12  24
ENDBRANCH   1  15
BRANCH  11  25
ATOM     25  N   UNL     1      -0.562  11.149  18.248  0.00  0.00    +0.000 N 
ATOM     26  H   UNL     1      -1.534  11.102  17.972  0.00  0.00    +0.000 HD
ATOM     27  H   UNL     1      -0.049  11.873  17.740  0.00  0.00    +0.000 HD
ENDBRANCH  11  25
TORSDOF 3
ENDMDL
MODEL 2
REMARK VINA RESULT:      -7.6      0.761      1.115
REMARK  Name = 
REMARK  6 active torsions:
REMARK  status: ('A' for Active; 'I' for Inactive)
REMARK    1  A    between atoms: C_1  and  C_2
REMARK    2  A    between atoms: C_7  and  C_8
REMARK    3  A    between atoms: C_11  and  C_13
REMARK    4  A    between atoms: C_18  and  C_19
REMARK    5  A    between atoms: C_20  and  C_21
REMARK    6  A    between atoms: C_23  and  N_24
REMARK                            x       y       z     vdW  Elec       q    Type
REMARK                         _______ _______ _______ _____ _____    ______ ____
ROOT
ATOM      1  C   UNL     1       0.999   9.752  19.573  0.00  0.00    +0.000 A 
ATOM      2  S   UNL     1       1.324   9.467  21.231  0.00  0.00    +0.000 S 
ATOM      3  C   UNL     1       0.018  10.416  21.723  0.00  0.00    +0.000 A 
ATOM      4  N   UNL     1      -0.299  10.505  23.026  0.00  0.00    +0.000 NA
ATOM      5  N   UNL     1      -1.287  11.291  23.367  0.00  0.00    +0.000 NA
ATOM      6  C   UNL     1      -1.941  12.027  22.434  0.00  0.00    +0.000 A 
ATOM      7  C   UNL     1      -3.010  12.919  22.994  0.00  0.00    +0.000 C 
ATOM      8  C   UNL     1      -1.649  11.982  21.056  0.00  0.00    +0.000 A 
ATOM      9  C   UNL     1      -2.368  12.847  20.064  0.00  0.00    +0.000 C 
ATOM     10  C   UNL     1      -0.613  11.081  20.681  0.00  0.00    +0.000 A 
ATOM     11  C   UNL     1      -0.030  10.670  19.427  0.00  0.00    +0.000 A 
ENDROOT
BRANCH   1  15
ATOM     12  C   UNL     1       3.112   6.061  19.108  0.00  0.00    +0.000 C 
ATOM     13  C   UNL     1       3.168   7.061  17.920  0.00  0.00    +0.000 C 
ATOM     14  N   UNL     1       2.329   7.897  18.770  0.00  0.00    +0.000 N 
ATOM     15  C   UNL     1       1.835   9.159  18.538  0.00  0.00    +0.000 C 
ATOM     16  O   UNL     1       2.111   9.754  17.493  0.00  0.00    +0.000 OA
ATOM     17  C   UNL     1       1.757   6.734  19.439  0.00  0.00    +0.000 C 
BRANCH  12  24
ATOM     18  C   UNL     1       2.258   4.112  21.272  0.00  0.00    +0.000 C 
ATOM     19  C   UNL     1       2.773   3.591  19.954  0.00  0.00    +0.000 A 
ATOM     20  C   UNL     1       2.881   2.201  19.785  0.00  0.00    +0.000 A 
ATOM     21  C   UNL     1       3.343   1.663  18.589  0.00  0.00    +0.000 A 
ATOM     22  C   UNL     1       3.690   2.511  17.547  0.00  0.00    +0.000 A 
ATOM     23  C   UNL     1       3.594   3.895  17.710  0.00  0.00    +0.000 A 
ATOM     24  C   UNL     1       3.149   4.485  18.912  0.00  0.00    +0.000 A 
ENDBRANCH  12  24
ENDBRANCH   1  15
BRANCH  11  25
ATOM     25  N   UNL     1      -0.439  11.102  18.207  0.00  0.00    +0.000 N 
ATOM     26  H   UNL     1      -1.398  11.029  17.893  0.00  0.00    +0.000 HD
ATOM     27  H   UNL     1       0.064  11.861  17.744  0.00  0.00    +0.000 HD
ENDBRANCH  11  25
TORSDOF 3
ENDMDL
MODEL 3
REMARK VINA RESULT:      -7.6      0.604      1.370
REMARK  Name = 
REMARK  6 active torsions:
REMARK  status: ('A' for Active; 'I' for Inactive)
REMARK    1  A    between atoms: C_1  and  C_2
REMARK    2  A    between atoms: C_7  and  C_8
REMARK    3  A    between atoms: C_11  and  C_13
REMARK    4  A    between atoms: C_18  and  C_19
REMARK    5  A    between atoms: C_20  and  C_21
REMARK    6  A    between atoms: C_23  and  N_24
REMARK                            x       y       z     vdW  Elec       q    Type
REMARK                         _______ _______ _______ _____ _____    ______ ____
ROOT
ATOM      1  C   UNL     1       1.102   9.502  19.560  0.00  0.00    +0.000 A 
ATOM      2  S   UNL     1       1.447   9.176  21.207  0.00  0.00    +0.000 S 
ATOM      3  C   UNL     1       0.174  10.148  21.739  0.00  0.00    +0.000 A 
ATOM      4  N   UNL     1      -0.119  10.219  23.049  0.00  0.00    +0.000 NA
ATOM      5  N   UNL     1      -1.080  11.024  23.422  0.00  0.00    +0.000 NA
ATOM      6  C   UNL     1      -1.730  11.794  22.514  0.00  0.00    +0.000 A 
ATOM      7  C   UNL     1      -2.766  12.702  23.109  0.00  0.00    +0.000 C 
ATOM      8  C   UNL     1      -1.462  11.769  21.131  0.00  0.00    +0.000 A 
ATOM      9  C   UNL     1      -2.175  12.671  20.169  0.00  0.00    +0.000 C 
ATOM     10  C   UNL     1      -0.457  10.849  20.721  0.00  0.00    +0.000 A 
ATOM     11  C   UNL     1       0.095  10.449  19.449  0.00  0.00    +0.000 A 
ENDROOT
BRANCH   1  15
ATOM     12  C   UNL     1       3.335   5.882  19.094  0.00  0.00    +0.000 C 
ATOM     13  C   UNL     1       3.287   6.845  17.875  0.00  0.00    +0.000 C 
ATOM     14  N   UNL     1       2.461   7.675  18.743  0.00  0.00    +0.000 N 
ATOM     15  C   UNL     1       1.905   8.908  18.500  0.00  0.00    +0.000 C 
ATOM     16  O   UNL     1       2.100   9.479  17.424  0.00  0.00    +0.000 OA
ATOM     17  C   UNL     1       1.973   6.513  19.477  0.00  0.00    +0.000 C 
BRANCH  12  24
ATOM     18  C   UNL     1       1.363   4.271  17.443  0.00  0.00    +0.000 C 
ATOM     19  C   UNL     1       2.468   3.567  18.189  0.00  0.00    +0.000 A 
ATOM     20  C   UNL     1       2.524   2.164  18.129  0.00  0.00    +0.000 A 
ATOM     21  C   UNL     1       3.524   1.462  18.791  0.00  0.00    +0.000 A 
ATOM     22  C   UNL     1       4.485   2.157  19.511  0.00  0.00    +0.000 A 
ATOM     23  C   UNL     1       4.432   3.551  19.584  0.00  0.00    +0.000 A 
ATOM     24  C   UNL     1       3.425   4.303  18.944  0.00  0.00    +0.000 A 
ENDBRANCH  12  24
ENDBRANCH   1  15
BRANCH  11  25
ATOM     25  N   UNL     1      -0.324  10.915  18.245  0.00  0.00    +0.000 N 
ATOM     26  H   UNL     1       0.020  11.776  17.840  0.00  0.00    +0.000 HD
ATOM     27  H   UNL     1      -0.654  10.257  17.536  0.00  0.00    +0.000 HD
ENDBRANCH  11  25
TORSDOF 3
ENDMDL
MODEL 4
REMARK VINA RESULT:      -7.3      2.850      4.638
REMARK  Name = 
REMARK  6 active torsions:
REMARK  status: ('A' for Active; 'I' for Inactive)
REMARK    1  A    between atoms: C_1  and  C_2
REMARK    2  A    between atoms: C_7  and  C_8
REMARK    3  A    between atoms: C_11  and  C_13
REMARK    4  A    between atoms: C_18  and  C_19
REMARK    5  A    between atoms: C_20  and  C_21
REMARK    6  A    between atoms: C_23  and  N_24
REMARK                            x       y       z     vdW  Elec       q    Type
REMARK                         _______ _______ _______ _____ _____    ______ ____
ROOT
ATOM      1  C   UNL     1      -2.317  12.709  20.469  0.00  0.00    +0.000 A 
ATOM      2  S   UNL     1      -2.175  12.874  22.168  0.00  0.00    +0.000 S 
ATOM      3  C   UNL     1      -3.837  12.688  22.396  0.00  0.00    +0.000 A 
ATOM      4  N   UNL     1      -4.347  12.643  23.639  0.00  0.00    +0.000 NA
ATOM      5  N   UNL     1      -5.645  12.549  23.769  0.00  0.00    +0.000 NA
ATOM      6  C   UNL     1      -6.452  12.541  22.678  0.00  0.00    +0.000 A 
ATOM      7  C   UNL     1      -7.917  12.485  22.998  0.00  0.00    +0.000 C 
ATOM      8  C   UNL     1      -5.976  12.593  21.353  0.00  0.00    +0.000 A 
ATOM      9  C   UNL     1      -6.907  12.627  20.177  0.00  0.00    +0.000 C 
ATOM     10  C   UNL     1      -4.561  12.635  21.214  0.00  0.00    +0.000 A 
ATOM     11  C   UNL     1      -3.650  12.639  20.094  0.00  0.00    +0.000 A 
ENDROOT
BRANCH   1  15
ATOM     12  C   UNL     1       1.072  10.198  19.749  0.00  0.00    +0.000 C 
ATOM     13  C   UNL     1       0.973  11.508  18.917  0.00  0.00    +0.000 C 
ATOM     14  N   UNL     1      -0.263  11.719  19.661  0.00  0.00    +0.000 N 
ATOM     15  C   UNL     1      -1.140  12.776  19.613  0.00  0.00    +0.000 C 
ATOM     16  O   UNL     1      -0.915  13.741  18.878  0.00  0.00    +0.000 OA
ATOM     17  C   UNL     1      -0.473  10.284  19.821  0.00  0.00    +0.000 C 
BRANCH  12  24
ATOM     18  C   UNL     1       1.153   7.609  21.330  0.00  0.00    +0.000 C 
ATOM     19  C   UNL     1       1.786   7.674  19.962  0.00  0.00    +0.000 A 
ATOM     20  C   UNL     1       2.439   6.529  19.477  0.00  0.00    +0.000 A 
ATOM     21  C   UNL     1       3.036   6.528  18.221  0.00  0.00    +0.000 A 
ATOM     22  C   UNL     1       2.974   7.670  17.435  0.00  0.00    +0.000 A 
ATOM     23  C   UNL     1       2.335   8.816  17.914  0.00  0.00    +0.000 A 
ATOM     24  C   UNL     1       1.733   8.868  19.189  0.00  0.00    +0.000 A 
ENDBRANCH  12  24
ENDBRANCH   1  15
BRANCH  11  25
ATOM     25  N   UNL     1      -4.027  12.558  18.792  0.00  0.00    +0.000 N 
ATOM     26  H   UNL     1      -3.390  12.730  18.025  0.00  0.00    +0.000 HD
ATOM     27  H   UNL     1      -4.798  11.942  18.526  0.00  0.00    +0.000 HD
ENDBRANCH  11  25
TORSDOF 3
ENDMDL
MODEL 5
REMARK VINA RESULT:      -7.2      3.803      9.202
REMARK  Name = 
REMARK  6 active torsions:
REMARK  status: ('A' for Active; 'I' for Inactive)
REMARK    1  A    between atoms: C_1  and  C_2
REMARK    2  A    between atoms: C_7  and  C_8
REMARK    3  A    between atoms: C_11  and  C_13
REMARK    4  A    between atoms: C_18  and  C_19
REMARK    5  A    between atoms: C_20  and  C_21
REMARK    6  A    between atoms: C_23  and  N_24
REMARK                            x       y       z     vdW  Elec       q    Type
REMARK                         _______ _______ _______ _____ _____    ______ ____
ROOT
ATOM      1  C   UNL     1       4.321   5.177  17.885  0.00  0.00    +0.000 A 
ATOM      2  S   UNL     1       5.865   5.904  18.041  0.00  0.00    +0.000 S 
ATOM      3  C   UNL     1       6.288   5.512  16.454  0.00  0.00    +0.000 A 
ATOM      4  N   UNL     1       7.456   5.935  15.943  0.00  0.00    +0.000 NA
ATOM      5  N   UNL     1       7.766   5.566  14.727  0.00  0.00    +0.000 NA
ATOM      6  C   UNL     1       6.948   4.744  14.023  0.00  0.00    +0.000 A 
ATOM      7  C   UNL     1       7.473   4.369  12.668  0.00  0.00    +0.000 C 
ATOM      8  C   UNL     1       5.716   4.263  14.508  0.00  0.00    +0.000 A 
ATOM      9  C   UNL     1       4.864   3.319  13.713  0.00  0.00    +0.000 C 
ATOM     10  C   UNL     1       5.354   4.714  15.808  0.00  0.00    +0.000 A 
ATOM     11  C   UNL     1       4.203   4.537  16.660  0.00  0.00    +0.000 A 
ENDROOT
BRANCH   1  15
ATOM     12  C   UNL     1       2.082   8.163  19.977  0.00  0.00    +0.000 C 
ATOM     13  C   UNL     1       1.885   6.688  20.426  0.00  0.00    +0.000 C 
ATOM     14  N   UNL     1       2.847   6.388  19.372  0.00  0.00    +0.000 N 
ATOM     15  C   UNL     1       3.382   5.179  18.999  0.00  0.00    +0.000 C 
ATOM     16  O   UNL     1       3.077   4.148  19.603  0.00  0.00    +0.000 OA
ATOM     17  C   UNL     1       2.442   7.556  18.598  0.00  0.00    +0.000 C 
BRANCH  12  24
ATOM     18  C   UNL     1       1.038   9.282  22.598  0.00  0.00    +0.000 C 
ATOM     19  C   UNL     1       0.431   9.735  21.293  0.00  0.00    +0.000 A 
ATOM     20  C   UNL     1      -0.641  10.642  21.338  0.00  0.00    +0.000 A 
ATOM     21  C   UNL     1      -1.235  11.099  20.168  0.00  0.00    +0.000 A 
ATOM     22  C   UNL     1      -0.755  10.663  18.941  0.00  0.00    +0.000 A 
ATOM     23  C   UNL     1       0.305   9.754  18.888  0.00  0.00    +0.000 A 
ATOM     24  C   UNL     1       0.925   9.249  20.050  0.00  0.00    +0.000 A 
ENDBRANCH  12  24
ENDBRANCH   1  15
BRANCH  11  25
ATOM     25  N   UNL     1       3.089   3.841  16.319  0.00  0.00    +0.000 N 
ATOM     26  H   UNL     1       2.207   4.287  16.106  0.00  0.00    +0.000 HD
ATOM     27  H   UNL     1       3.182   2.929  15.866  0.00  0.00    +0.000 HD
ENDBRANCH  11  25
TORSDOF 3
ENDMDL
MODEL 6
REMARK VINA RESULT:      -7.2      2.581      8.542
REMARK  Name = 
REMARK  6 active torsions:
REMARK  status: ('A' for Active; 'I' for Inactive)
REMARK    1  A    between atoms: C_1  and  C_2
REMARK    2  A    between atoms: C_7  and  C_8
REMARK    3  A    between atoms: C_11  and  C_13
REMARK    4  A    between atoms: C_18  and  C_19
REMARK    5  A    between atoms: C_20  and  C_21
REMARK    6  A    between atoms: C_23  and  N_24
REMARK                            x       y       z     vdW  Elec       q    Type
REMARK                         _______ _______ _______ _____ _____    ______ ____
ROOT
ATOM      1  C   UNL     1       1.357   9.323  19.684  0.00  0.00    +0.000 A 
ATOM      2  S   UNL     1       2.255   9.387  18.226  0.00  0.00    +0.000 S 
ATOM      3  C   UNL     1       2.653   7.749  18.317  0.00  0.00    +0.000 A 
ATOM      4  N   UNL     1       3.336   7.164  17.319  0.00  0.00    +0.000 NA
ATOM      5  N   UNL     1       3.667   5.906  17.454  0.00  0.00    +0.000 NA
ATOM      6  C   UNL     1       3.364   5.228  18.589  0.00  0.00    +0.000 A 
ATOM      7  C   UNL     1       3.862   3.812  18.610  0.00  0.00    +0.000 C 
ATOM      8  C   UNL     1       2.658   5.789  19.671  0.00  0.00    +0.000 A 
ATOM      9  C   UNL     1       2.384   5.016  20.926  0.00  0.00    +0.000 C 
ATOM     10  C   UNL     1       2.248   7.141  19.496  0.00  0.00    +0.000 A 
ATOM     11  C   UNL     1       1.480   8.078  20.281  0.00  0.00    +0.000 A 
ENDROOT
BRANCH   1  15
ATOM     12  C   UNL     1      -2.072  11.630  18.573  0.00  0.00    +0.000 C 
ATOM     13  C   UNL     1      -1.300  12.078  19.846  0.00  0.00    +0.000 C 
ATOM     14  N   UNL     1      -0.435  10.944  19.548  0.00  0.00    +0.000 N 
ATOM     15  C   UNL     1       0.695  10.513  20.203  0.00  0.00    +0.000 C 
ATOM     16  O   UNL     1       1.123  11.130  21.181  0.00  0.00    +0.000 OA
ATOM     17  C   UNL     1      -1.521  10.219  18.898  0.00  0.00    +0.000 C 
BRANCH  12  24
ATOM     18  C   UNL     1      -3.528  11.047  15.976  0.00  0.00    +0.000 C 
ATOM     19  C   UNL     1      -4.296  11.563  17.167  0.00  0.00    +0.000 A 
ATOM     20  C   UNL     1      -5.673  11.799  17.019  0.00  0.00    +0.000 A 
ATOM     21  C   UNL     1      -6.432  12.268  18.085  0.00  0.00    +0.000 A 
ATOM     22  C   UNL     1      -5.824  12.494  19.312  0.00  0.00    +0.000 A 
ATOM     23  C   UNL     1      -4.453  12.270  19.464  0.00  0.00    +0.000 A 
ATOM     24  C   UNL     1      -3.640  11.813  18.406  0.00  0.00    +0.000 A 
ENDBRANCH  12  24
ENDBRANCH   1  15
BRANCH  11  25
ATOM     25  N   UNL     1       0.902   7.794  21.475  0.00  0.00    +0.000 N 
ATOM     26  H   UNL     1       0.395   6.935  21.649  0.00  0.00    +0.000 HD
ATOM     27  H   UNL     1       1.286   8.198  22.332  0.00  0.00    +0.000 HD
ENDBRANCH  11  25
TORSDOF 3
ENDMDL
MODEL 7
REMARK VINA RESULT:      -7.1      2.517      4.257
REMARK  Name = 
REMARK  6 active torsions:
REMARK  status: ('A' for Active; 'I' for Inactive)
REMARK    1  A    between atoms: C_1  and  C_2
REMARK    2  A    between atoms: C_7  and  C_8
REMARK    3  A    between atoms: C_11  and  C_13
REMARK    4  A    between atoms: C_18  and  C_19
REMARK    5  A    between atoms: C_20  and  C_21
REMARK    6  A    between atoms: C_23  and  N_24
REMARK                            x       y       z     vdW  Elec       q    Type
REMARK                         _______ _______ _______ _____ _____    ______ ____
ROOT
ATOM      1  C   UNL     1      -2.058  12.317  21.153  0.00  0.00    +0.000 A 
ATOM      2  S   UNL     1      -1.865  12.043  22.834  0.00  0.00    +0.000 S 
ATOM      3  C   UNL     1      -3.507  12.297  23.135  0.00  0.00    +0.000 A 
ATOM      4  N   UNL     1      -4.002  12.120  24.371  0.00  0.00    +0.000 NA
ATOM      5  N   UNL     1      -5.269  12.377  24.570  0.00  0.00    +0.000 NA
ATOM      6  C   UNL     1      -6.046  12.850  23.564  0.00  0.00    +0.000 A 
ATOM      7  C   UNL     1      -7.460  13.147  23.969  0.00  0.00    +0.000 C 
ATOM      8  C   UNL     1      -5.582  13.062  22.251  0.00  0.00    +0.000 A 
ATOM      9  C   UNL     1      -6.466  13.630  21.180  0.00  0.00    +0.000 C 
ATOM     10  C   UNL     1      -4.218  12.726  22.023  0.00  0.00    +0.000 A 
ATOM     11  C   UNL     1      -3.353  12.722  20.868  0.00  0.00    +0.000 A 
ENDROOT
BRANCH   1  15
ATOM     12  C   UNL     1       1.097   9.506  20.479  0.00  0.00    +0.000 C 
ATOM     13  C   UNL     1       1.061  10.761  19.563  0.00  0.00    +0.000 C 
ATOM     14  N   UNL     1      -0.122  11.118  20.338  0.00  0.00    +0.000 N 
ATOM     15  C   UNL     1      -0.917  12.235  20.251  0.00  0.00    +0.000 C 
ATOM     16  O   UNL     1      -0.652  13.129  19.442  0.00  0.00    +0.000 OA
ATOM     17  C   UNL     1      -0.433   9.718  20.604  0.00  0.00    +0.000 C 
BRANCH  12  24
ATOM     18  C   UNL     1       2.255   9.059  17.710  0.00  0.00    +0.000 C 
ATOM     19  C   UNL     1       2.140   7.902  18.671  0.00  0.00    +0.000 A 
ATOM     20  C   UNL     1       2.539   6.629  18.231  0.00  0.00    +0.000 A 
ATOM     21  C   UNL     1       2.461   5.528  19.076  0.00  0.00    +0.000 A 
ATOM     22  C   UNL     1       1.995   5.691  20.372  0.00  0.00    +0.000 A 
ATOM     23  C   UNL     1       1.586   6.952  20.814  0.00  0.00    +0.000 A 
ATOM     24  C   UNL     1       1.630   8.093  19.987  0.00  0.00    +0.000 A 
ENDBRANCH  12  24
ENDBRANCH   1  15
BRANCH  11  25
ATOM     25  N   UNL     1      -3.742  13.051  19.610  0.00  0.00    +0.000 N 
ATOM     26  H   UNL     1      -4.454  13.745  19.420  0.00  0.00    +0.000 HD
ATOM     27  H   UNL     1      -3.087  12.945  18.834  0.00  0.00    +0.000 HD
ENDBRANCH  11  25
TORSDOF 3
ENDMDL
MODEL 8
REMARK VINA RESULT:      -7.1      3.863      9.151
REMARK  Name = 
REMARK  6 active torsions:
REMARK  status: ('A' for Active; 'I' for Inactive)
REMARK    1  A    between atoms: C_1  and  C_2
REMARK    2  A    between atoms: C_7  and  C_8
REMARK    3  A    between atoms: C_11  and  C_13
REMARK    4  A    between atoms: C_18  and  C_19
REMARK    5  A    between atoms: C_20  and  C_21
REMARK    6  A    between atoms: C_23  and  N_24
REMARK                            x       y       z     vdW  Elec       q    Type
REMARK                         _______ _______ _______ _____ _____    ______ ____
ROOT
ATOM      1  C   UNL     1       4.307   4.813  17.916  0.00  0.00    +0.000 A 
ATOM      2  S   UNL     1       5.836   5.546  18.162  0.00  0.00    +0.000 S 
ATOM      3  C   UNL     1       6.277   5.333  16.547  0.00  0.00    +0.000 A 
ATOM      4  N   UNL     1       7.441   5.829  16.093  0.00  0.00    +0.000 NA
ATOM      5  N   UNL     1       7.766   5.597  14.848  0.00  0.00    +0.000 NA
ATOM      6  C   UNL     1       6.968   4.841  14.053  0.00  0.00    +0.000 A 
ATOM      7  C   UNL     1       7.510   4.622  12.671  0.00  0.00    +0.000 C 
ATOM      8  C   UNL     1       5.743   4.289  14.474  0.00  0.00    +0.000 A 
ATOM      9  C   UNL     1       4.914   3.421  13.574  0.00  0.00    +0.000 C 
ATOM     10  C   UNL     1       5.363   4.592  15.811  0.00  0.00    +0.000 A 
ATOM     11  C   UNL     1       4.209   4.305  16.629  0.00  0.00    +0.000 A 
ENDROOT
BRANCH   1  15
ATOM     12  C   UNL     1       2.191   7.524  20.461  0.00  0.00    +0.000 C 
ATOM     13  C   UNL     1       1.923   6.007  20.666  0.00  0.00    +0.000 C 
ATOM     14  N   UNL     1       2.879   5.836  19.579  0.00  0.00    +0.000 N 
ATOM     15  C   UNL     1       3.360   4.679  19.015  0.00  0.00    +0.000 C 
ATOM     16  O   UNL     1       3.003   3.579  19.445  0.00  0.00    +0.000 OA
ATOM     17  C   UNL     1       2.534   7.131  19.002  0.00  0.00    +0.000 C 
BRANCH  12  24
ATOM     18  C   UNL     1       1.340   9.500  18.321  0.00  0.00    +0.000 C 
ATOM     19  C   UNL     1       0.726   9.573  19.697  0.00  0.00    +0.000 A 
ATOM     20  C   UNL     1      -0.202  10.595  19.958  0.00  0.00    +0.000 A 
ATOM     21  C   UNL     1      -0.804  10.707  21.206  0.00  0.00    +0.000 A 
ATOM     22  C   UNL     1      -0.493   9.792  22.200  0.00  0.00    +0.000 A 
ATOM     23  C   UNL     1       0.436   8.778  21.952  0.00  0.00    +0.000 A 
ATOM     24  C   UNL     1       1.085   8.637  20.708  0.00  0.00    +0.000 A 
ENDBRANCH  12  24
ENDBRANCH   1  15
BRANCH  11  25
ATOM     25  N   UNL     1       3.111   3.629  16.205  0.00  0.00    +0.000 N 
ATOM     26  H   UNL     1       2.246   4.091  15.955  0.00  0.00    +0.000 HD
ATOM     27  H   UNL     1       3.222   2.730  15.734  0.00  0.00    +0.000 HD
ENDBRANCH  11  25
TORSDOF 3
ENDMDL
MODEL 9
REMARK VINA RESULT:      -7.0      1.310      1.446
REMARK  Name = 
REMARK  6 active torsions:
REMARK  status: ('A' for Active; 'I' for Inactive)
REMARK    1  A    between atoms: C_1  and  C_2
REMARK    2  A    between atoms: C_7  and  C_8
REMARK    3  A    between atoms: C_11  and  C_13
REMARK    4  A    between atoms: C_18  and  C_19
REMARK    5  A    between atoms: C_20  and  C_21
REMARK    6  A    between atoms: C_23  and  N_24
REMARK                            x       y       z     vdW  Elec       q    Type
REMARK                         _______ _______ _______ _____ _____    ______ ____
ROOT
ATOM      1  C   UNL     1       0.244  10.565  19.906  0.00  0.00    +0.000 A 
ATOM      2  S   UNL     1       0.908  11.072  21.402  0.00  0.00    +0.000 S 
ATOM      3  C   UNL     1      -0.522  11.846  21.855  0.00  0.00    +0.000 A 
ATOM      4  N   UNL     1      -0.632  12.402  23.073  0.00  0.00    +0.000 NA
ATOM      5  N   UNL     1      -1.739  13.035  23.364  0.00  0.00    +0.000 NA
ATOM      6  C   UNL     1      -2.727  13.160  22.443  0.00  0.00    +0.000 A 
ATOM      7  C   UNL     1      -3.906  13.961  22.913  0.00  0.00    +0.000 C 
ATOM      8  C   UNL     1      -2.666  12.606  21.150  0.00  0.00    +0.000 A 
ATOM      9  C   UNL     1      -3.764  12.807  20.148  0.00  0.00    +0.000 C 
ATOM     10  C   UNL     1      -1.486  11.867  20.857  0.00  0.00    +0.000 A 
ATOM     11  C   UNL     1      -1.021  11.102  19.725  0.00  0.00    +0.000 A 
ENDROOT
BRANCH   1  15
ATOM     12  C   UNL     1       2.353   6.845  20.063  0.00  0.00    +0.000 C 
ATOM     13  C   UNL     1       2.351   7.600  18.704  0.00  0.00    +0.000 C 
ATOM     14  N   UNL     1       1.547   8.586  19.415  0.00  0.00    +0.000 N 
ATOM     15  C   UNL     1       1.036   9.781  18.968  0.00  0.00    +0.000 C 
ATOM     16  O   UNL     1       1.262  10.165  17.817  0.00  0.00    +0.000 OA
ATOM     17  C   UNL     1       1.010   7.574  20.319  0.00  0.00    +0.000 C 
BRANCH  12  24
ATOM     18  C   UNL     1       4.786   5.199  19.300  0.00  0.00    +0.000 C 
ATOM     19  C   UNL     1       3.532   4.509  19.776  0.00  0.00    +0.000 A 
ATOM     20  C   UNL     1       3.518   3.105  19.811  0.00  0.00    +0.000 A 
ATOM     21  C   UNL     1       2.393   2.415  20.247  0.00  0.00    +0.000 A 
ATOM     22  C   UNL     1       1.275   3.124  20.663  0.00  0.00    +0.000 A 
ATOM     23  C   UNL     1       1.278   4.520  20.623  0.00  0.00    +0.000 A 
ATOM     24  C   UNL     1       2.389   5.261  20.170  0.00  0.00    +0.000 A 
ENDBRANCH  12  24
ENDBRANCH   1  15
BRANCH  11  25
ATOM     25  N   UNL     1      -1.737  10.889  18.591  0.00  0.00    +0.000 N 
ATOM     26  H   UNL     1      -2.539  11.449  18.336  0.00  0.00    +0.000 HD
ATOM     27  H   UNL     1      -1.282  10.469  17.778  0.00  0.00    +0.000 HD
ENDBRANCH  11  25
TORSDOF 3
ENDMDL
