MODEL 1
REMARK VINA RESULT:      -7.6      0.000      0.000
REMARK  Name = 
REMARK  5 active torsions:
REMARK  status: ('A' for Active; 'I' for Inactive)
REMARK    1  A    between atoms: C_1  and  O_2
REMARK    2  A    between atoms: O_2  and  C_3
REMARK    3  A    between atoms: N_10  and  S_11
REMARK    4  A    between atoms: S_11  and  C_14
REMARK    5  A    between atoms: C_17  and  C_18
REMARK                            x       y       z     vdW  Elec       q    Type
REMARK                         _______ _______ _______ _____ _____    ______ ____
ROOT
ATOM      1  C   UNL     1       6.013   3.731  12.993  0.00  0.00    +0.000 A 
ATOM      2  C   UNL     1       7.229   4.401  13.077  0.00  0.00    +0.000 A 
ATOM      3  C   UNL     1       7.546   5.124  14.220  0.00  0.00    +0.000 A 
ATOM      4  C   UNL     1       6.660   5.156  15.308  0.00  0.00    +0.000 A 
ATOM      5  C   UNL     1       5.443   4.453  15.261  0.00  0.00    +0.000 A 
ATOM      6  C   UNL     1       5.133   3.739  14.084  0.00  0.00    +0.000 A 
ATOM      7  C   UNL     1       4.443   4.483  16.407  0.00  0.00    +0.000 C 
ATOM      8  N   UNL     1       4.849   3.699  17.622  0.00  0.00    +0.000 NA
ATOM      9  C   UNL     1       5.805   4.455  18.513  0.00  0.00    +0.000 C 
ATOM     10  C   UNL     1       7.183   4.695  17.911  0.00  0.00    +0.000 C 
ATOM     11  S   UNL     1       7.184   6.079  16.735  0.00  0.00    +0.000 S 
ENDROOT
BRANCH   8  12
ATOM     12  S   UNL     1       3.483   3.202  18.577  0.00  0.00    +0.000 S 
ATOM     13  O   UNL     1       2.477   2.665  17.685  0.00  0.00    +0.000 OA
ATOM     14  O   UNL     1       4.010   2.412  19.671  0.00  0.00    +0.000 OA
BRANCH  12  15
ATOM     15  C   UNL     1       2.822   4.704  19.240  0.00  0.00    +0.000 A 
ATOM     16  C   UNL     1       2.876   5.867  18.471  0.00  0.00    +0.000 A 
ATOM     17  C   UNL     1       2.362   7.056  18.992  0.00  0.00    +0.000 A 
ATOM     18  C   UNL     1       1.798   7.085  20.274  0.00  0.00    +0.000 A 
ATOM     19  C   UNL     1       1.290   8.369  20.862  0.00  0.00    +0.000 C 
ATOM     20  C   UNL     1       1.694   5.894  21.007  0.00  0.00    +0.000 A 
ATOM     21  C   UNL     1       2.206   4.703  20.494  0.00  0.00    +0.000 A 
ENDBRANCH  12  15
ENDBRANCH   8  12
BRANCH   1  23
ATOM     22  C   UNL     1       4.455   3.104  11.346  0.00  0.00    +0.000 C 
ATOM     23  O   UNL     1       5.797   3.062  11.820  0.00  0.00    +0.000 OA
ENDBRANCH   1  23
TORSDOF 3
ENDMDL
MODEL 2
REMARK VINA RESULT:      -7.6      0.172      1.022
REMARK  Name = 
REMARK  5 active torsions:
REMARK  status: ('A' for Active; 'I' for Inactive)
REMARK    1  A    between atoms: C_1  and  O_2
REMARK    2  A    between atoms: O_2  and  C_3
REMARK    3  A    between atoms: N_10  and  S_11
REMARK    4  A    between atoms: S_11  and  C_14
REMARK    5  A    between atoms: C_17  and  C_18
REMARK                            x       y       z     vdW  Elec       q    Type
REMARK                         _______ _______ _______ _____ _____    ______ ____
ROOT
ATOM      1  C   UNL     1       6.035   3.784  13.132  0.00  0.00    +0.000 A 
ATOM      2  C   UNL     1       7.259   4.438  13.228  0.00  0.00    +0.000 A 
ATOM      3  C   UNL     1       7.572   5.161  14.372  0.00  0.00    +0.000 A 
ATOM      4  C   UNL     1       6.673   5.210  15.449  0.00  0.00    +0.000 A 
ATOM      5  C   UNL     1       5.447   4.522  15.390  0.00  0.00    +0.000 A 
ATOM      6  C   UNL     1       5.143   3.808  14.212  0.00  0.00    +0.000 A 
ATOM      7  C   UNL     1       4.434   4.570  16.524  0.00  0.00    +0.000 C 
ATOM      8  N   UNL     1       4.815   3.786  17.747  0.00  0.00    +0.000 NA
ATOM      9  C   UNL     1       5.770   4.533  18.647  0.00  0.00    +0.000 C 
ATOM     10  C   UNL     1       7.158   4.753  18.060  0.00  0.00    +0.000 C 
ATOM     11  S   UNL     1       7.191   6.132  16.878  0.00  0.00    +0.000 S 
ENDROOT
BRANCH   8  12
ATOM     12  S   UNL     1       3.432   3.311  18.687  0.00  0.00    +0.000 S 
ATOM     13  O   UNL     1       2.433   2.774  17.787  0.00  0.00    +0.000 OA
ATOM     14  O   UNL     1       3.935   2.527  19.797  0.00  0.00    +0.000 OA
BRANCH  12  15
ATOM     15  C   UNL     1       2.775   4.826  19.326  0.00  0.00    +0.000 A 
ATOM     16  C   UNL     1       2.080   4.807  20.536  0.00  0.00    +0.000 A 
ATOM     17  C   UNL     1       1.554   5.998  21.041  0.00  0.00    +0.000 A 
ATOM     18  C   UNL     1       1.719   7.201  20.341  0.00  0.00    +0.000 A 
ATOM     19  C   UNL     1       1.113   8.476  20.850  0.00  0.00    +0.000 C 
ATOM     20  C   UNL     1       2.474   7.212  19.160  0.00  0.00    +0.000 A 
ATOM     21  C   UNL     1       3.002   6.026  18.649  0.00  0.00    +0.000 A 
ENDBRANCH  12  15
ENDBRANCH   8  12
BRANCH   1  23
ATOM     22  C   UNL     1       4.476   3.114  11.504  0.00  0.00    +0.000 C 
ATOM     23  O   UNL     1       5.825   3.112  11.960  0.00  0.00    +0.000 OA
ENDBRANCH   1  23
TORSDOF 3
ENDMDL
MODEL 3
REMARK VINA RESULT:      -7.5      6.709      9.599
REMARK  Name = 
REMARK  5 active torsions:
REMARK  status: ('A' for Active; 'I' for Inactive)
REMARK    1  A    between atoms: C_1  and  O_2
REMARK    2  A    between atoms: O_2  and  C_3
REMARK    3  A    between atoms: N_10  and  S_11
REMARK    4  A    between atoms: S_11  and  C_14
REMARK    5  A    between atoms: C_17  and  C_18
REMARK                            x       y       z     vdW  Elec       q    Type
REMARK                         _______ _______ _______ _____ _____    ______ ____
ROOT
ATOM      1  C   UNL     1      -2.832  10.416  15.689  0.00  0.00    +0.000 A 
ATOM      2  C   UNL     1      -4.028  11.113  15.821  0.00  0.00    +0.000 A 
ATOM      3  C   UNL     1      -4.422  11.587  17.066  0.00  0.00    +0.000 A 
ATOM      4  C   UNL     1      -3.604  11.395  18.190  0.00  0.00    +0.000 A 
ATOM      5  C   UNL     1      -2.372  10.728  18.073  0.00  0.00    +0.000 A 
ATOM      6  C   UNL     1      -1.999  10.240  16.802  0.00  0.00    +0.000 A 
ATOM      7  C   UNL     1      -1.468  10.476  19.270  0.00  0.00    +0.000 C 
ATOM      8  N   UNL     1      -0.759  11.692  19.795  0.00  0.00    +0.000 NA
ATOM      9  C   UNL     1      -1.630  12.529  20.702  0.00  0.00    +0.000 C 
ATOM     10  C   UNL     1      -2.800  13.214  20.008  0.00  0.00    +0.000 C 
ATOM     11  S   UNL     1      -4.187  12.077  19.725  0.00  0.00    +0.000 S 
ENDROOT
BRANCH   8  12
ATOM     12  S   UNL     1       0.700  11.290  20.651  0.00  0.00    +0.000 S 
ATOM     13  O   UNL     1       1.685  12.315  20.374  0.00  0.00    +0.000 OA
ATOM     14  O   UNL     1       0.310  10.979  22.011  0.00  0.00    +0.000 OA
BRANCH  12  15
ATOM     15  C   UNL     1       1.284   9.806  19.883  0.00  0.00    +0.000 A 
ATOM     16  C   UNL     1       1.628   9.831  18.531  0.00  0.00    +0.000 A 
ATOM     17  C   UNL     1       2.082   8.662  17.919  0.00  0.00    +0.000 A 
ATOM     18  C   UNL     1       2.191   7.472  18.651  0.00  0.00    +0.000 A 
ATOM     19  C   UNL     1       2.630   6.199  17.990  0.00  0.00    +0.000 C 
ATOM     20  C   UNL     1       1.902   7.480  20.024  0.00  0.00    +0.000 A 
ATOM     21  C   UNL     1       1.447   8.645  20.642  0.00  0.00    +0.000 A 
ENDBRANCH  12  15
ENDBRANCH   8  12
BRANCH   1  23
ATOM     22  C   UNL     1      -3.660   9.950  13.538  0.00  0.00    +0.000 C 
ATOM     23  O   UNL     1      -2.546   9.984  14.423  0.00  0.00    +0.000 OA
ENDBRANCH   1  23
TORSDOF 3
ENDMDL
MODEL 4
REMARK VINA RESULT:      -7.5      6.707      9.698
REMARK  Name = 
REMARK  5 active torsions:
REMARK  status: ('A' for Active; 'I' for Inactive)
REMARK    1  A    between atoms: C_1  and  O_2
REMARK    2  A    between atoms: O_2  and  C_3
REMARK    3  A    between atoms: N_10  and  S_11
REMARK    4  A    between atoms: S_11  and  C_14
REMARK    5  A    between atoms: C_17  and  C_18
REMARK                            x       y       z     vdW  Elec       q    Type
REMARK                         _______ _______ _______ _____ _____    ______ ____
ROOT
ATOM      1  C   UNL     1      -2.907  10.374  15.835  0.00  0.00    +0.000 A 
ATOM      2  C   UNL     1      -4.076  11.117  15.950  0.00  0.00    +0.000 A 
ATOM      3  C   UNL     1      -4.444  11.645  17.182  0.00  0.00    +0.000 A 
ATOM      4  C   UNL     1      -3.626  11.459  18.307  0.00  0.00    +0.000 A 
ATOM      5  C   UNL     1      -2.419  10.744  18.204  0.00  0.00    +0.000 A 
ATOM      6  C   UNL     1      -2.073  10.204  16.947  0.00  0.00    +0.000 A 
ATOM      7  C   UNL     1      -1.517  10.498  19.404  0.00  0.00    +0.000 C 
ATOM      8  N   UNL     1      -0.761  11.703  19.886  0.00  0.00    +0.000 NA
ATOM      9  C   UNL     1      -1.595  12.600  20.770  0.00  0.00    +0.000 C 
ATOM     10  C   UNL     1      -2.745  13.304  20.062  0.00  0.00    +0.000 C 
ATOM     11  S   UNL     1      -4.174  12.210  19.823  0.00  0.00    +0.000 S 
ENDROOT
BRANCH   8  12
ATOM     12  S   UNL     1       0.688  11.277  20.746  0.00  0.00    +0.000 S 
ATOM     13  O   UNL     1       1.670  12.318  20.525  0.00  0.00    +0.000 OA
ATOM     14  O   UNL     1       0.280  10.908  22.086  0.00  0.00    +0.000 OA
BRANCH  12  15
ATOM     15  C   UNL     1       1.293   9.829  19.927  0.00  0.00    +0.000 A 
ATOM     16  C   UNL     1       1.453   8.652  20.659  0.00  0.00    +0.000 A 
ATOM     17  C   UNL     1       1.936   7.509  20.019  0.00  0.00    +0.000 A 
ATOM     18  C   UNL     1       2.259   7.540  18.656  0.00  0.00    +0.000 A 
ATOM     19  C   UNL     1       2.827   6.331  17.973  0.00  0.00    +0.000 C 
ATOM     20  C   UNL     1       2.032   8.713  17.922  0.00  0.00    +0.000 A 
ATOM     21  C   UNL     1       1.551   9.859  18.554  0.00  0.00    +0.000 A 
ENDBRANCH  12  15
ENDBRANCH   8  12
BRANCH   1  23
ATOM     22  C   UNL     1      -3.745   9.945  13.679  0.00  0.00    +0.000 C 
ATOM     23  O   UNL     1      -2.645   9.892  14.582  0.00  0.00    +0.000 OA
ENDBRANCH   1  23
TORSDOF 3
ENDMDL
MODEL 5
REMARK VINA RESULT:      -7.5      1.388      1.990
REMARK  Name = 
REMARK  5 active torsions:
REMARK  status: ('A' for Active; 'I' for Inactive)
REMARK    1  A    between atoms: C_1  and  O_2
REMARK    2  A    between atoms: O_2  and  C_3
REMARK    3  A    between atoms: N_10  and  S_11
REMARK    4  A    between atoms: S_11  and  C_14
REMARK    5  A    between atoms: C_17  and  C_18
REMARK                            x       y       z     vdW  Elec       q    Type
REMARK                         _______ _______ _______ _____ _____    ______ ____
ROOT
ATOM      1  C   UNL     1       5.839   4.172  13.999  0.00  0.00    +0.000 A 
ATOM      2  C   UNL     1       7.174   4.506  14.204  0.00  0.00    +0.000 A 
ATOM      3  C   UNL     1       7.546   5.217  15.338  0.00  0.00    +0.000 A 
ATOM      4  C   UNL     1       6.586   5.576  16.297  0.00  0.00    +0.000 A 
ATOM      5  C   UNL     1       5.237   5.214  16.131  0.00  0.00    +0.000 A 
ATOM      6  C   UNL     1       4.879   4.506  14.963  0.00  0.00    +0.000 A 
ATOM      7  C   UNL     1       4.162   5.604  17.133  0.00  0.00    +0.000 C 
ATOM      8  N   UNL     1       4.203   4.851  18.432  0.00  0.00    +0.000 NA
ATOM      9  C   UNL     1       5.223   5.405  19.397  0.00  0.00    +0.000 C 
ATOM     10  C   UNL     1       6.673   5.223  18.968  0.00  0.00    +0.000 C 
ATOM     11  S   UNL     1       7.178   6.450  17.728  0.00  0.00    +0.000 S 
ENDROOT
BRANCH   8  12
ATOM     12  S   UNL     1       2.657   4.814  19.226  0.00  0.00    +0.000 S 
ATOM     13  O   UNL     1       1.706   4.174  18.341  0.00  0.00    +0.000 OA
ATOM     14  O   UNL     1       2.890   4.306  20.563  0.00  0.00    +0.000 OA
BRANCH  12  15
ATOM     15  C   UNL     1       2.169   6.511  19.351  0.00  0.00    +0.000 A 
ATOM     16  C   UNL     1       1.756   7.009  20.586  0.00  0.00    +0.000 A 
ATOM     17  C   UNL     1       1.364   8.346  20.689  0.00  0.00    +0.000 A 
ATOM     18  C   UNL     1       1.384   9.180  19.563  0.00  0.00    +0.000 A 
ATOM     19  C   UNL     1       0.916  10.603  19.653  0.00  0.00    +0.000 C 
ATOM     20  C   UNL     1       1.862   8.680  18.344  0.00  0.00    +0.000 A 
ATOM     21  C   UNL     1       2.255   7.346  18.234  0.00  0.00    +0.000 A 
ENDBRANCH  12  15
ENDBRANCH   8  12
BRANCH   1  23
ATOM     22  C   UNL     1       6.700   3.332  11.978  0.00  0.00    +0.000 C 
ATOM     23  O   UNL     1       5.582   3.483  12.847  0.00  0.00    +0.000 OA
ENDBRANCH   1  23
TORSDOF 3
ENDMDL
MODEL 6
REMARK VINA RESULT:      -7.3      3.041      6.835
REMARK  Name = 
REMARK  5 active torsions:
REMARK  status: ('A' for Active; 'I' for Inactive)
REMARK    1  A    between atoms: C_1  and  O_2
REMARK    2  A    between atoms: O_2  and  C_3
REMARK    3  A    between atoms: N_10  and  S_11
REMARK    4  A    between atoms: S_11  and  C_14
REMARK    5  A    between atoms: C_17  and  C_18
REMARK                            x       y       z     vdW  Elec       q    Type
REMARK                         _______ _______ _______ _____ _____    ______ ____
ROOT
ATOM      1  C   UNL     1       1.825   7.140  20.444  0.00  0.00    +0.000 A 
ATOM      2  C   UNL     1       1.142   6.026  20.920  0.00  0.00    +0.000 A 
ATOM      3  C   UNL     1       1.269   4.804  20.273  0.00  0.00    +0.000 A 
ATOM      4  C   UNL     1       2.109   4.676  19.156  0.00  0.00    +0.000 A 
ATOM      5  C   UNL     1       2.841   5.779  18.681  0.00  0.00    +0.000 A 
ATOM      6  C   UNL     1       2.684   7.015  19.344  0.00  0.00    +0.000 A 
ATOM      7  C   UNL     1       3.743   5.690  17.459  0.00  0.00    +0.000 C 
ATOM      8  N   UNL     1       5.023   4.933  17.670  0.00  0.00    +0.000 NA
ATOM      9  C   UNL     1       4.839   3.437  17.572  0.00  0.00    +0.000 C 
ATOM     10  C   UNL     1       4.008   2.822  18.690  0.00  0.00    +0.000 C 
ATOM     11  S   UNL     1       2.227   3.058  18.428  0.00  0.00    +0.000 S 
ENDROOT
BRANCH   8  12
ATOM     12  S   UNL     1       6.267   5.409  16.553  0.00  0.00    +0.000 S 
ATOM     13  O   UNL     1       7.207   4.315  16.428  0.00  0.00    +0.000 OA
ATOM     14  O   UNL     1       5.593   5.951  15.391  0.00  0.00    +0.000 OA
BRANCH  12  15
ATOM     15  C   UNL     1       7.128   6.725  17.366  0.00  0.00    +0.000 A 
ATOM     16  C   UNL     1       6.981   8.028  16.889  0.00  0.00    +0.000 A 
ATOM     17  C   UNL     1       7.663   9.069  17.522  0.00  0.00    +0.000 A 
ATOM     18  C   UNL     1       8.488   8.811  18.624  0.00  0.00    +0.000 A 
ATOM     19  C   UNL     1       9.265   9.916  19.278  0.00  0.00    +0.000 C 
ATOM     20  C   UNL     1       8.574   7.506  19.129  0.00  0.00    +0.000 A 
ATOM     21  C   UNL     1       7.896   6.461  18.502  0.00  0.00    +0.000 A 
ENDBRANCH  12  15
ENDBRANCH   8  12
BRANCH   1  23
ATOM     22  C   UNL     1       0.254   8.612  21.391  0.00  0.00    +0.000 C 
ATOM     23  O   UNL     1       1.621   8.294  21.149  0.00  0.00    +0.000 OA
ENDBRANCH   1  23
TORSDOF 3
ENDMDL
MODEL 7
REMARK VINA RESULT:      -7.3      0.940      1.077
REMARK  Name = 
REMARK  5 active torsions:
REMARK  status: ('A' for Active; 'I' for Inactive)
REMARK    1  A    between atoms: C_1  and  O_2
REMARK    2  A    between atoms: O_2  and  C_3
REMARK    3  A    between atoms: N_10  and  S_11
REMARK    4  A    between atoms: S_11  and  C_14
REMARK    5  A    between atoms: C_17  and  C_18
REMARK                            x       y       z     vdW  Elec       q    Type
REMARK                         _______ _______ _______ _____ _____    ______ ____
ROOT
ATOM      1  C   UNL     1       6.185   4.014  13.623  0.00  0.00    +0.000 A 
ATOM      2  C   UNL     1       7.454   4.547  13.820  0.00  0.00    +0.000 A 
ATOM      3  C   UNL     1       7.716   5.323  14.942  0.00  0.00    +0.000 A 
ATOM      4  C   UNL     1       6.713   5.548  15.898  0.00  0.00    +0.000 A 
ATOM      5  C   UNL     1       5.434   4.986  15.740  0.00  0.00    +0.000 A 
ATOM      6  C   UNL     1       5.186   4.214  14.585  0.00  0.00    +0.000 A 
ATOM      7  C   UNL     1       4.312   5.226  16.740  0.00  0.00    +0.000 C 
ATOM      8  N   UNL     1       4.466   4.507  18.049  0.00  0.00    +0.000 NA
ATOM      9  C   UNL     1       5.392   5.222  19.004  0.00  0.00    +0.000 C 
ATOM     10  C   UNL     1       6.852   5.253  18.573  0.00  0.00    +0.000 C 
ATOM     11  S   UNL     1       7.168   6.523  17.314  0.00  0.00    +0.000 S 
ENDROOT
BRANCH   8  12
ATOM     12  S   UNL     1       2.943   4.251  18.848  0.00  0.00    +0.000 S 
ATOM     13  O   UNL     1       2.006   3.720  17.880  0.00  0.00    +0.000 OA
ATOM     14  O   UNL     1       3.234   3.537  20.074  0.00  0.00    +0.000 OA
BRANCH  12  15
ATOM     15  C   UNL     1       2.372   5.873  19.268  0.00  0.00    +0.000 A 
ATOM     16  C   UNL     1       2.351   6.861  18.283  0.00  0.00    +0.000 A 
ATOM     17  C   UNL     1       1.908   8.144  18.610  0.00  0.00    +0.000 A 
ATOM     18  C   UNL     1       1.489   8.440  19.914  0.00  0.00    +0.000 A 
ATOM     19  C   UNL     1       1.060   9.829  20.288  0.00  0.00    +0.000 C 
ATOM     20  C   UNL     1       1.457   7.419  20.875  0.00  0.00    +0.000 A 
ATOM     21  C   UNL     1       1.899   6.135  20.556  0.00  0.00    +0.000 A 
ENDBRANCH  12  15
ENDBRANCH   8  12
BRANCH   1  23
ATOM     22  C   UNL     1       4.709   3.246  11.961  0.00  0.00    +0.000 C 
ATOM     23  O   UNL     1       6.033   3.276  12.482  0.00  0.00    +0.000 OA
ENDBRANCH   1  23
TORSDOF 3
ENDMDL
MODEL 8
REMARK VINA RESULT:      -7.2      3.008      6.858
REMARK  Name = 
REMARK  5 active torsions:
REMARK  status: ('A' for Active; 'I' for Inactive)
REMARK    1  A    between atoms: C_1  and  O_2
REMARK    2  A    between atoms: O_2  and  C_3
REMARK    3  A    between atoms: N_10  and  S_11
REMARK    4  A    between atoms: S_11  and  C_14
REMARK    5  A    between atoms: C_17  and  C_18
REMARK                            x       y       z     vdW  Elec       q    Type
REMARK                         _______ _______ _______ _____ _____    ______ ____
ROOT
ATOM      1  C   UNL     1       1.818   7.116  20.482  0.00  0.00    +0.000 A 
ATOM      2  C   UNL     1       1.098   6.033  20.973  0.00  0.00    +0.000 A 
ATOM      3  C   UNL     1       1.173   4.802  20.333  0.00  0.00    +0.000 A 
ATOM      4  C   UNL     1       1.998   4.635  19.210  0.00  0.00    +0.000 A 
ATOM      5  C   UNL     1       2.767   5.706  18.721  0.00  0.00    +0.000 A 
ATOM      6  C   UNL     1       2.663   6.952  19.376  0.00  0.00    +0.000 A 
ATOM      7  C   UNL     1       3.655   5.574  17.492  0.00  0.00    +0.000 C 
ATOM      8  N   UNL     1       4.907   4.771  17.699  0.00  0.00    +0.000 NA
ATOM      9  C   UNL     1       4.666   3.282  17.614  0.00  0.00    +0.000 C 
ATOM     10  C   UNL     1       3.823   2.707  18.743  0.00  0.00    +0.000 C 
ATOM     11  S   UNL     1       2.049   3.008  18.494  0.00  0.00    +0.000 S 
ENDROOT
BRANCH   8  12
ATOM     12  S   UNL     1       6.158   5.192  16.567  0.00  0.00    +0.000 S 
ATOM     13  O   UNL     1       7.081   4.080  16.477  0.00  0.00    +0.000 OA
ATOM     14  O   UNL     1       5.493   5.708  15.388  0.00  0.00    +0.000 OA
BRANCH  12  15
ATOM     15  C   UNL     1       7.040   6.519  17.338  0.00  0.00    +0.000 A 
ATOM     16  C   UNL     1       7.819   6.253  18.464  0.00  0.00    +0.000 A 
ATOM     17  C   UNL     1       8.511   7.297  19.080  0.00  0.00    +0.000 A 
ATOM     18  C   UNL     1       8.425   8.602  18.576  0.00  0.00    +0.000 A 
ATOM     19  C   UNL     1       9.124   9.739  19.261  0.00  0.00    +0.000 C 
ATOM     20  C   UNL     1       7.688   8.840  17.406  0.00  0.00    +0.000 A 
ATOM     21  C   UNL     1       6.994   7.802  16.786  0.00  0.00    +0.000 A 
ENDBRANCH  12  15
ENDBRANCH   8  12
BRANCH   1  23
ATOM     22  C   UNL     1       0.453   8.983  20.911  0.00  0.00    +0.000 C 
ATOM     23  O   UNL     1       1.663   8.283  21.179  0.00  0.00    +0.000 OA
ENDBRANCH   1  23
TORSDOF 3
ENDMDL
MODEL 9
REMARK VINA RESULT:      -7.1      2.367      7.291
REMARK  Name = 
REMARK  5 active torsions:
REMARK  status: ('A' for Active; 'I' for Inactive)
REMARK    1  A    between atoms: C_1  and  O_2
REMARK    2  A    between atoms: O_2  and  C_3
REMARK    3  A    between atoms: N_10  and  S_11
REMARK    4  A    between atoms: S_11  and  C_14
REMARK    5  A    between atoms: C_17  and  C_18
REMARK                            x       y       z     vdW  Elec       q    Type
REMARK                         _______ _______ _______ _____ _____    ______ ____
ROOT
ATOM      1  C   UNL     1       2.875   3.671  20.781  0.00  0.00    +0.000 A 
ATOM      2  C   UNL     1       1.755   4.495  20.746  0.00  0.00    +0.000 A 
ATOM      3  C   UNL     1       1.826   5.737  20.129  0.00  0.00    +0.000 A 
ATOM      4  C   UNL     1       3.015   6.157  19.511  0.00  0.00    +0.000 A 
ATOM      5  C   UNL     1       4.148   5.323  19.499  0.00  0.00    +0.000 A 
ATOM      6  C   UNL     1       4.058   4.072  20.146  0.00  0.00    +0.000 A 
ATOM      7  C   UNL     1       5.462   5.749  18.864  0.00  0.00    +0.000 C 
ATOM      8  N   UNL     1       5.463   5.770  17.362  0.00  0.00    +0.000 NA
ATOM      9  C   UNL     1       4.847   7.027  16.794  0.00  0.00    +0.000 C 
ATOM     10  C   UNL     1       3.351   7.170  17.037  0.00  0.00    +0.000 C 
ATOM     11  S   UNL     1       2.982   7.748  18.718  0.00  0.00    +0.000 S 
ENDROOT
BRANCH   8  12
ATOM     12  S   UNL     1       7.059   5.590  16.697  0.00  0.00    +0.000 S 
ATOM     13  O   UNL     1       7.606   6.910  16.467  0.00  0.00    +0.000 OA
ATOM     14  O   UNL     1       7.750   4.631  17.535  0.00  0.00    +0.000 OA
BRANCH  12  15
ATOM     15  C   UNL     1       6.808   4.861  15.103  0.00  0.00    +0.000 A 
ATOM     16  C   UNL     1       5.750   3.970  14.924  0.00  0.00    +0.000 A 
ATOM     17  C   UNL     1       5.551   3.387  13.671  0.00  0.00    +0.000 A 
ATOM     18  C   UNL     1       6.405   3.691  12.602  0.00  0.00    +0.000 A 
ATOM     19  C   UNL     1       6.230   3.030  11.266  0.00  0.00    +0.000 C 
ATOM     20  C   UNL     1       7.423   4.637  12.784  0.00  0.00    +0.000 A 
ATOM     21  C   UNL     1       7.628   5.223  14.033  0.00  0.00    +0.000 A 
ENDBRANCH  12  15
ENDBRANCH   8  12
BRANCH   1  23
ATOM     22  C   UNL     1       1.388   2.258  21.931  0.00  0.00    +0.000 C 
ATOM     23  O   UNL     1       2.699   2.476  21.422  0.00  0.00    +0.000 OA
ENDBRANCH   1  23
TORSDOF 3
ENDMDL
