MODEL 1
REMARK VINA RESULT:      -9.5      0.000      0.000
REMARK  Name = 
REMARK  6 active torsions:
REMARK  status: ('A' for Active; 'I' for Inactive)
REMARK    1  A    between atoms: C_5  and  N_6
REMARK    2  A    between atoms: N_6  and  C_7
REMARK    3  A    between atoms: C_9  and  C_10
REMARK    4  A    between atoms: C_10  and  N_11
REMARK    5  A    between atoms: C_17  and  C_18
REMARK    6  A    between atoms: C_18  and  N_19
REMARK                            x       y       z     vdW  Elec       q    Type
REMARK                         _______ _______ _______ _____ _____    ______ ____
ROOT
ATOM      1  C   UNL     1       2.886   6.623  19.093  0.00  0.00    +0.000 A 
ATOM      2  C   UNL     1       2.313   5.346  19.046  0.00  0.00    +0.000 A 
ATOM      3  C   UNL     1       2.713   4.421  18.061  0.00  0.00    +0.000 A 
ATOM      4  C   UNL     1       3.755   4.753  17.178  0.00  0.00    +0.000 A 
ATOM      5  C   UNL     1       4.257   6.052  17.134  0.00  0.00    +0.000 A 
ATOM      6  C   UNL     1       3.764   6.977  18.056  0.00  0.00    +0.000 A 
ENDROOT
BRANCH   1   7
ATOM      7  N   UNL     1       2.471   7.586  20.049  0.00  0.00    +0.000 N 
ATOM      8  H   UNL     1       3.235   7.930  20.618  0.00  0.00    +0.000 HD
BRANCH   7  13
ATOM      9 CL   UNL     1      -1.541  11.509  18.410  0.00  0.00    +0.000 Cl
ATOM     10  C   UNL     1      -0.353  10.443  19.056  0.00  0.00    +0.000 A 
ATOM     11  N   UNL     1       0.414   9.893  18.104  0.00  0.00    +0.000 NA
ATOM     12  N   UNL     1       1.369   8.996  18.465  0.00  0.00    +0.000 NA
ATOM     13  C   UNL     1       1.559   8.642  19.762  0.00  0.00    +0.000 A 
ATOM     14  C   UNL     1       0.822   9.264  20.794  0.00  0.00    +0.000 A 
ATOM     15  C   UNL     1       0.999   8.993  22.171  0.00  0.00    +0.000 A 
ATOM     16  C   UNL     1       0.208   9.603  23.147  0.00  0.00    +0.000 A 
ATOM     17  C   UNL     1      -0.802  10.479  22.773  0.00  0.00    +0.000 A 
ATOM     18  C   UNL     1      -1.005  10.764  21.426  0.00  0.00    +0.000 A 
ATOM     19  C   UNL     1      -0.196  10.182  20.418  0.00  0.00    +0.000 A 
ENDBRANCH   7  13
ENDBRANCH   1   7
BRANCH   3  20
ATOM     20  C   UNL     1       1.913   3.157  17.795  0.00  0.00    +0.000 C 
BRANCH  20  21
ATOM     21  N   UNL     1       2.022   2.185  18.894  0.00  0.00    +0.000 NA
ATOM     22  C   UNL     1       0.876   2.212  19.804  0.00  0.00    +0.000 C 
ATOM     23  C   UNL     1       1.361   2.745  21.140  0.00  0.00    +0.000 C 
ATOM     24  C   UNL     1       2.862   2.586  21.134  0.00  0.00    +0.000 C 
ATOM     25  C   UNL     1       3.245   2.282  19.698  0.00  0.00    +0.000 C 
ENDBRANCH  20  21
ENDBRANCH   3  20
BRANCH   5  26
ATOM     26  C   UNL     1       5.238   6.477  16.063  0.00  0.00    +0.000 C 
BRANCH  26  27
ATOM     27  N   UNL     1       6.673   6.337  16.334  0.00  0.00    +0.000 NA
ATOM     28  C   UNL     1       7.144   4.968  16.526  0.00  0.00    +0.000 C 
ATOM     29  C   UNL     1       7.240   4.781  18.027  0.00  0.00    +0.000 C 
ATOM     30  C   UNL     1       7.639   6.154  18.532  0.00  0.00    +0.000 C 
ATOM     31  C   UNL     1       7.173   7.132  17.459  0.00  0.00    +0.000 C 
ENDBRANCH  26  27
ENDBRANCH   5  26
TORSDOF 6
ENDMDL
MODEL 2
REMARK VINA RESULT:      -9.4      1.381      2.131
REMARK  Name = 
REMARK  6 active torsions:
REMARK  status: ('A' for Active; 'I' for Inactive)
REMARK    1  A    between atoms: C_5  and  N_6
REMARK    2  A    between atoms: N_6  and  C_7
REMARK    3  A    between atoms: C_9  and  C_10
REMARK    4  A    between atoms: C_10  and  N_11
REMARK    5  A    between atoms: C_17  and  C_18
REMARK    6  A    between atoms: C_18  and  N_19
REMARK                            x       y       z     vdW  Elec       q    Type
REMARK                         _______ _______ _______ _____ _____    ______ ____
ROOT
ATOM      1  C   UNL     1       2.921   7.260  17.864  0.00  0.00    +0.000 A 
ATOM      2  C   UNL     1       2.292   6.062  18.225  0.00  0.00    +0.000 A 
ATOM      3  C   UNL     1       2.832   4.824  17.822  0.00  0.00    +0.000 A 
ATOM      4  C   UNL     1       4.055   4.791  17.131  0.00  0.00    +0.000 A 
ATOM      5  C   UNL     1       4.636   5.969  16.665  0.00  0.00    +0.000 A 
ATOM      6  C   UNL     1       4.018   7.178  16.992  0.00  0.00    +0.000 A 
ENDROOT
BRANCH   1   7
ATOM      7  N   UNL     1       2.375   8.519  18.222  0.00  0.00    +0.000 N 
ATOM      8  H   UNL     1       1.952   9.003  17.439  0.00  0.00    +0.000 HD
BRANCH   7  13
ATOM      9 CL   UNL     1      -0.161   9.504  23.396  0.00  0.00    +0.000 Cl
ATOM     10  C   UNL     1       0.428   9.274  21.795  0.00  0.00    +0.000 A 
ATOM     11  N   UNL     1       1.358   8.312  21.724  0.00  0.00    +0.000 NA
ATOM     12  N   UNL     1       1.944   8.050  20.526  0.00  0.00    +0.000 NA
ATOM     13  C   UNL     1       1.613   8.742  19.406  0.00  0.00    +0.000 A 
ATOM     14  C   UNL     1       0.581   9.705  19.432  0.00  0.00    +0.000 A 
ATOM     15  C   UNL     1       0.139  10.428  18.300  0.00  0.00    +0.000 A 
ATOM     16  C   UNL     1      -0.855  11.404  18.393  0.00  0.00    +0.000 A 
ATOM     17  C   UNL     1      -1.415  11.707  19.627  0.00  0.00    +0.000 A 
ATOM     18  C   UNL     1      -1.000  11.018  20.762  0.00  0.00    +0.000 A 
ATOM     19  C   UNL     1      -0.015  10.001  20.689  0.00  0.00    +0.000 A 
ENDBRANCH   7  13
ENDBRANCH   1   7
BRANCH   3  20
ATOM     20  C   UNL     1       2.029   3.540  17.934  0.00  0.00    +0.000 C 
BRANCH  20  21
ATOM     21  N   UNL     1       2.413   2.740  19.108  0.00  0.00    +0.000 NA
ATOM     22  C   UNL     1       1.269   2.159  19.811  0.00  0.00    +0.000 C 
ATOM     23  C   UNL     1       1.165   2.841  21.164  0.00  0.00    +0.000 C 
ATOM     24  C   UNL     1       2.513   3.473  21.418  0.00  0.00    +0.000 C 
ATOM     25  C   UNL     1       3.249   3.435  20.093  0.00  0.00    +0.000 C 
ENDBRANCH  20  21
ENDBRANCH   3  20
BRANCH   5  26
ATOM     26  C   UNL     1       5.845   5.940  15.755  0.00  0.00    +0.000 C 
BRANCH  26  27
ATOM     27  N   UNL     1       7.178   5.924  16.366  0.00  0.00    +0.000 NA
ATOM     28  C   UNL     1       7.583   4.649  16.951  0.00  0.00    +0.000 C 
ATOM     29  C   UNL     1       7.333   4.789  18.439  0.00  0.00    +0.000 C 
ATOM     30  C   UNL     1       7.614   6.253  18.712  0.00  0.00    +0.000 C 
ATOM     31  C   UNL     1       7.413   6.960  17.376  0.00  0.00    +0.000 C 
ENDBRANCH  26  27
ENDBRANCH   5  26
TORSDOF 6
ENDMDL
MODEL 3
REMARK VINA RESULT:      -9.2      1.958      3.280
REMARK  Name = 
REMARK  6 active torsions:
REMARK  status: ('A' for Active; 'I' for Inactive)
REMARK    1  A    between atoms: C_5  and  N_6
REMARK    2  A    between atoms: N_6  and  C_7
REMARK    3  A    between atoms: C_9  and  C_10
REMARK    4  A    between atoms: C_10  and  N_11
REMARK    5  A    between atoms: C_17  and  C_18
REMARK    6  A    between atoms: C_18  and  N_19
REMARK                            x       y       z     vdW  Elec       q    Type
REMARK                         _______ _______ _______ _____ _____    ______ ____
ROOT
ATOM      1  C   UNL     1       2.026   8.925  18.224  0.00  0.00    +0.000 A 
ATOM      2  C   UNL     1       1.676   8.177  19.355  0.00  0.00    +0.000 A 
ATOM      3  C   UNL     1       2.334   6.963  19.638  0.00  0.00    +0.000 A 
ATOM      4  C   UNL     1       3.406   6.548  18.830  0.00  0.00    +0.000 A 
ATOM      5  C   UNL     1       3.694   7.215  17.641  0.00  0.00    +0.000 A 
ATOM      6  C   UNL     1       2.953   8.358  17.334  0.00  0.00    +0.000 A 
ENDROOT
BRANCH   1   7
ATOM      7  N   UNL     1       1.352  10.128  17.895  0.00  0.00    +0.000 N 
ATOM      8  H   UNL     1       1.101  10.185  16.915  0.00  0.00    +0.000 HD
BRANCH   7  13
ATOM      9 CL   UNL     1      -2.501  13.052  21.178  0.00  0.00    +0.000 Cl
ATOM     10  C   UNL     1      -1.508  12.080  20.162  0.00  0.00    +0.000 A 
ATOM     11  N   UNL     1      -0.226  12.073  20.554  0.00  0.00    +0.000 NA
ATOM     12  N   UNL     1       0.682  11.380  19.819  0.00  0.00    +0.000 NA
ATOM     13  C   UNL     1       0.324  10.703  18.697  0.00  0.00    +0.000 A 
ATOM     14  C   UNL     1      -1.030  10.627  18.304  0.00  0.00    +0.000 A 
ATOM     15  C   UNL     1      -1.493   9.898  17.184  0.00  0.00    +0.000 A 
ATOM     16  C   UNL     1      -2.839   9.897  16.813  0.00  0.00    +0.000 A 
ATOM     17  C   UNL     1      -3.758  10.647  17.535  0.00  0.00    +0.000 A 
ATOM     18  C   UNL     1      -3.335  11.379  18.640  0.00  0.00    +0.000 A 
ATOM     19  C   UNL     1      -1.980  11.373  19.055  0.00  0.00    +0.000 A 
ENDBRANCH   7  13
ENDBRANCH   1   7
BRANCH   3  20
ATOM     20  C   UNL     1       1.785   5.991  20.668  0.00  0.00    +0.000 C 
BRANCH  20  21
ATOM     21  N   UNL     1       2.265   4.617  20.453  0.00  0.00    +0.000 NA
ATOM     22  C   UNL     1       1.541   3.910  19.396  0.00  0.00    +0.000 C 
ATOM     23  C   UNL     1       0.740   2.798  20.050  0.00  0.00    +0.000 C 
ATOM     24  C   UNL     1       1.364   2.577  21.408  0.00  0.00    +0.000 C 
ATOM     25  C   UNL     1       2.278   3.763  21.646  0.00  0.00    +0.000 C 
ENDBRANCH  20  21
ENDBRANCH   3  20
BRANCH   5  26
ATOM     26  C   UNL     1       4.714   6.671  16.664  0.00  0.00    +0.000 C 
BRANCH  26  27
ATOM     27  N   UNL     1       5.395   5.414  16.994  0.00  0.00    +0.000 NA
ATOM     28  C   UNL     1       6.840   5.411  16.783  0.00  0.00    +0.000 C 
ATOM     29  C   UNL     1       7.053   4.722  15.450  0.00  0.00    +0.000 C 
ATOM     30  C   UNL     1       5.940   3.694  15.399  0.00  0.00    +0.000 C 
ATOM     31  C   UNL     1       4.856   4.223  16.332  0.00  0.00    +0.000 C 
ENDBRANCH  26  27
ENDBRANCH   5  26
TORSDOF 6
ENDMDL
MODEL 4
REMARK VINA RESULT:      -9.0      1.909      3.154
REMARK  Name = 
REMARK  6 active torsions:
REMARK  status: ('A' for Active; 'I' for Inactive)
REMARK    1  A    between atoms: C_5  and  N_6
REMARK    2  A    between atoms: N_6  and  C_7
REMARK    3  A    between atoms: C_9  and  C_10
REMARK    4  A    between atoms: C_10  and  N_11
REMARK    5  A    between atoms: C_17  and  C_18
REMARK    6  A    between atoms: C_18  and  N_19
REMARK                            x       y       z     vdW  Elec       q    Type
REMARK                         _______ _______ _______ _____ _____    ______ ____
ROOT
ATOM      1  C   UNL     1       2.166   8.403  18.158  0.00  0.00    +0.000 A 
ATOM      2  C   UNL     1       1.744   7.565  19.197  0.00  0.00    +0.000 A 
ATOM      3  C   UNL     1       2.502   6.431  19.551  0.00  0.00    +0.000 A 
ATOM      4  C   UNL     1       3.733   6.191  18.916  0.00  0.00    +0.000 A 
ATOM      5  C   UNL     1       4.114   6.943  17.807  0.00  0.00    +0.000 A 
ATOM      6  C   UNL     1       3.287   7.998  17.414  0.00  0.00    +0.000 A 
ENDROOT
BRANCH   1   7
ATOM      7  N   UNL     1       1.401   9.527  17.756  0.00  0.00    +0.000 N 
ATOM      8  H   UNL     1       0.971   9.407  16.846  0.00  0.00    +0.000 HD
BRANCH   7  13
ATOM      9 CL   UNL     1      -1.763  12.930  21.302  0.00  0.00    +0.000 Cl
ATOM     10  C   UNL     1      -0.991  11.843  20.214  0.00  0.00    +0.000 A 
ATOM     11  N   UNL     1       0.291  11.619  20.536  0.00  0.00    +0.000 NA
ATOM     12  N   UNL     1       1.038  10.812  19.739  0.00  0.00    +0.000 NA
ATOM     13  C   UNL     1       0.520  10.234  18.624  0.00  0.00    +0.000 A 
ATOM     14  C   UNL     1      -0.847  10.387  18.303  0.00  0.00    +0.000 A 
ATOM     15  C   UNL     1      -1.476   9.774  17.194  0.00  0.00    +0.000 A 
ATOM     16  C   UNL     1      -2.821   9.999  16.896  0.00  0.00    +0.000 A 
ATOM     17  C   UNL     1      -3.570  10.865  17.682  0.00  0.00    +0.000 A 
ATOM     18  C   UNL     1      -2.980  11.487  18.778  0.00  0.00    +0.000 A 
ATOM     19  C   UNL     1      -1.625  11.252  19.119  0.00  0.00    +0.000 A 
ENDBRANCH   7  13
ENDBRANCH   1   7
BRANCH   3  20
ATOM     20  C   UNL     1       1.931   5.351  20.454  0.00  0.00    +0.000 C 
BRANCH  20  21
ATOM     21  N   UNL     1       1.134   4.364  19.710  0.00  0.00    +0.000 NA
ATOM     22  C   UNL     1       1.087   3.052  20.358  0.00  0.00    +0.000 C 
ATOM     23  C   UNL     1       1.854   2.078  19.482  0.00  0.00    +0.000 C 
ATOM     24  C   UNL     1       1.941   2.721  18.119  0.00  0.00    +0.000 C 
ATOM     25  C   UNL     1       1.527   4.167  18.311  0.00  0.00    +0.000 C 
ENDBRANCH  20  21
ENDBRANCH   3  20
BRANCH   5  26
ATOM     26  C   UNL     1       5.336   6.576  16.993  0.00  0.00    +0.000 C 
BRANCH  26  27
ATOM     27  N   UNL     1       5.697   5.159  16.877  0.00  0.00    +0.000 NA
ATOM     28  C   UNL     1       7.092   4.894  16.534  0.00  0.00    +0.000 C 
ATOM     29  C   UNL     1       7.097   4.614  15.045  0.00  0.00    +0.000 C 
ATOM     30  C   UNL     1       5.765   3.929  14.807  0.00  0.00    +0.000 C 
ATOM     31  C   UNL     1       4.867   4.380  15.954  0.00  0.00    +0.000 C 
ENDBRANCH  26  27
ENDBRANCH   5  26
TORSDOF 6
ENDMDL
MODEL 5
REMARK VINA RESULT:      -9.0      1.822      4.934
REMARK  Name = 
REMARK  6 active torsions:
REMARK  status: ('A' for Active; 'I' for Inactive)
REMARK    1  A    between atoms: C_5  and  N_6
REMARK    2  A    between atoms: N_6  and  C_7
REMARK    3  A    between atoms: C_9  and  C_10
REMARK    4  A    between atoms: C_10  and  N_11
REMARK    5  A    between atoms: C_17  and  C_18
REMARK    6  A    between atoms: C_18  and  N_19
REMARK                            x       y       z     vdW  Elec       q    Type
REMARK                         _______ _______ _______ _____ _____    ______ ____
ROOT
ATOM      1  C   UNL     1       2.277   7.798  18.323  0.00  0.00    +0.000 A 
ATOM      2  C   UNL     1       3.465   7.477  17.654  0.00  0.00    +0.000 A 
ATOM      3  C   UNL     1       4.240   6.374  18.066  0.00  0.00    +0.000 A 
ATOM      4  C   UNL     1       3.772   5.542  19.097  0.00  0.00    +0.000 A 
ATOM      5  C   UNL     1       2.656   5.906  19.848  0.00  0.00    +0.000 A 
ATOM      6  C   UNL     1       1.967   7.064  19.480  0.00  0.00    +0.000 A 
ENDROOT
BRANCH   1   7
ATOM      7  N   UNL     1       1.501   8.925  17.954  0.00  0.00    +0.000 N 
ATOM      8  H   UNL     1       0.938   8.764  17.127  0.00  0.00    +0.000 HD
BRANCH   7  13
ATOM      9 CL   UNL     1      -0.896  12.607  21.811  0.00  0.00    +0.000 Cl
ATOM     10  C   UNL     1      -0.364  11.481  20.623  0.00  0.00    +0.000 A 
ATOM     11  N   UNL     1       0.826  10.941  20.924  0.00  0.00    +0.000 NA
ATOM     12  N   UNL     1       1.390  10.065  20.053  0.00  0.00    +0.000 NA
ATOM     13  C   UNL     1       0.782   9.729  18.886  0.00  0.00    +0.000 A 
ATOM     14  C   UNL     1      -0.506  10.219  18.578  0.00  0.00    +0.000 A 
ATOM     15  C   UNL     1      -1.231   9.874  17.413  0.00  0.00    +0.000 A 
ATOM     16  C   UNL     1      -2.482  10.427  17.136  0.00  0.00    +0.000 A 
ATOM     17  C   UNL     1      -3.035  11.362  18.001  0.00  0.00    +0.000 A 
ATOM     18  C   UNL     1      -2.346  11.726  19.155  0.00  0.00    +0.000 A 
ATOM     19  C   UNL     1      -1.088  11.158  19.474  0.00  0.00    +0.000 A 
ENDBRANCH   7  13
ENDBRANCH   1   7
BRANCH   3  20
ATOM     20  C   UNL     1       5.661   6.180  17.567  0.00  0.00    +0.000 C 
BRANCH  20  21
ATOM     21  N   UNL     1       5.858   4.865  16.937  0.00  0.00    +0.000 NA
ATOM     22  C   UNL     1       7.195   4.692  16.368  0.00  0.00    +0.000 C 
ATOM     23  C   UNL     1       7.050   4.632  14.858  0.00  0.00    +0.000 C 
ATOM     24  C   UNL     1       5.600   4.307  14.590  0.00  0.00    +0.000 C 
ATOM     25  C   UNL     1       4.876   4.511  15.906  0.00  0.00    +0.000 C 
ENDBRANCH  20  21
ENDBRANCH   3  20
BRANCH   5  26
ATOM     26  C   UNL     1       2.252   5.127  21.081  0.00  0.00    +0.000 C 
BRANCH  26  27
ATOM     27  N   UNL     1       1.504   3.878  20.904  0.00  0.00    +0.000 NA
ATOM     28  C   UNL     1       2.289   2.653  21.033  0.00  0.00    +0.000 C 
ATOM     29  C   UNL     1       2.592   2.215  19.615  0.00  0.00    +0.000 C 
ATOM     30  C   UNL     1       1.363   2.647  18.838  0.00  0.00    +0.000 C 
ATOM     31  C   UNL     1       0.746   3.779  19.653  0.00  0.00    +0.000 C 
ENDBRANCH  26  27
ENDBRANCH   5  26
TORSDOF 6
ENDMDL
MODEL 6
REMARK VINA RESULT:      -9.0      0.681      3.960
REMARK  Name = 
REMARK  6 active torsions:
REMARK  status: ('A' for Active; 'I' for Inactive)
REMARK    1  A    between atoms: C_5  and  N_6
REMARK    2  A    between atoms: N_6  and  C_7
REMARK    3  A    between atoms: C_9  and  C_10
REMARK    4  A    between atoms: C_10  and  N_11
REMARK    5  A    between atoms: C_17  and  C_18
REMARK    6  A    between atoms: C_18  and  N_19
REMARK                            x       y       z     vdW  Elec       q    Type
REMARK                         _______ _______ _______ _____ _____    ______ ____
ROOT
ATOM      1  C   UNL     1       2.540   6.627  19.131  0.00  0.00    +0.000 A 
ATOM      2  C   UNL     1       3.539   6.810  18.166  0.00  0.00    +0.000 A 
ATOM      3  C   UNL     1       3.817   5.796  17.228  0.00  0.00    +0.000 A 
ATOM      4  C   UNL     1       3.028   4.634  17.205  0.00  0.00    +0.000 A 
ATOM      5  C   UNL     1       2.109   4.383  18.222  0.00  0.00    +0.000 A 
ATOM      6  C   UNL     1       1.930   5.364  19.201  0.00  0.00    +0.000 A 
ENDROOT
BRANCH   1   7
ATOM      7  N   UNL     1       2.268   7.615  20.112  0.00  0.00    +0.000 N 
ATOM      8  H   UNL     1       3.090   7.883  20.641  0.00  0.00    +0.000 HD
BRANCH   7  13
ATOM      9 CL   UNL     1      -1.391  11.934  18.653  0.00  0.00    +0.000 Cl
ATOM     10  C   UNL     1      -0.307  10.738  19.253  0.00  0.00    +0.000 A 
ATOM     11  N   UNL     1       0.456  10.208  18.286  0.00  0.00    +0.000 NA
ATOM     12  N   UNL     1       1.331   9.220  18.608  0.00  0.00    +0.000 NA
ATOM     13  C   UNL     1       1.444   8.754  19.879  0.00  0.00    +0.000 A 
ATOM     14  C   UNL     1       0.712   9.347  20.930  0.00  0.00    +0.000 A 
ATOM     15  C   UNL     1       0.815   8.960  22.287  0.00  0.00    +0.000 A 
ATOM     16  C   UNL     1       0.031   9.549  23.281  0.00  0.00    +0.000 A 
ATOM     17  C   UNL     1      -0.900  10.522  22.943  0.00  0.00    +0.000 A 
ATOM     18  C   UNL     1      -1.029  10.923  21.617  0.00  0.00    +0.000 A 
ATOM     19  C   UNL     1      -0.224  10.363  20.594  0.00  0.00    +0.000 A 
ENDBRANCH   7  13
ENDBRANCH   1   7
BRANCH   3  20
ATOM     20  C   UNL     1       5.073   5.835  16.375  0.00  0.00    +0.000 C 
BRANCH  20  21
ATOM     21  N   UNL     1       6.223   5.206  17.043  0.00  0.00    +0.000 NA
ATOM     22  C   UNL     1       5.883   4.605  18.333  0.00  0.00    +0.000 C 
ATOM     23  C   UNL     1       6.571   5.417  19.416  0.00  0.00    +0.000 C 
ATOM     24  C   UNL     1       7.666   6.193  18.724  0.00  0.00    +0.000 C 
ATOM     25  C   UNL     1       7.388   6.077  17.239  0.00  0.00    +0.000 C 
ENDBRANCH  20  21
ENDBRANCH   3  20
BRANCH   5  26
ATOM     26  C   UNL     1       1.393   3.054  18.322  0.00  0.00    +0.000 C 
BRANCH  26  27
ATOM     27  N   UNL     1       1.949   2.026  19.209  0.00  0.00    +0.000 NA
ATOM     28  C   UNL     1       1.648   2.192  20.628  0.00  0.00    +0.000 C 
ATOM     29  C   UNL     1       2.885   2.826  21.232  0.00  0.00    +0.000 C 
ATOM     30  C   UNL     1       4.020   2.236  20.419  0.00  0.00    +0.000 C 
ATOM     31  C   UNL     1       3.395   1.821  19.092  0.00  0.00    +0.000 C 
ENDBRANCH  26  27
ENDBRANCH   5  26
TORSDOF 6
ENDMDL
MODEL 7
REMARK VINA RESULT:      -8.9      1.899      2.782
REMARK  Name = 
REMARK  6 active torsions:
REMARK  status: ('A' for Active; 'I' for Inactive)
REMARK    1  A    between atoms: C_5  and  N_6
REMARK    2  A    between atoms: N_6  and  C_7
REMARK    3  A    between atoms: C_9  and  C_10
REMARK    4  A    between atoms: C_10  and  N_11
REMARK    5  A    between atoms: C_17  and  C_18
REMARK    6  A    between atoms: C_18  and  N_19
REMARK                            x       y       z     vdW  Elec       q    Type
REMARK                         _______ _______ _______ _____ _____    ______ ____
ROOT
ATOM      1  C   UNL     1       2.335   8.673  18.053  0.00  0.00    +0.000 A 
ATOM      2  C   UNL     1       2.011   7.951  19.209  0.00  0.00    +0.000 A 
ATOM      3  C   UNL     1       2.607   6.699  19.457  0.00  0.00    +0.000 A 
ATOM      4  C   UNL     1       3.598   6.215  18.585  0.00  0.00    +0.000 A 
ATOM      5  C   UNL     1       3.852   6.860  17.377  0.00  0.00    +0.000 A 
ATOM      6  C   UNL     1       3.166   8.047  17.110  0.00  0.00    +0.000 A 
ENDROOT
BRANCH   1   7
ATOM      7  N   UNL     1       1.719   9.917  17.760  0.00  0.00    +0.000 N 
ATOM      8  H   UNL     1       1.395   9.981  16.803  0.00  0.00    +0.000 HD
BRANCH   7  13
ATOM      9 CL   UNL     1      -1.657  13.135  21.284  0.00  0.00    +0.000 Cl
ATOM     10  C   UNL     1      -0.814  12.084  20.213  0.00  0.00    +0.000 A 
ATOM     11  N   UNL     1       0.495  12.011  20.491  0.00  0.00    +0.000 NA
ATOM     12  N   UNL     1       1.294  11.250  19.699  0.00  0.00    +0.000 NA
ATOM     13  C   UNL     1       0.800  10.569  18.633  0.00  0.00    +0.000 A 
ATOM     14  C   UNL     1      -0.585  10.562  18.363  0.00  0.00    +0.000 A 
ATOM     15  C   UNL     1      -1.186   9.834  17.309  0.00  0.00    +0.000 A 
ATOM     16  C   UNL     1      -2.558   9.902  17.058  0.00  0.00    +0.000 A 
ATOM     17  C   UNL     1      -3.365  10.721  17.835  0.00  0.00    +0.000 A 
ATOM     18  C   UNL     1      -2.805  11.453  18.878  0.00  0.00    +0.000 A 
ATOM     19  C   UNL     1      -1.421  11.379  19.172  0.00  0.00    +0.000 A 
ENDBRANCH   7  13
ENDBRANCH   1   7
BRANCH   3  20
ATOM     20  C   UNL     1       2.065   5.766  20.526  0.00  0.00    +0.000 C 
BRANCH  20  21
ATOM     21  N   UNL     1       2.108   4.355  20.112  0.00  0.00    +0.000 NA
ATOM     22  C   UNL     1       0.895   3.614  20.457  0.00  0.00    +0.000 C 
ATOM     23  C   UNL     1       1.261   2.600  21.526  0.00  0.00    +0.000 C 
ATOM     24  C   UNL     1       2.762   2.446  21.459  0.00  0.00    +0.000 C 
ATOM     25  C   UNL     1       3.262   3.593  20.602  0.00  0.00    +0.000 C 
ENDBRANCH  20  21
ENDBRANCH   3  20
BRANCH   5  26
ATOM     26  C   UNL     1       4.771   6.250  16.341  0.00  0.00    +0.000 C 
BRANCH  26  27
ATOM     27  N   UNL     1       6.208   6.532  16.430  0.00  0.00    +0.000 NA
ATOM     28  C   UNL     1       7.083   5.371  16.291  0.00  0.00    +0.000 C 
ATOM     29  C   UNL     1       7.470   4.985  17.704  0.00  0.00    +0.000 C 
ATOM     30  C   UNL     1       7.525   6.312  18.435  0.00  0.00    +0.000 C 
ATOM     31  C   UNL     1       6.627   7.251  17.636  0.00  0.00    +0.000 C 
ENDBRANCH  26  27
ENDBRANCH   5  26
TORSDOF 6
ENDMDL
MODEL 8
REMARK VINA RESULT:      -8.8      1.481      4.420
REMARK  Name = 
REMARK  6 active torsions:
REMARK  status: ('A' for Active; 'I' for Inactive)
REMARK    1  A    between atoms: C_5  and  N_6
REMARK    2  A    between atoms: N_6  and  C_7
REMARK    3  A    between atoms: C_9  and  C_10
REMARK    4  A    between atoms: C_10  and  N_11
REMARK    5  A    between atoms: C_17  and  C_18
REMARK    6  A    between atoms: C_18  and  N_19
REMARK                            x       y       z     vdW  Elec       q    Type
REMARK                         _______ _______ _______ _____ _____    ______ ____
ROOT
ATOM      1  C   UNL     1       2.628   7.094  18.284  0.00  0.00    +0.000 A 
ATOM      2  C   UNL     1       3.849   7.238  17.614  0.00  0.00    +0.000 A 
ATOM      3  C   UNL     1       4.905   6.335  17.854  0.00  0.00    +0.000 A 
ATOM      4  C   UNL     1       4.699   5.235  18.704  0.00  0.00    +0.000 A 
ATOM      5  C   UNL     1       3.536   5.137  19.465  0.00  0.00    +0.000 A 
ATOM      6  C   UNL     1       2.549   6.108  19.282  0.00  0.00    +0.000 A 
ENDROOT
BRANCH   1   7
ATOM      7  N   UNL     1       1.565   8.012  18.091  0.00  0.00    +0.000 N 
ATOM      8  H   UNL     1       0.652   7.592  18.222  0.00  0.00    +0.000 HD
BRANCH   7  13
ATOM      9 CL   UNL     1       1.328  13.661  19.575  0.00  0.00    +0.000 Cl
ATOM     10  C   UNL     1       1.390  11.960  19.320  0.00  0.00    +0.000 A 
ATOM     11  N   UNL     1       2.022  11.635  18.183  0.00  0.00    +0.000 NA
ATOM     12  N   UNL     1       2.109  10.325  17.831  0.00  0.00    +0.000 NA
ATOM     13  C   UNL     1       1.568   9.344  18.598  0.00  0.00    +0.000 A 
ATOM     14  C   UNL     1       0.968   9.648  19.839  0.00  0.00    +0.000 A 
ATOM     15  C   UNL     1       0.433   8.681  20.722  0.00  0.00    +0.000 A 
ATOM     16  C   UNL     1      -0.193   9.043  21.916  0.00  0.00    +0.000 A 
ATOM     17  C   UNL     1      -0.328  10.384  22.250  0.00  0.00    +0.000 A 
ATOM     18  C   UNL     1       0.184  11.361  21.401  0.00  0.00    +0.000 A 
ATOM     19  C   UNL     1       0.850  11.019  20.198  0.00  0.00    +0.000 A 
ENDBRANCH   7  13
ENDBRANCH   1   7
BRANCH   3  20
ATOM     20  C   UNL     1       6.318   6.632  17.382  0.00  0.00    +0.000 C 
BRANCH  20  21
ATOM     21  N   UNL     1       6.636   5.961  16.112  0.00  0.00    +0.000 NA
ATOM     22  C   UNL     1       5.509   5.928  15.179  0.00  0.00    +0.000 C 
ATOM     23  C   UNL     1       5.067   4.482  15.042  0.00  0.00    +0.000 C 
ATOM     24  C   UNL     1       6.224   3.643  15.529  0.00  0.00    +0.000 C 
ATOM     25  C   UNL     1       7.164   4.598  16.238  0.00  0.00    +0.000 C 
ENDBRANCH  20  21
ENDBRANCH   3  20
BRANCH   5  26
ATOM     26  C   UNL     1       3.381   4.069  20.525  0.00  0.00    +0.000 C 
BRANCH  26  27
ATOM     27  N   UNL     1       2.717   2.813  20.159  0.00  0.00    +0.000 NA
ATOM     28  C   UNL     1       3.218   2.170  18.948  0.00  0.00    +0.000 C 
ATOM     29  C   UNL     1       2.240   2.549  17.854  0.00  0.00    +0.000 C 
ATOM     30  C   UNL     1       0.910   2.629  18.578  0.00  0.00    +0.000 C 
ATOM     31  C   UNL     1       1.259   2.892  20.039  0.00  0.00    +0.000 C 
ENDBRANCH  26  27
ENDBRANCH   5  26
TORSDOF 6
ENDMDL
MODEL 9
REMARK VINA RESULT:      -8.8      1.550      2.535
REMARK  Name = 
REMARK  6 active torsions:
REMARK  status: ('A' for Active; 'I' for Inactive)
REMARK    1  A    between atoms: C_5  and  N_6
REMARK    2  A    between atoms: N_6  and  C_7
REMARK    3  A    between atoms: C_9  and  C_10
REMARK    4  A    between atoms: C_10  and  N_11
REMARK    5  A    between atoms: C_17  and  C_18
REMARK    6  A    between atoms: C_18  and  N_19
REMARK                            x       y       z     vdW  Elec       q    Type
REMARK                         _______ _______ _______ _____ _____    ______ ____
ROOT
ATOM      1  C   UNL     1       2.600   7.328  18.188  0.00  0.00    +0.000 A 
ATOM      2  C   UNL     1       1.886   6.123  18.201  0.00  0.00    +0.000 A 
ATOM      3  C   UNL     1       2.553   4.896  18.013  0.00  0.00    +0.000 A 
ATOM      4  C   UNL     1       3.954   4.877  17.899  0.00  0.00    +0.000 A 
ATOM      5  C   UNL     1       4.669   6.066  17.770  0.00  0.00    +0.000 A 
ATOM      6  C   UNL     1       3.963   7.268  17.855  0.00  0.00    +0.000 A 
ENDROOT
BRANCH   1   7
ATOM      7  N   UNL     1       1.947   8.578  18.335  0.00  0.00    +0.000 N 
ATOM      8  H   UNL     1       1.458   8.869  17.496  0.00  0.00    +0.000 HD
BRANCH   7  13
ATOM      9 CL   UNL     1      -0.527  10.173  23.385  0.00  0.00    +0.000 Cl
ATOM     10  C   UNL     1       0.045   9.761  21.815  0.00  0.00    +0.000 A 
ATOM     11  N   UNL     1       0.940   8.764  21.841  0.00  0.00    +0.000 NA
ATOM     12  N   UNL     1       1.510   8.361  20.675  0.00  0.00    +0.000 NA
ATOM     13  C   UNL     1       1.199   8.947  19.490  0.00  0.00    +0.000 A 
ATOM     14  C   UNL     1       0.202   9.944  19.420  0.00  0.00    +0.000 A 
ATOM     15  C   UNL     1      -0.220  10.564  18.221  0.00  0.00    +0.000 A 
ATOM     16  C   UNL     1      -1.178  11.580  18.216  0.00  0.00    +0.000 A 
ATOM     17  C   UNL     1      -1.721  12.027  19.413  0.00  0.00    +0.000 A 
ATOM     18  C   UNL     1      -1.324  11.441  20.612  0.00  0.00    +0.000 A 
ATOM     19  C   UNL     1      -0.377  10.388  20.641  0.00  0.00    +0.000 A 
ENDBRANCH   7  13
ENDBRANCH   1   7
BRANCH   3  20
ATOM     20  C   UNL     1       1.786   3.618  17.724  0.00  0.00    +0.000 C 
BRANCH  20  21
ATOM     21  N   UNL     1       1.556   2.817  18.937  0.00  0.00    +0.000 NA
ATOM     22  C   UNL     1       0.831   3.543  19.980  0.00  0.00    +0.000 C 
ATOM     23  C   UNL     1       1.788   3.768  21.136  0.00  0.00    +0.000 C 
ATOM     24  C   UNL     1       2.910   2.775  20.949  0.00  0.00    +0.000 C 
ATOM     25  C   UNL     1       2.760   2.235  19.540  0.00  0.00    +0.000 C 
ENDBRANCH  20  21
ENDBRANCH   3  20
BRANCH   5  26
ATOM     26  C   UNL     1       6.148   6.060  17.452  0.00  0.00    +0.000 C 
BRANCH  26  27
ATOM     27  N   UNL     1       6.562   5.902  16.054  0.00  0.00    +0.000 NA
ATOM     28  C   UNL     1       5.496   6.040  15.065  0.00  0.00    +0.000 C 
ATOM     29  C   UNL     1       5.098   4.625  14.699  0.00  0.00    +0.000 C 
ATOM     30  C   UNL     1       6.398   3.851  14.801  0.00  0.00    +0.000 C 
ATOM     31  C   UNL     1       7.275   4.657  15.754  0.00  0.00    +0.000 C 
ENDBRANCH  26  27
ENDBRANCH   5  26
TORSDOF 6
ENDMDL
