MODEL 1
REMARK VINA RESULT:      -8.1      0.000      0.000
REMARK  Name = 
REMARK  5 active torsions:
REMARK  status: ('A' for Active; 'I' for Inactive)
REMARK    1  A    between atoms: C_1  and  N_2
REMARK    2  A    between atoms: C_5  and  O_6
REMARK    3  A    between atoms: C_7  and  C_8
REMARK    4  A    between atoms: C_8  and  C_10
REMARK    5  A    between atoms: C_16  and  C_17
REMARK                            x       y       z     vdW  Elec       q    Type
REMARK                         _______ _______ _______ _____ _____    ______ ____
ROOT
ATOM      1  C   UNL     1       7.614   5.978  18.862  0.00  0.00    +0.000 C 
ATOM      2  N   UNL     1       6.621   5.250  18.108  0.00  0.00    +0.000 N 
ATOM      3  C   UNL     1       6.857   4.635  16.902  0.00  0.00    +0.000 C 
ATOM      4  O   UNL     1       7.811   4.742  16.152  0.00  0.00    +0.000 OA
ATOM      5  C   UNL     1       5.743   3.684  16.679  0.00  0.00    +0.000 C 
ATOM      6  C   UNL     1       4.918   3.747  17.745  0.00  0.00    +0.000 C 
ATOM      7  C   UNL     1       5.333   4.885  18.651  0.00  0.00    +0.000 C 
ENDROOT
BRANCH   7   8
ATOM      8  C   UNL     1       4.399   6.098  18.604  0.00  0.00    +0.000 A 
ATOM      9  C   UNL     1       3.411   6.251  19.594  0.00  0.00    +0.000 A 
ATOM     10  C   UNL     1       2.394   7.199  19.440  0.00  0.00    +0.000 A 
ATOM     11  C   UNL     1       2.376   8.023  18.315  0.00  0.00    +0.000 A 
ATOM     12 BR   UNL     1       0.936   9.214  18.044  0.00  0.00    +0.000 Br
ATOM     13  C   UNL     1       3.396   7.949  17.372  0.00  0.00    +0.000 A 
ATOM     14  C   UNL     1       4.414   7.006  17.525  0.00  0.00    +0.000 A 
ENDBRANCH   7   8
BRANCH   5  15
ATOM     15  O   UNL     1       5.715   2.859  15.595  0.00  0.00    +0.000 OA
ATOM     16  H   UNL     1       4.906   2.315  15.697  0.00  0.00    +0.000 HD
ENDBRANCH   5  15
BRANCH   6  17
ATOM     17  C   UNL     1       3.811   2.771  17.973  0.00  0.00    +0.000 C 
ATOM     18  O   UNL     1       3.670   1.789  17.247  0.00  0.00    +0.000 OA
BRANCH  17  19
ATOM     19  C   UNL     1       2.886   2.867  19.143  0.00  0.00    +0.000 A 
ATOM     20  C   UNL     1       1.525   3.159  19.027  0.00  0.00    +0.000 A 
ATOM     21  C   UNL     1       0.701   3.292  20.142  0.00  0.00    +0.000 A 
ATOM     22  C   UNL     1       1.204   3.024  21.404  0.00  0.00    +0.000 A 
ATOM     23  C   UNL     1       2.533   2.627  21.542  0.00  0.00    +0.000 A 
ATOM     24  C   UNL     1       3.373   2.561  20.421  0.00  0.00    +0.000 A 
ENDBRANCH  17  19
ENDBRANCH   6  17
TORSDOF 4
ENDMDL
MODEL 2
REMARK VINA RESULT:      -8.1      0.400      1.471
REMARK  Name = 
REMARK  5 active torsions:
REMARK  status: ('A' for Active; 'I' for Inactive)
REMARK    1  A    between atoms: C_1  and  N_2
REMARK    2  A    between atoms: C_5  and  O_6
REMARK    3  A    between atoms: C_7  and  C_8
REMARK    4  A    between atoms: C_8  and  C_10
REMARK    5  A    between atoms: C_16  and  C_17
REMARK                            x       y       z     vdW  Elec       q    Type
REMARK                         _______ _______ _______ _____ _____    ______ ____
ROOT
ATOM      1  C   UNL     1       7.212   6.519  18.457  0.00  0.00    +0.000 C 
ATOM      2  N   UNL     1       6.316   5.580  17.824  0.00  0.00    +0.000 N 
ATOM      3  C   UNL     1       6.581   4.924  16.646  0.00  0.00    +0.000 C 
ATOM      4  O   UNL     1       7.458   5.132  15.825  0.00  0.00    +0.000 OA
ATOM      5  C   UNL     1       5.635   3.788  16.564  0.00  0.00    +0.000 C 
ATOM      6  C   UNL     1       4.877   3.792  17.679  0.00  0.00    +0.000 C 
ATOM      7  C   UNL     1       5.144   5.047  18.479  0.00  0.00    +0.000 C 
ENDROOT
BRANCH   7   8
ATOM      8  C   UNL     1       4.014   6.081  18.422  0.00  0.00    +0.000 A 
ATOM      9  C   UNL     1       3.959   6.990  17.350  0.00  0.00    +0.000 A 
ATOM     10  C   UNL     1       3.100   8.091  17.398  0.00  0.00    +0.000 A 
ATOM     11  C   UNL     1       2.264   8.274  18.499  0.00  0.00    +0.000 A 
ATOM     12 BR   UNL     1       1.195   9.827  18.623  0.00  0.00    +0.000 Br
ATOM     13  C   UNL     1       2.237   7.335  19.525  0.00  0.00    +0.000 A 
ATOM     14  C   UNL     1       3.092   6.233  19.478  0.00  0.00    +0.000 A 
ENDBRANCH   7   8
BRANCH   5  15
ATOM     15  O   UNL     1       5.685   2.890  15.540  0.00  0.00    +0.000 OA
ATOM     16  H   UNL     1       6.013   3.391  14.764  0.00  0.00    +0.000 HD
ENDBRANCH   5  15
BRANCH   6  17
ATOM     17  C   UNL     1       3.968   2.664  18.047  0.00  0.00    +0.000 C 
ATOM     18  O   UNL     1       4.030   1.583  17.466  0.00  0.00    +0.000 OA
BRANCH  17  19
ATOM     19  C   UNL     1       3.017   2.744  19.198  0.00  0.00    +0.000 A 
ATOM     20  C   UNL     1       3.415   2.649  20.533  0.00  0.00    +0.000 A 
ATOM     21  C   UNL     1       2.498   2.675  21.580  0.00  0.00    +0.000 A 
ATOM     22  C   UNL     1       1.159   2.911  21.315  0.00  0.00    +0.000 A 
ATOM     23  C   UNL     1       0.747   3.116  19.999  0.00  0.00    +0.000 A 
ATOM     24  C   UNL     1       1.667   3.020  18.946  0.00  0.00    +0.000 A 
ENDBRANCH  17  19
ENDBRANCH   6  17
TORSDOF 4
ENDMDL
MODEL 3
REMARK VINA RESULT:      -8.0      0.482      1.116
REMARK  Name = 
REMARK  5 active torsions:
REMARK  status: ('A' for Active; 'I' for Inactive)
REMARK    1  A    between atoms: C_1  and  N_2
REMARK    2  A    between atoms: C_5  and  O_6
REMARK    3  A    between atoms: C_7  and  C_8
REMARK    4  A    between atoms: C_8  and  C_10
REMARK    5  A    between atoms: C_16  and  C_17
REMARK                            x       y       z     vdW  Elec       q    Type
REMARK                         _______ _______ _______ _____ _____    ______ ____
ROOT
ATOM      1  C   UNL     1       7.202   6.668  18.344  0.00  0.00    +0.000 C 
ATOM      2  N   UNL     1       6.313   5.711  17.728  0.00  0.00    +0.000 N 
ATOM      3  C   UNL     1       6.562   5.075  16.535  0.00  0.00    +0.000 C 
ATOM      4  O   UNL     1       7.407   5.316  15.691  0.00  0.00    +0.000 OA
ATOM      5  C   UNL     1       5.646   3.913  16.469  0.00  0.00    +0.000 C 
ATOM      6  C   UNL     1       4.921   3.884  17.606  0.00  0.00    +0.000 C 
ATOM      7  C   UNL     1       5.177   5.138  18.411  0.00  0.00    +0.000 C 
ENDROOT
BRANCH   7   8
ATOM      8  C   UNL     1       4.018   6.140  18.398  0.00  0.00    +0.000 A 
ATOM      9  C   UNL     1       3.912   7.066  17.345  0.00  0.00    +0.000 A 
ATOM     10  C   UNL     1       3.023   8.142  17.433  0.00  0.00    +0.000 A 
ATOM     11  C   UNL     1       2.209   8.280  18.555  0.00  0.00    +0.000 A 
ATOM     12 BR   UNL     1       1.100   9.800  18.732  0.00  0.00    +0.000 Br
ATOM     13  C   UNL     1       2.232   7.323  19.565  0.00  0.00    +0.000 A 
ATOM     14  C   UNL     1       3.116   6.247  19.478  0.00  0.00    +0.000 A 
ENDBRANCH   7   8
BRANCH   5  15
ATOM     15  O   UNL     1       5.690   3.027  15.434  0.00  0.00    +0.000 OA
ATOM     16  H   UNL     1       6.305   2.319  15.717  0.00  0.00    +0.000 HD
ENDBRANCH   5  15
BRANCH   6  17
ATOM     17  C   UNL     1       4.056   2.728  17.988  0.00  0.00    +0.000 C 
ATOM     18  O   UNL     1       4.205   1.624  17.469  0.00  0.00    +0.000 OA
BRANCH  17  19
ATOM     19  C   UNL     1       3.045   2.812  19.086  0.00  0.00    +0.000 A 
ATOM     20  C   UNL     1       1.677   2.979  18.860  0.00  0.00    +0.000 A 
ATOM     21  C   UNL     1       0.766   3.107  19.906  0.00  0.00    +0.000 A 
ATOM     22  C   UNL     1       1.196   2.956  21.214  0.00  0.00    +0.000 A 
ATOM     23  C   UNL     1       2.540   2.682  21.466  0.00  0.00    +0.000 A 
ATOM     24  C   UNL     1       3.461   2.624  20.410  0.00  0.00    +0.000 A 
ENDBRANCH  17  19
ENDBRANCH   6  17
TORSDOF 4
ENDMDL
MODEL 4
REMARK VINA RESULT:      -7.8      2.299      5.067
REMARK  Name = 
REMARK  5 active torsions:
REMARK  status: ('A' for Active; 'I' for Inactive)
REMARK    1  A    between atoms: C_1  and  N_2
REMARK    2  A    between atoms: C_5  and  O_6
REMARK    3  A    between atoms: C_7  and  C_8
REMARK    4  A    between atoms: C_8  and  C_10
REMARK    5  A    between atoms: C_16  and  C_17
REMARK                            x       y       z     vdW  Elec       q    Type
REMARK                         _______ _______ _______ _____ _____    ______ ____
ROOT
ATOM      1  C   UNL     1       2.234   3.411  18.905  0.00  0.00    +0.000 C 
ATOM      2  N   UNL     1       3.471   4.096  18.610  0.00  0.00    +0.000 N 
ATOM      3  C   UNL     1       4.710   3.682  19.036  0.00  0.00    +0.000 C 
ATOM      4  O   UNL     1       5.001   2.842  19.870  0.00  0.00    +0.000 OA
ATOM      5  C   UNL     1       5.709   4.391  18.204  0.00  0.00    +0.000 C 
ATOM      6  C   UNL     1       5.046   5.163  17.319  0.00  0.00    +0.000 C 
ATOM      7  C   UNL     1       3.568   5.160  17.638  0.00  0.00    +0.000 C 
ENDROOT
BRANCH   7   8
ATOM      8  C   UNL     1       3.057   6.465  18.258  0.00  0.00    +0.000 A 
ATOM      9  C   UNL     1       2.636   6.477  19.600  0.00  0.00    +0.000 A 
ATOM     10  C   UNL     1       1.939   7.574  20.114  0.00  0.00    +0.000 A 
ATOM     11  C   UNL     1       1.689   8.681  19.304  0.00  0.00    +0.000 A 
ATOM     12 BR   UNL     1       0.639  10.109  19.958  0.00  0.00    +0.000 Br
ATOM     13  C   UNL     1       2.178   8.726  18.003  0.00  0.00    +0.000 A 
ATOM     14  C   UNL     1       2.878   7.633  17.488  0.00  0.00    +0.000 A 
ENDBRANCH   7   8
BRANCH   5  15
ATOM     15  O   UNL     1       7.044   4.146  18.328  0.00  0.00    +0.000 OA
ATOM     16  H   UNL     1       7.114   3.280  18.781  0.00  0.00    +0.000 HD
ENDBRANCH   5  15
BRANCH   6  17
ATOM     17  C   UNL     1       5.721   5.848  16.175  0.00  0.00    +0.000 C 
ATOM     18  O   UNL     1       6.135   7.000  16.279  0.00  0.00    +0.000 OA
BRANCH  17  19
ATOM     19  C   UNL     1       6.026   5.148  14.890  0.00  0.00    +0.000 A 
ATOM     20  C   UNL     1       7.235   5.289  14.205  0.00  0.00    +0.000 A 
ATOM     21  C   UNL     1       7.469   4.663  12.983  0.00  0.00    +0.000 A 
ATOM     22  C   UNL     1       6.529   3.785  12.470  0.00  0.00    +0.000 A 
ATOM     23  C   UNL     1       5.356   3.542  13.184  0.00  0.00    +0.000 A 
ATOM     24  C   UNL     1       5.100   4.228  14.379  0.00  0.00    +0.000 A 
ENDBRANCH  17  19
ENDBRANCH   6  17
TORSDOF 4
ENDMDL
MODEL 5
REMARK VINA RESULT:      -7.6      1.917      4.813
REMARK  Name = 
REMARK  5 active torsions:
REMARK  status: ('A' for Active; 'I' for Inactive)
REMARK    1  A    between atoms: C_1  and  N_2
REMARK    2  A    between atoms: C_5  and  O_6
REMARK    3  A    between atoms: C_7  and  C_8
REMARK    4  A    between atoms: C_8  and  C_10
REMARK    5  A    between atoms: C_16  and  C_17
REMARK                            x       y       z     vdW  Elec       q    Type
REMARK                         _______ _______ _______ _____ _____    ______ ____
ROOT
ATOM      1  C   UNL     1       0.546   3.441  18.855  0.00  0.00    +0.000 C 
ATOM      2  N   UNL     1       1.970   3.653  18.966  0.00  0.00    +0.000 N 
ATOM      3  C   UNL     1       2.814   2.884  19.731  0.00  0.00    +0.000 C 
ATOM      4  O   UNL     1       2.546   2.059  20.588  0.00  0.00    +0.000 OA
ATOM      5  C   UNL     1       4.191   3.157  19.260  0.00  0.00    +0.000 C 
ATOM      6  C   UNL     1       4.118   4.038  18.240  0.00  0.00    +0.000 C 
ATOM      7  C   UNL     1       2.702   4.549  18.101  0.00  0.00    +0.000 C 
ENDROOT
BRANCH   7   8
ATOM      8  C   UNL     1       2.505   5.991  18.579  0.00  0.00    +0.000 A 
ATOM      9  C   UNL     1       2.203   6.240  19.930  0.00  0.00    +0.000 A 
ATOM     10  C   UNL     1       1.776   7.507  20.339  0.00  0.00    +0.000 A 
ATOM     11  C   UNL     1       1.681   8.542  19.411  0.00  0.00    +0.000 A 
ATOM     12 BR   UNL     1       0.984  10.218  19.936  0.00  0.00    +0.000 Br
ATOM     13  C   UNL     1       2.065   8.340  18.089  0.00  0.00    +0.000 A 
ATOM     14  C   UNL     1       2.495   7.077  17.678  0.00  0.00    +0.000 A 
ENDBRANCH   7   8
BRANCH   5  15
ATOM     15  O   UNL     1       5.266   2.494  19.772  0.00  0.00    +0.000 OA
ATOM     16  H   UNL     1       6.024   2.736  19.200  0.00  0.00    +0.000 HD
ENDBRANCH   5  15
BRANCH   6  17
ATOM     17  C   UNL     1       5.288   4.373  17.373  0.00  0.00    +0.000 C 
ATOM     18  O   UNL     1       5.439   3.841  16.276  0.00  0.00    +0.000 OA
BRANCH  17  19
ATOM     19  C   UNL     1       6.272   5.439  17.733  0.00  0.00    +0.000 A 
ATOM     20  C   UNL     1       7.246   5.284  18.723  0.00  0.00    +0.000 A 
ATOM     21  C   UNL     1       8.115   6.316  19.070  0.00  0.00    +0.000 A 
ATOM     22  C   UNL     1       8.100   7.498  18.350  0.00  0.00    +0.000 A 
ATOM     23  C   UNL     1       7.211   7.642  17.286  0.00  0.00    +0.000 A 
ATOM     24  C   UNL     1       6.293   6.625  16.988  0.00  0.00    +0.000 A 
ENDBRANCH  17  19
ENDBRANCH   6  17
TORSDOF 4
ENDMDL
MODEL 6
REMARK VINA RESULT:      -7.6      2.034      4.753
REMARK  Name = 
REMARK  5 active torsions:
REMARK  status: ('A' for Active; 'I' for Inactive)
REMARK    1  A    between atoms: C_1  and  N_2
REMARK    2  A    between atoms: C_5  and  O_6
REMARK    3  A    between atoms: C_7  and  C_8
REMARK    4  A    between atoms: C_8  and  C_10
REMARK    5  A    between atoms: C_16  and  C_17
REMARK                            x       y       z     vdW  Elec       q    Type
REMARK                         _______ _______ _______ _____ _____    ______ ____
ROOT
ATOM      1  C   UNL     1       0.508   3.418  19.802  0.00  0.00    +0.000 C 
ATOM      2  N   UNL     1       1.926   3.664  19.689  0.00  0.00    +0.000 N 
ATOM      3  C   UNL     1       2.894   2.967  20.372  0.00  0.00    +0.000 C 
ATOM      4  O   UNL     1       2.777   2.200  21.312  0.00  0.00    +0.000 OA
ATOM      5  C   UNL     1       4.179   3.233  19.686  0.00  0.00    +0.000 C 
ATOM      6  C   UNL     1       3.934   4.037  18.631  0.00  0.00    +0.000 C 
ATOM      7  C   UNL     1       2.498   4.510  18.668  0.00  0.00    +0.000 C 
ENDROOT
BRANCH   7   8
ATOM      8  C   UNL     1       2.332   5.979  19.071  0.00  0.00    +0.000 A 
ATOM      9  C   UNL     1       1.929   6.298  20.381  0.00  0.00    +0.000 A 
ATOM     10  C   UNL     1       1.530   7.598  20.703  0.00  0.00    +0.000 A 
ATOM     11  C   UNL     1       1.564   8.597  19.731  0.00  0.00    +0.000 A 
ATOM     12 BR   UNL     1       0.907  10.323  20.131  0.00  0.00    +0.000 Br
ATOM     13  C   UNL     1       2.047   8.322  18.456  0.00  0.00    +0.000 A 
ATOM     14  C   UNL     1       2.449   7.026  18.132  0.00  0.00    +0.000 A 
ENDBRANCH   7   8
BRANCH   5  15
ATOM     15  O   UNL     1       5.335   2.627  20.078  0.00  0.00    +0.000 OA
ATOM     16  H   UNL     1       5.090   2.047  20.829  0.00  0.00    +0.000 HD
ENDBRANCH   5  15
BRANCH   6  17
ATOM     17  C   UNL     1       4.955   4.332  17.581  0.00  0.00    +0.000 C 
ATOM     18  O   UNL     1       4.945   3.745  16.502  0.00  0.00    +0.000 OA
BRANCH  17  19
ATOM     19  C   UNL     1       5.970   5.419  17.734  0.00  0.00    +0.000 A 
ATOM     20  C   UNL     1       5.911   6.630  17.040  0.00  0.00    +0.000 A 
ATOM     21  C   UNL     1       6.902   7.601  17.166  0.00  0.00    +0.000 A 
ATOM     22  C   UNL     1       7.924   7.426  18.084  0.00  0.00    +0.000 A 
ATOM     23  C   UNL     1       7.950   6.274  18.868  0.00  0.00    +0.000 A 
ATOM     24  C   UNL     1       6.987   5.271  18.686  0.00  0.00    +0.000 A 
ENDBRANCH  17  19
ENDBRANCH   6  17
TORSDOF 4
ENDMDL
MODEL 7
REMARK VINA RESULT:      -7.6      2.302      5.059
REMARK  Name = 
REMARK  5 active torsions:
REMARK  status: ('A' for Active; 'I' for Inactive)
REMARK    1  A    between atoms: C_1  and  N_2
REMARK    2  A    between atoms: C_5  and  O_6
REMARK    3  A    between atoms: C_7  and  C_8
REMARK    4  A    between atoms: C_8  and  C_10
REMARK    5  A    between atoms: C_16  and  C_17
REMARK                            x       y       z     vdW  Elec       q    Type
REMARK                         _______ _______ _______ _____ _____    ______ ____
ROOT
ATOM      1  C   UNL     1       1.768   3.625  18.730  0.00  0.00    +0.000 C 
ATOM      2  N   UNL     1       3.072   4.217  18.545  0.00  0.00    +0.000 N 
ATOM      3  C   UNL     1       4.242   3.691  19.037  0.00  0.00    +0.000 C 
ATOM      4  O   UNL     1       4.408   2.805  19.857  0.00  0.00    +0.000 OA
ATOM      5  C   UNL     1       5.349   4.343  18.301  0.00  0.00    +0.000 C 
ATOM      6  C   UNL     1       4.812   5.194  17.402  0.00  0.00    +0.000 C 
ATOM      7  C   UNL     1       3.320   5.300  17.622  0.00  0.00    +0.000 C 
ENDROOT
BRANCH   7   8
ATOM      8  C   UNL     1       2.871   6.621  18.253  0.00  0.00    +0.000 A 
ATOM      9  C   UNL     1       2.489   6.649  19.607  0.00  0.00    +0.000 A 
ATOM     10  C   UNL     1       1.844   7.769  20.139  0.00  0.00    +0.000 A 
ATOM     11  C   UNL     1       1.607   8.883  19.334  0.00  0.00    +0.000 A 
ATOM     12 BR   UNL     1       0.625  10.346  20.015  0.00  0.00    +0.000 Br
ATOM     13  C   UNL     1       2.060   8.910  18.019  0.00  0.00    +0.000 A 
ATOM     14  C   UNL     1       2.708   7.794  17.487  0.00  0.00    +0.000 A 
ENDBRANCH   7   8
BRANCH   5  15
ATOM     15  O   UNL     1       6.649   3.988  18.506  0.00  0.00    +0.000 OA
ATOM     16  H   UNL     1       6.937   4.482  19.302  0.00  0.00    +0.000 HD
ENDBRANCH   5  15
BRANCH   6  17
ATOM     17  C   UNL     1       5.617   5.857  16.332  0.00  0.00    +0.000 C 
ATOM     18  O   UNL     1       6.092   6.979  16.497  0.00  0.00    +0.000 OA
BRANCH  17  19
ATOM     19  C   UNL     1       5.979   5.166  15.057  0.00  0.00    +0.000 A 
ATOM     20  C   UNL     1       5.117   4.301  14.379  0.00  0.00    +0.000 A 
ATOM     21  C   UNL     1       5.504   3.632  13.221  0.00  0.00    +0.000 A 
ATOM     22  C   UNL     1       6.736   3.903  12.649  0.00  0.00    +0.000 A 
ATOM     23  C   UNL     1       7.576   4.842  13.246  0.00  0.00    +0.000 A 
ATOM     24  C   UNL     1       7.206   5.460  14.449  0.00  0.00    +0.000 A 
ENDBRANCH  17  19
ENDBRANCH   6  17
TORSDOF 4
ENDMDL
MODEL 8
REMARK VINA RESULT:      -7.3      2.110      4.908
REMARK  Name = 
REMARK  5 active torsions:
REMARK  status: ('A' for Active; 'I' for Inactive)
REMARK    1  A    between atoms: C_1  and  N_2
REMARK    2  A    between atoms: C_5  and  O_6
REMARK    3  A    between atoms: C_7  and  C_8
REMARK    4  A    between atoms: C_8  and  C_10
REMARK    5  A    between atoms: C_16  and  C_17
REMARK                            x       y       z     vdW  Elec       q    Type
REMARK                         _______ _______ _______ _____ _____    ______ ____
ROOT
ATOM      1  C   UNL     1       0.751   3.470  18.210  0.00  0.00    +0.000 C 
ATOM      2  N   UNL     1       2.097   3.633  18.708  0.00  0.00    +0.000 N 
ATOM      3  C   UNL     1       2.715   2.766  19.577  0.00  0.00    +0.000 C 
ATOM      4  O   UNL     1       2.236   1.864  20.242  0.00  0.00    +0.000 OA
ATOM      5  C   UNL     1       4.167   3.052  19.509  0.00  0.00    +0.000 C 
ATOM      6  C   UNL     1       4.359   4.035  18.606  0.00  0.00    +0.000 C 
ATOM      7  C   UNL     1       3.027   4.594  18.162  0.00  0.00    +0.000 C 
ENDROOT
BRANCH   7   8
ATOM      8  C   UNL     1       2.710   5.984  18.725  0.00  0.00    +0.000 A 
ATOM      9  C   UNL     1       2.282   6.111  20.059  0.00  0.00    +0.000 A 
ATOM     10  C   UNL     1       1.751   7.320  20.520  0.00  0.00    +0.000 A 
ATOM     11  C   UNL     1       1.678   8.418  19.666  0.00  0.00    +0.000 A 
ATOM     12 BR   UNL     1       0.846  10.011  20.249  0.00  0.00    +0.000 Br
ATOM     13  C   UNL     1       2.181   8.339  18.371  0.00  0.00    +0.000 A 
ATOM     14  C   UNL     1       2.715   7.135  17.909  0.00  0.00    +0.000 A 
ENDBRANCH   7   8
BRANCH   5  15
ATOM     15  O   UNL     1       5.073   2.310  20.207  0.00  0.00    +0.000 OA
ATOM     16  H   UNL     1       4.712   2.235  21.115  0.00  0.00    +0.000 HD
ENDBRANCH   5  15
BRANCH   6  17
ATOM     17  C   UNL     1       5.713   4.428  18.112  0.00  0.00    +0.000 C 
ATOM     18  O   UNL     1       6.640   4.635  18.892  0.00  0.00    +0.000 OA
BRANCH  17  19
ATOM     19  C   UNL     1       6.048   4.487  16.656  0.00  0.00    +0.000 A 
ATOM     20  C   UNL     1       5.256   3.911  15.660  0.00  0.00    +0.000 A 
ATOM     21  C   UNL     1       5.624   3.938  14.317  0.00  0.00    +0.000 A 
ATOM     22  C   UNL     1       6.747   4.648  13.926  0.00  0.00    +0.000 A 
ATOM     23  C   UNL     1       7.499   5.323  14.886  0.00  0.00    +0.000 A 
ATOM     24  C   UNL     1       7.160   5.233  16.244  0.00  0.00    +0.000 A 
ENDBRANCH  17  19
ENDBRANCH   6  17
TORSDOF 4
ENDMDL
MODEL 9
REMARK VINA RESULT:      -7.2      1.111      1.804
REMARK  Name = 
REMARK  5 active torsions:
REMARK  status: ('A' for Active; 'I' for Inactive)
REMARK    1  A    between atoms: C_1  and  N_2
REMARK    2  A    between atoms: C_5  and  O_6
REMARK    3  A    between atoms: C_7  and  C_8
REMARK    4  A    between atoms: C_8  and  C_10
REMARK    5  A    between atoms: C_16  and  C_17
REMARK                            x       y       z     vdW  Elec       q    Type
REMARK                         _______ _______ _______ _____ _____    ______ ____
ROOT
ATOM      1  C   UNL     1       6.940   7.443  17.533  0.00  0.00    +0.000 C 
ATOM      2  N   UNL     1       6.136   6.247  17.436  0.00  0.00    +0.000 N 
ATOM      3  C   UNL     1       6.248   5.314  16.433  0.00  0.00    +0.000 C 
ATOM      4  O   UNL     1       6.844   5.386  15.372  0.00  0.00    +0.000 OA
ATOM      5  C   UNL     1       5.568   4.088  16.910  0.00  0.00    +0.000 C 
ATOM      6  C   UNL     1       5.110   4.320  18.157  0.00  0.00    +0.000 C 
ATOM      7  C   UNL     1       5.290   5.780  18.508  0.00  0.00    +0.000 C 
ENDROOT
BRANCH   7   8
ATOM      8  C   UNL     1       3.988   6.588  18.518  0.00  0.00    +0.000 A 
ATOM      9  C   UNL     1       3.707   7.464  17.455  0.00  0.00    +0.000 A 
ATOM     10  C   UNL     1       2.664   8.390  17.555  0.00  0.00    +0.000 A 
ATOM     11  C   UNL     1       1.872   8.423  18.702  0.00  0.00    +0.000 A 
ATOM     12 BR   UNL     1       0.545   9.754  18.892  0.00  0.00    +0.000 Br
ATOM     13  C   UNL     1       2.075   7.502  19.725  0.00  0.00    +0.000 A 
ATOM     14  C   UNL     1       3.114   6.575  19.625  0.00  0.00    +0.000 A 
ENDBRANCH   7   8
BRANCH   5  15
ATOM     15  O   UNL     1       5.562   2.942  16.171  0.00  0.00    +0.000 OA
ATOM     16  H   UNL     1       6.499   2.663  16.106  0.00  0.00    +0.000 HD
ENDBRANCH   5  15
BRANCH   6  17
ATOM     17  C   UNL     1       4.569   3.240  19.037  0.00  0.00    +0.000 C 
ATOM     18  O   UNL     1       5.318   2.439  19.593  0.00  0.00    +0.000 OA
BRANCH  17  19
ATOM     19  C   UNL     1       3.117   3.135  19.376  0.00  0.00    +0.000 A 
ATOM     20  C   UNL     1       2.637   3.059  20.685  0.00  0.00    +0.000 A 
ATOM     21  C   UNL     1       1.281   2.910  20.966  0.00  0.00    +0.000 A 
ATOM     22  C   UNL     1       0.357   2.945  19.935  0.00  0.00    +0.000 A 
ATOM     23  C   UNL     1       0.800   3.126  18.625  0.00  0.00    +0.000 A 
ATOM     24  C   UNL     1       2.171   3.208  18.345  0.00  0.00    +0.000 A 
ENDBRANCH  17  19
ENDBRANCH   6  17
TORSDOF 4
ENDMDL
