MODEL 1
REMARK VINA RESULT:      -8.1      0.000      0.000
REMARK  Name = 
REMARK  10 active torsions:
REMARK  status: ('A' for Active; 'I' for Inactive)
REMARK    1  A    between atoms: C_1  and  C_2
REMARK    2  A    between atoms: C_7  and  C_8
REMARK    3  A    between atoms: N_10  and  N_11
REMARK    4  A    between atoms: N_10  and  C_27
REMARK    5  A    between atoms: C_12  and  C_14
REMARK    6  A    between atoms: C_23  and  C_24
REMARK    7  A    between atoms: C_23  and  C_25
REMARK    8  A    between atoms: C_27  and  C_28
REMARK    9  A    between atoms: C_27  and  C_29
REMARK   10  A    between atoms: C_27  and  C_30
REMARK                            x       y       z     vdW  Elec       q    Type
REMARK                         _______ _______ _______ _____ _____    ______ ____
ROOT
ATOM      1  N   UNL     1       0.664  11.462  18.725  0.00  0.00    +0.000 N 
ATOM      2  C   UNL     1       0.612  10.049  18.556  0.00  0.00    +0.000 C 
ATOM      3  O   UNL     1      -0.205   9.658  17.712  0.00  0.00    +0.000 OA
ATOM      4  H   UNL     1       0.011  11.907  18.086  0.00  0.00    +0.000 HD
ENDROOT
BRANCH   2   5
ATOM      5  C   UNL     1       1.438   8.949  19.198  0.00  0.00    +0.000 A 
ATOM      6  C   UNL     1       1.179   8.483  20.526  0.00  0.00    +0.000 A 
ATOM      7  C   UNL     1       1.597   7.168  21.000  0.00  0.00    +0.000 A 
ATOM      8  C   UNL     1       2.291   6.322  20.118  0.00  0.00    +0.000 A 
ATOM      9  C   UNL     1       2.717   6.963  18.959  0.00  0.00    +0.000 A 
ATOM     10  C   UNL     1       2.328   8.202  18.474  0.00  0.00    +0.000 A 
ATOM     11  C   UNL     1       2.904   5.970  17.937  0.00  0.00    +0.000 C 
ATOM     12  O   UNL     1       4.002   5.795  17.448  0.00  0.00    +0.000 OA
ATOM     13  C   UNL     1       1.635   5.185  17.880  0.00  0.00    +0.000 C 
ATOM     14  C   UNL     1       1.887   4.164  19.009  0.00  0.00    +0.000 C 
ATOM     15  C   UNL     1       0.854   3.227  19.686  0.00  0.00    +0.000 C 
ATOM     16  C   UNL     1       2.605   3.093  18.100  0.00  0.00    +0.000 C 
ATOM     17  O   UNL     1       2.429   4.939  20.206  0.00  0.00    +0.000 OA
ENDBRANCH   2   5
BRANCH   1  20
ATOM     18  C   UNL     1       0.434  12.752  20.868  0.00  0.00    +0.000 C 
ATOM     19  O   UNL     1       0.982  13.395  21.767  0.00  0.00    +0.000 OA
ATOM     20  N   UNL     1       1.177  12.369  19.748  0.00  0.00    +0.000 N 
BRANCH  18  27
ATOM     21  C   UNL     1      -0.647  10.828  22.807  0.00  0.00    +0.000 C 
ATOM     22  C   UNL     1      -1.518  11.817  22.064  0.00  0.00    +0.000 A 
ATOM     23  C   UNL     1      -2.807  12.059  22.524  0.00  0.00    +0.000 A 
ATOM     24  C   UNL     1      -3.703  12.840  21.771  0.00  0.00    +0.000 A 
ATOM     25  C   UNL     1      -3.275  13.437  20.595  0.00  0.00    +0.000 A 
ATOM     26  C   UNL     1      -1.931  13.380  20.249  0.00  0.00    +0.000 A 
ATOM     27  C   UNL     1      -1.040  12.597  20.995  0.00  0.00    +0.000 A 
ENDBRANCH  18  27
BRANCH  20  28
ATOM     28  C   UNL     1       2.143  13.494  19.279  0.00  0.00    +0.000 C 
ATOM     29  C   UNL     1       1.401  14.842  18.982  0.00  0.00    +0.000 C 
ATOM     30  C   UNL     1       3.249  13.843  20.283  0.00  0.00    +0.000 C 
ATOM     31  C   UNL     1       2.854  13.129  17.933  0.00  0.00    +0.000 C 
ENDBRANCH  20  28
ENDBRANCH   1  20
TORSDOF 4
ENDMDL
MODEL 2
REMARK VINA RESULT:      -7.4      4.298      7.991
REMARK  Name = 
REMARK  10 active torsions:
REMARK  status: ('A' for Active; 'I' for Inactive)
REMARK    1  A    between atoms: C_1  and  C_2
REMARK    2  A    between atoms: C_7  and  C_8
REMARK    3  A    between atoms: N_10  and  N_11
REMARK    4  A    between atoms: N_10  and  C_27
REMARK    5  A    between atoms: C_12  and  C_14
REMARK    6  A    between atoms: C_23  and  C_24
REMARK    7  A    between atoms: C_23  and  C_25
REMARK    8  A    between atoms: C_27  and  C_28
REMARK    9  A    between atoms: C_27  and  C_29
REMARK   10  A    between atoms: C_27  and  C_30
REMARK                            x       y       z     vdW  Elec       q    Type
REMARK                         _______ _______ _______ _____ _____    ______ ____
ROOT
ATOM      1  N   UNL     1       0.251  11.896  21.099  0.00  0.00    +0.000 N 
ATOM      2  C   UNL     1      -0.551  11.666  22.253  0.00  0.00    +0.000 C 
ATOM      3  O   UNL     1      -0.466  10.525  22.725  0.00  0.00    +0.000 OA
ATOM      4  H   UNL     1       0.779  11.057  20.877  0.00  0.00    +0.000 HD
ENDROOT
BRANCH   2   5
ATOM      5  C   UNL     1      -1.448  12.610  23.035  0.00  0.00    +0.000 A 
ATOM      6  C   UNL     1      -1.288  14.031  22.976  0.00  0.00    +0.000 A 
ATOM      7  C   UNL     1      -2.363  14.962  23.301  0.00  0.00    +0.000 A 
ATOM      8  C   UNL     1      -3.609  14.444  23.697  0.00  0.00    +0.000 A 
ATOM      9  C   UNL     1      -3.577  13.082  23.974  0.00  0.00    +0.000 A 
ATOM     10  C   UNL     1      -2.580  12.168  23.665  0.00  0.00    +0.000 A 
ATOM     11  C   UNL     1      -4.909  12.561  23.831  0.00  0.00    +0.000 C 
ATOM     12  O   UNL     1      -5.477  12.064  24.782  0.00  0.00    +0.000 OA
ATOM     13  C   UNL     1      -5.384  12.994  22.483  0.00  0.00    +0.000 C 
ATOM     14  C   UNL     1      -5.902  14.409  22.809  0.00  0.00    +0.000 C 
ATOM     15  C   UNL     1      -6.270  15.536  21.812  0.00  0.00    +0.000 C 
ATOM     16  C   UNL     1      -7.366  13.959  23.195  0.00  0.00    +0.000 C 
ATOM     17  O   UNL     1      -4.841  15.092  23.667  0.00  0.00    +0.000 OA
ENDBRANCH   2   5
BRANCH   1  20
ATOM     18  C   UNL     1      -0.634  12.889  18.969  0.00  0.00    +0.000 C 
ATOM     19  O   UNL     1      -0.654  13.844  18.187  0.00  0.00    +0.000 OA
ATOM     20  N   UNL     1       0.274  12.891  20.031  0.00  0.00    +0.000 N 
BRANCH  18  27
ATOM     21  C   UNL     1      -3.418  12.774  19.899  0.00  0.00    +0.000 C 
ATOM     22  C   UNL     1      -2.855  11.805  18.883  0.00  0.00    +0.000 A 
ATOM     23  C   UNL     1      -3.731  11.042  18.122  0.00  0.00    +0.000 A 
ATOM     24  C   UNL     1      -3.252  10.014  17.290  0.00  0.00    +0.000 A 
ATOM     25  C   UNL     1      -1.886   9.808  17.169  0.00  0.00    +0.000 A 
ATOM     26  C   UNL     1      -1.004  10.708  17.753  0.00  0.00    +0.000 A 
ATOM     27  C   UNL     1      -1.482  11.728  18.587  0.00  0.00    +0.000 A 
ENDBRANCH  18  27
BRANCH  20  28
ATOM     28  C   UNL     1       1.664  13.444  19.605  0.00  0.00    +0.000 C 
ATOM     29  C   UNL     1       2.316  12.613  18.448  0.00  0.00    +0.000 C 
ATOM     30  C   UNL     1       1.649  14.896  19.113  0.00  0.00    +0.000 C 
ATOM     31  C   UNL     1       2.702  13.375  20.776  0.00  0.00    +0.000 C 
ENDBRANCH  20  28
ENDBRANCH   1  20
TORSDOF 4
ENDMDL
MODEL 3
REMARK VINA RESULT:      -7.3      2.797      8.793
REMARK  Name = 
REMARK  10 active torsions:
REMARK  status: ('A' for Active; 'I' for Inactive)
REMARK    1  A    between atoms: C_1  and  C_2
REMARK    2  A    between atoms: C_7  and  C_8
REMARK    3  A    between atoms: N_10  and  N_11
REMARK    4  A    between atoms: N_10  and  C_27
REMARK    5  A    between atoms: C_12  and  C_14
REMARK    6  A    between atoms: C_23  and  C_24
REMARK    7  A    between atoms: C_23  and  C_25
REMARK    8  A    between atoms: C_27  and  C_28
REMARK    9  A    between atoms: C_27  and  C_29
REMARK   10  A    between atoms: C_27  and  C_30
REMARK                            x       y       z     vdW  Elec       q    Type
REMARK                         _______ _______ _______ _____ _____    ______ ____
ROOT
ATOM      1  N   UNL     1       3.086   6.434  18.028  0.00  0.00    +0.000 N 
ATOM      2  C   UNL     1       2.571   7.761  18.050  0.00  0.00    +0.000 C 
ATOM      3  O   UNL     1       3.037   8.513  17.184  0.00  0.00    +0.000 OA
ATOM      4  H   UNL     1       3.752   6.338  17.267  0.00  0.00    +0.000 HD
ENDROOT
BRANCH   2   5
ATOM      5  C   UNL     1       1.499   8.388  18.924  0.00  0.00    +0.000 A 
ATOM      6  C   UNL     1       1.577   8.367  20.353  0.00  0.00    +0.000 A 
ATOM      7  C   UNL     1       0.869   9.322  21.198  0.00  0.00    +0.000 A 
ATOM      8  C   UNL     1       0.068  10.302  20.586  0.00  0.00    +0.000 A 
ATOM      9  C   UNL     1      -0.147  10.072  19.231  0.00  0.00    +0.000 A 
ATOM     10  C   UNL     1       0.518   9.186  18.398  0.00  0.00    +0.000 A 
ATOM     11  C   UNL     1      -0.475  11.324  18.608  0.00  0.00    +0.000 C 
ATOM     12  O   UNL     1      -1.554  11.477  18.072  0.00  0.00    +0.000 OA
ATOM     13  C   UNL     1       0.606  12.280  18.995  0.00  0.00    +0.000 C 
ATOM     14  C   UNL     1       0.083  12.752  20.367  0.00  0.00    +0.000 C 
ATOM     15  C   UNL     1       0.857  13.535  21.457  0.00  0.00    +0.000 C 
ATOM     16  C   UNL     1      -0.787  13.944  19.805  0.00  0.00    +0.000 C 
ATOM     17  O   UNL     1      -0.358  11.509  21.135  0.00  0.00    +0.000 OA
ENDBRANCH   2   5
BRANCH   1  20
ATOM     18  C   UNL     1       4.309   4.721  19.399  0.00  0.00    +0.000 C 
ATOM     19  O   UNL     1       4.272   3.885  20.307  0.00  0.00    +0.000 OA
ATOM     20  N   UNL     1       3.120   5.317  18.967  0.00  0.00    +0.000 N 
BRANCH  18  27
ATOM     21  C   UNL     1       4.701   3.594  16.714  0.00  0.00    +0.000 C 
ATOM     22  C   UNL     1       5.712   4.506  17.374  0.00  0.00    +0.000 A 
ATOM     23  C   UNL     1       6.699   5.095  16.594  0.00  0.00    +0.000 A 
ATOM     24  C   UNL     1       7.754   5.811  17.189  0.00  0.00    +0.000 A 
ATOM     25  C   UNL     1       7.769   5.996  18.564  0.00  0.00    +0.000 A 
ATOM     26  C   UNL     1       6.672   5.602  19.320  0.00  0.00    +0.000 A 
ATOM     27  C   UNL     1       5.626   4.883  18.727  0.00  0.00    +0.000 A 
ENDBRANCH  18  27
BRANCH  20  28
ATOM     28  C   UNL     1       1.951   4.293  18.895  0.00  0.00    +0.000 C 
ATOM     29  C   UNL     1       1.102   4.436  17.586  0.00  0.00    +0.000 C 
ATOM     30  C   UNL     1       2.387   2.824  18.947  0.00  0.00    +0.000 C 
ATOM     31  C   UNL     1       0.923   4.501  20.058  0.00  0.00    +0.000 C 
ENDBRANCH  20  28
ENDBRANCH   1  20
TORSDOF 4
ENDMDL
MODEL 4
REMARK VINA RESULT:      -7.2      3.215      8.935
REMARK  Name = 
REMARK  10 active torsions:
REMARK  status: ('A' for Active; 'I' for Inactive)
REMARK    1  A    between atoms: C_1  and  C_2
REMARK    2  A    between atoms: C_7  and  C_8
REMARK    3  A    between atoms: N_10  and  N_11
REMARK    4  A    between atoms: N_10  and  C_27
REMARK    5  A    between atoms: C_12  and  C_14
REMARK    6  A    between atoms: C_23  and  C_24
REMARK    7  A    between atoms: C_23  and  C_25
REMARK    8  A    between atoms: C_27  and  C_28
REMARK    9  A    between atoms: C_27  and  C_29
REMARK   10  A    between atoms: C_27  and  C_30
REMARK                            x       y       z     vdW  Elec       q    Type
REMARK                         _______ _______ _______ _____ _____    ______ ____
ROOT
ATOM      1  N   UNL     1       2.335   4.453  18.400  0.00  0.00    +0.000 N 
ATOM      2  C   UNL     1       1.813   5.706  17.967  0.00  0.00    +0.000 C 
ATOM      3  O   UNL     1       0.990   5.634  17.045  0.00  0.00    +0.000 OA
ATOM      4  H   UNL     1       1.906   3.702  17.867  0.00  0.00    +0.000 HD
ENDROOT
BRANCH   2   5
ATOM      5  C   UNL     1       2.057   7.109  18.491  0.00  0.00    +0.000 A 
ATOM      6  C   UNL     1       2.114   8.245  17.622  0.00  0.00    +0.000 A 
ATOM      7  C   UNL     1       1.874   9.608  18.083  0.00  0.00    +0.000 A 
ATOM      8  C   UNL     1       1.581   9.819  19.442  0.00  0.00    +0.000 A 
ATOM      9  C   UNL     1       1.810   8.701  20.236  0.00  0.00    +0.000 A 
ATOM     10  C   UNL     1       2.025   7.392  19.831  0.00  0.00    +0.000 A 
ATOM     11  C   UNL     1       1.008   8.819  21.423  0.00  0.00    +0.000 C 
ATOM     12  O   UNL     1       1.536   8.877  22.515  0.00  0.00    +0.000 OA
ATOM     13  C   UNL     1      -0.388   9.077  20.960  0.00  0.00    +0.000 C 
ATOM     14  C   UNL     1      -0.338  10.607  20.763  0.00  0.00    +0.000 C 
ATOM     15  C   UNL     1      -1.364  11.499  20.020  0.00  0.00    +0.000 C 
ATOM     16  C   UNL     1      -0.748  10.971  22.243  0.00  0.00    +0.000 C 
ATOM     17  O   UNL     1       0.949  10.923  20.008  0.00  0.00    +0.000 OA
ENDBRANCH   2   5
BRANCH   1  20
ATOM     18  C   UNL     1       4.810   4.184  18.727  0.00  0.00    +0.000 C 
ATOM     19  O   UNL     1       5.745   3.938  19.495  0.00  0.00    +0.000 OA
ATOM     20  N   UNL     1       3.495   4.022  19.173  0.00  0.00    +0.000 N 
BRANCH  18  27
ATOM     21  C   UNL     1       5.613   6.909  17.978  0.00  0.00    +0.000 C 
ATOM     22  C   UNL     1       5.757   5.728  17.043  0.00  0.00    +0.000 A 
ATOM     23  C   UNL     1       6.576   5.847  15.927  0.00  0.00    +0.000 A 
ATOM     24  C   UNL     1       6.608   4.838  14.948  0.00  0.00    +0.000 A 
ATOM     25  C   UNL     1       5.872   3.677  15.133  0.00  0.00    +0.000 A 
ATOM     26  C   UNL     1       5.230   3.459  16.346  0.00  0.00    +0.000 A 
ATOM     27  C   UNL     1       5.193   4.468  17.318  0.00  0.00    +0.000 A 
ENDBRANCH  18  27
BRANCH  20  28
ATOM     28  C   UNL     1       3.332   2.746  20.048  0.00  0.00    +0.000 C 
ATOM     29  C   UNL     1       2.333   1.712  19.427  0.00  0.00    +0.000 C 
ATOM     30  C   UNL     1       4.633   1.970  20.290  0.00  0.00    +0.000 C 
ATOM     31  C   UNL     1       2.735   3.078  21.456  0.00  0.00    +0.000 C 
ENDBRANCH  20  28
ENDBRANCH   1  20
TORSDOF 4
ENDMDL
MODEL 5
REMARK VINA RESULT:      -7.2      8.275     10.663
REMARK  Name = 
REMARK  10 active torsions:
REMARK  status: ('A' for Active; 'I' for Inactive)
REMARK    1  A    between atoms: C_1  and  C_2
REMARK    2  A    between atoms: C_7  and  C_8
REMARK    3  A    between atoms: N_10  and  N_11
REMARK    4  A    between atoms: N_10  and  C_27
REMARK    5  A    between atoms: C_12  and  C_14
REMARK    6  A    between atoms: C_23  and  C_24
REMARK    7  A    between atoms: C_23  and  C_25
REMARK    8  A    between atoms: C_27  and  C_28
REMARK    9  A    between atoms: C_27  and  C_29
REMARK   10  A    between atoms: C_27  and  C_30
REMARK                            x       y       z     vdW  Elec       q    Type
REMARK                         _______ _______ _______ _____ _____    ______ ____
ROOT
ATOM      1  N   UNL     1       7.715  15.594  18.864  0.00  0.00    +0.000 N 
ATOM      2  C   UNL     1       7.239  15.479  20.201  0.00  0.00    +0.000 C 
ATOM      3  O   UNL     1       6.035  15.730  20.346  0.00  0.00    +0.000 OA
ATOM      4  H   UNL     1       6.948  15.852  18.249  0.00  0.00    +0.000 HD
ENDROOT
BRANCH   2   5
ATOM      5  C   UNL     1       7.953  15.042  21.468  0.00  0.00    +0.000 A 
ATOM      6  C   UNL     1       8.364  15.978  22.469  0.00  0.00    +0.000 A 
ATOM      7  C   UNL     1       8.606  15.599  23.856  0.00  0.00    +0.000 A 
ATOM      8  C   UNL     1       8.438  14.253  24.228  0.00  0.00    +0.000 A 
ATOM      9  C   UNL     1       8.300  13.394  23.142  0.00  0.00    +0.000 A 
ATOM     10  C   UNL     1       8.053  13.722  21.817  0.00  0.00    +0.000 A 
ATOM     11  C   UNL     1       7.615  12.212  23.587  0.00  0.00    +0.000 C 
ATOM     12  O   UNL     1       8.161  11.129  23.524  0.00  0.00    +0.000 OA
ATOM     13  C   UNL     1       6.375  12.680  24.274  0.00  0.00    +0.000 C 
ATOM     14  C   UNL     1       6.929  12.969  25.685  0.00  0.00    +0.000 C 
ATOM     15  C   UNL     1       6.242  13.757  26.828  0.00  0.00    +0.000 C 
ATOM     16  C   UNL     1       6.704  11.510  26.246  0.00  0.00    +0.000 C 
ATOM     17  O   UNL     1       8.228  13.750  25.508  0.00  0.00    +0.000 OA
ENDBRANCH   2   5
BRANCH   1  20
ATOM     18  C   UNL     1       9.876  14.635  18.019  0.00  0.00    +0.000 C 
ATOM     19  O   UNL     1      10.900  14.790  17.346  0.00  0.00    +0.000 OA
ATOM     20  N   UNL     1       9.026  15.723  18.235  0.00  0.00    +0.000 N 
BRANCH  18  27
ATOM     21  C   UNL     1       7.834  12.746  17.076  0.00  0.00    +0.000 C 
ATOM     22  C   UNL     1       8.894  12.366  18.087  0.00  0.00    +0.000 A 
ATOM     23  C   UNL     1       9.127  11.022  18.347  0.00  0.00    +0.000 A 
ATOM     24  C   UNL     1       9.980  10.630  19.395  0.00  0.00    +0.000 A 
ATOM     25  C   UNL     1      10.655  11.595  20.129  0.00  0.00    +0.000 A 
ATOM     26  C   UNL     1      10.597  12.924  19.729  0.00  0.00    +0.000 A 
ATOM     27  C   UNL     1       9.742  13.314  18.689  0.00  0.00    +0.000 A 
ENDBRANCH  18  27
BRANCH  20  28
ATOM     28  C   UNL     1       9.818  17.034  18.505  0.00  0.00    +0.000 C 
ATOM     29  C   UNL     1       8.890  18.228  18.912  0.00  0.00    +0.000 C 
ATOM     30  C   UNL     1      10.866  16.926  19.620  0.00  0.00    +0.000 C 
ATOM     31  C   UNL     1      10.570  17.534  17.226  0.00  0.00    +0.000 C 
ENDBRANCH  20  28
ENDBRANCH   1  20
TORSDOF 4
ENDMDL
MODEL 6
REMARK VINA RESULT:      -7.0      2.002      2.829
REMARK  Name = 
REMARK  10 active torsions:
REMARK  status: ('A' for Active; 'I' for Inactive)
REMARK    1  A    between atoms: C_1  and  C_2
REMARK    2  A    between atoms: C_7  and  C_8
REMARK    3  A    between atoms: N_10  and  N_11
REMARK    4  A    between atoms: N_10  and  C_27
REMARK    5  A    between atoms: C_12  and  C_14
REMARK    6  A    between atoms: C_23  and  C_24
REMARK    7  A    between atoms: C_23  and  C_25
REMARK    8  A    between atoms: C_27  and  C_28
REMARK    9  A    between atoms: C_27  and  C_29
REMARK   10  A    between atoms: C_27  and  C_30
REMARK                            x       y       z     vdW  Elec       q    Type
REMARK                         _______ _______ _______ _____ _____    ______ ____
ROOT
ATOM      1  N   UNL     1       0.850  10.866  18.476  0.00  0.00    +0.000 N 
ATOM      2  C   UNL     1       1.521   9.646  18.179  0.00  0.00    +0.000 C 
ATOM      3  O   UNL     1       1.834   9.503  16.989  0.00  0.00    +0.000 OA
ATOM      4  H   UNL     1       0.765  11.425  17.632  0.00  0.00    +0.000 HD
ENDROOT
BRANCH   2   5
ATOM      5  C   UNL     1       1.967   8.518  19.092  0.00  0.00    +0.000 A 
ATOM      6  C   UNL     1       1.285   8.215  20.313  0.00  0.00    +0.000 A 
ATOM      7  C   UNL     1       1.361   6.909  20.959  0.00  0.00    +0.000 A 
ATOM      8  C   UNL     1       2.144   5.905  20.363  0.00  0.00    +0.000 A 
ATOM      9  C   UNL     1       2.964   6.377  19.343  0.00  0.00    +0.000 A 
ATOM     10  C   UNL     1       2.907   7.604  18.698  0.00  0.00    +0.000 A 
ATOM     11  C   UNL     1       3.283   5.277  18.476  0.00  0.00    +0.000 C 
ATOM     12  O   UNL     1       4.437   4.924  18.334  0.00  0.00    +0.000 OA
ATOM     13  C   UNL     1       1.981   4.651  18.098  0.00  0.00    +0.000 C 
ATOM     14  C   UNL     1       1.759   3.718  19.306  0.00  0.00    +0.000 C 
ATOM     15  C   UNL     1       0.455   2.982  19.707  0.00  0.00    +0.000 C 
ATOM     16  C   UNL     1       2.540   2.486  18.704  0.00  0.00    +0.000 C 
ATOM     17  O   UNL     1       2.052   4.531  20.564  0.00  0.00    +0.000 OA
ENDBRANCH   2   5
BRANCH   1  20
ATOM     18  C   UNL     1      -1.355  11.164  19.640  0.00  0.00    +0.000 C 
ATOM     19  O   UNL     1      -1.963  11.471  20.670  0.00  0.00    +0.000 OA
ATOM     20  N   UNL     1       0.028  11.358  19.577  0.00  0.00    +0.000 N 
BRANCH  18  27
ATOM     21  C   UNL     1      -4.043  12.320  19.374  0.00  0.00    +0.000 C 
ATOM     22  C   UNL     1      -3.398  11.490  18.286  0.00  0.00    +0.000 A 
ATOM     23  C   UNL     1      -3.931  11.529  17.003  0.00  0.00    +0.000 A 
ATOM     24  C   UNL     1      -3.469  10.650  16.006  0.00  0.00    +0.000 A 
ATOM     25  C   UNL     1      -2.419   9.788  16.283  0.00  0.00    +0.000 A 
ATOM     26  C   UNL     1      -1.740   9.901  17.490  0.00  0.00    +0.000 A 
ATOM     27  C   UNL     1      -2.205  10.772  18.485  0.00  0.00    +0.000 A 
ENDBRANCH  18  27
BRANCH  20  28
ATOM     28  C   UNL     1       0.457  12.698  20.241  0.00  0.00    +0.000 C 
ATOM     29  C   UNL     1      -0.194  13.947  19.555  0.00  0.00    +0.000 C 
ATOM     30  C   UNL     1       0.105  12.813  21.729  0.00  0.00    +0.000 C 
ATOM     31  C   UNL     1       1.999  12.939  20.121  0.00  0.00    +0.000 C 
ENDBRANCH  20  28
ENDBRANCH   1  20
TORSDOF 4
ENDMDL
MODEL 7
REMARK VINA RESULT:      -6.9      3.006      8.680
REMARK  Name = 
REMARK  10 active torsions:
REMARK  status: ('A' for Active; 'I' for Inactive)
REMARK    1  A    between atoms: C_1  and  C_2
REMARK    2  A    between atoms: C_7  and  C_8
REMARK    3  A    between atoms: N_10  and  N_11
REMARK    4  A    between atoms: N_10  and  C_27
REMARK    5  A    between atoms: C_12  and  C_14
REMARK    6  A    between atoms: C_23  and  C_24
REMARK    7  A    between atoms: C_23  and  C_25
REMARK    8  A    between atoms: C_27  and  C_28
REMARK    9  A    between atoms: C_27  and  C_29
REMARK   10  A    between atoms: C_27  and  C_30
REMARK                            x       y       z     vdW  Elec       q    Type
REMARK                         _______ _______ _______ _____ _____    ______ ____
ROOT
ATOM      1  N   UNL     1       2.230   4.539  18.650  0.00  0.00    +0.000 N 
ATOM      2  C   UNL     1       1.761   5.778  18.127  0.00  0.00    +0.000 C 
ATOM      3  O   UNL     1       0.982   5.675  17.170  0.00  0.00    +0.000 OA
ATOM      4  H   UNL     1       1.810   3.770  18.136  0.00  0.00    +0.000 HD
ENDROOT
BRANCH   2   5
ATOM      5  C   UNL     1       2.014   7.202  18.589  0.00  0.00    +0.000 A 
ATOM      6  C   UNL     1       2.044   8.302  17.674  0.00  0.00    +0.000 A 
ATOM      7  C   UNL     1       1.810   9.682  18.087  0.00  0.00    +0.000 A 
ATOM      8  C   UNL     1       1.552   9.946  19.444  0.00  0.00    +0.000 A 
ATOM      9  C   UNL     1       1.806   8.860  20.275  0.00  0.00    +0.000 A 
ATOM     10  C   UNL     1       2.015   7.537  19.916  0.00  0.00    +0.000 A 
ATOM     11  C   UNL     1       1.035   9.023  21.477  0.00  0.00    +0.000 C 
ATOM     12  O   UNL     1       1.590   9.126  22.552  0.00  0.00    +0.000 OA
ATOM     13  C   UNL     1      -0.374   9.259  21.040  0.00  0.00    +0.000 C 
ATOM     14  C   UNL     1      -0.335  10.780  20.783  0.00  0.00    +0.000 C 
ATOM     15  C   UNL     1      -1.383  11.640  20.032  0.00  0.00    +0.000 C 
ATOM     16  C   UNL     1      -0.707  11.202  22.257  0.00  0.00    +0.000 C 
ATOM     17  O   UNL     1       0.932  11.070  19.983  0.00  0.00    +0.000 OA
ENDBRANCH   2   5
BRANCH   1  20
ATOM     18  C   UNL     1       4.665   4.500  19.261  0.00  0.00    +0.000 C 
ATOM     19  O   UNL     1       5.530   4.242  20.104  0.00  0.00    +0.000 OA
ATOM     20  N   UNL     1       3.341   4.124  19.501  0.00  0.00    +0.000 N 
BRANCH  18  27
ATOM     21  C   UNL     1       4.817   2.733  16.919  0.00  0.00    +0.000 C 
ATOM     22  C   UNL     1       5.039   4.228  16.832  0.00  0.00    +0.000 A 
ATOM     23  C   UNL     1       4.998   4.845  15.588  0.00  0.00    +0.000 A 
ATOM     24  C   UNL     1       5.363   6.195  15.443  0.00  0.00    +0.000 A 
ATOM     25  C   UNL     1       5.696   6.941  16.564  0.00  0.00    +0.000 A 
ATOM     26  C   UNL     1       5.524   6.391  17.828  0.00  0.00    +0.000 A 
ATOM     27  C   UNL     1       5.167   5.044  17.971  0.00  0.00    +0.000 A 
ENDBRANCH  18  27
BRANCH  20  28
ATOM     28  C   UNL     1       3.246   2.716  20.156  0.00  0.00    +0.000 C 
ATOM     29  C   UNL     1       2.311   1.742  19.362  0.00  0.00    +0.000 C 
ATOM     30  C   UNL     1       4.588   1.985  20.289  0.00  0.00    +0.000 C 
ATOM     31  C   UNL     1       2.624   2.782  21.591  0.00  0.00    +0.000 C 
ENDBRANCH  20  28
ENDBRANCH   1  20
TORSDOF 4
ENDMDL
MODEL 8
REMARK VINA RESULT:      -6.8      2.872      8.851
REMARK  Name = 
REMARK  10 active torsions:
REMARK  status: ('A' for Active; 'I' for Inactive)
REMARK    1  A    between atoms: C_1  and  C_2
REMARK    2  A    between atoms: C_7  and  C_8
REMARK    3  A    between atoms: N_10  and  N_11
REMARK    4  A    between atoms: N_10  and  C_27
REMARK    5  A    between atoms: C_12  and  C_14
REMARK    6  A    between atoms: C_23  and  C_24
REMARK    7  A    between atoms: C_23  and  C_25
REMARK    8  A    between atoms: C_27  and  C_28
REMARK    9  A    between atoms: C_27  and  C_29
REMARK   10  A    between atoms: C_27  and  C_30
REMARK                            x       y       z     vdW  Elec       q    Type
REMARK                         _______ _______ _______ _____ _____    ______ ____
ROOT
ATOM      1  N   UNL     1       2.938   6.802  17.979  0.00  0.00    +0.000 N 
ATOM      2  C   UNL     1       2.311   8.072  18.131  0.00  0.00    +0.000 C 
ATOM      3  O   UNL     1       2.523   8.869  17.207  0.00  0.00    +0.000 OA
ATOM      4  H   UNL     1       3.448   6.776  17.100  0.00  0.00    +0.000 HD
ENDROOT
BRANCH   2   5
ATOM      5  C   UNL     1       1.376   8.587  19.210  0.00  0.00    +0.000 A 
ATOM      6  C   UNL     1       1.762   8.636  20.588  0.00  0.00    +0.000 A 
ATOM      7  C   UNL     1       1.127   9.523  21.557  0.00  0.00    +0.000 A 
ATOM      8  C   UNL     1       0.085  10.362  21.123  0.00  0.00    +0.000 A 
ATOM      9  C   UNL     1      -0.382  10.049  19.851  0.00  0.00    +0.000 A 
ATOM     10  C   UNL     1       0.205   9.225  18.902  0.00  0.00    +0.000 A 
ATOM     11  C   UNL     1      -1.007  11.220  19.299  0.00  0.00    +0.000 C 
ATOM     12  O   UNL     1      -2.186  11.206  19.011  0.00  0.00    +0.000 OA
ATOM     13  C   UNL     1      -0.011  12.325  19.430  0.00  0.00    +0.000 C 
ATOM     14  C   UNL     1      -0.287  12.780  20.878  0.00  0.00    +0.000 C 
ATOM     15  C   UNL     1       0.588  13.703  21.763  0.00  0.00    +0.000 C 
ATOM     16  C   UNL     1      -1.414  13.822  20.506  0.00  0.00    +0.000 C 
ATOM     17  O   UNL     1      -0.376  11.523  21.737  0.00  0.00    +0.000 OA
ENDBRANCH   2   5
BRANCH   1  20
ATOM     18  C   UNL     1       4.477   5.000  18.810  0.00  0.00    +0.000 C 
ATOM     19  O   UNL     1       4.746   4.175  19.688  0.00  0.00    +0.000 OA
ATOM     20  N   UNL     1       3.263   5.691  18.868  0.00  0.00    +0.000 N 
BRANCH  18  27
ATOM     21  C   UNL     1       7.293   5.687  19.287  0.00  0.00    +0.000 C 
ATOM     22  C   UNL     1       6.789   5.183  17.952  0.00  0.00    +0.000 A 
ATOM     23  C   UNL     1       7.706   4.723  17.015  0.00  0.00    +0.000 A 
ATOM     24  C   UNL     1       7.298   4.405  15.707  0.00  0.00    +0.000 A 
ATOM     25  C   UNL     1       5.955   4.479  15.369  0.00  0.00    +0.000 A 
ATOM     26  C   UNL     1       5.012   4.723  16.359  0.00  0.00    +0.000 A 
ATOM     27  C   UNL     1       5.420   5.046  17.660  0.00  0.00    +0.000 A 
ENDBRANCH  18  27
BRANCH  20  28
ATOM     28  C   UNL     1       2.091   4.770  19.311  0.00  0.00    +0.000 C 
ATOM     29  C   UNL     1       2.574   3.345  19.747  0.00  0.00    +0.000 C 
ATOM     30  C   UNL     1       1.270   5.307  20.490  0.00  0.00    +0.000 C 
ATOM     31  C   UNL     1       1.084   4.506  18.142  0.00  0.00    +0.000 C 
ENDBRANCH  20  28
ENDBRANCH   1  20
TORSDOF 4
ENDMDL
MODEL 9
REMARK VINA RESULT:      -6.8      3.554      7.719
REMARK  Name = 
REMARK  10 active torsions:
REMARK  status: ('A' for Active; 'I' for Inactive)
REMARK    1  A    between atoms: C_1  and  C_2
REMARK    2  A    between atoms: C_7  and  C_8
REMARK    3  A    between atoms: N_10  and  N_11
REMARK    4  A    between atoms: N_10  and  C_27
REMARK    5  A    between atoms: C_12  and  C_14
REMARK    6  A    between atoms: C_23  and  C_24
REMARK    7  A    between atoms: C_23  and  C_25
REMARK    8  A    between atoms: C_27  and  C_28
REMARK    9  A    between atoms: C_27  and  C_29
REMARK   10  A    between atoms: C_27  and  C_30
REMARK                            x       y       z     vdW  Elec       q    Type
REMARK                         _______ _______ _______ _____ _____    ______ ____
ROOT
ATOM      1  N   UNL     1      -0.878  10.051  19.387  0.00  0.00    +0.000 N 
ATOM      2  C   UNL     1      -1.787  10.324  18.326  0.00  0.00    +0.000 C 
ATOM      3  O   UNL     1      -1.526   9.752  17.260  0.00  0.00    +0.000 OA
ATOM      4  H   UNL     1      -0.166   9.399  19.069  0.00  0.00    +0.000 HD
ENDROOT
BRANCH   2   5
ATOM      5  C   UNL     1      -3.058  11.154  18.306  0.00  0.00    +0.000 A 
ATOM      6  C   UNL     1      -4.277  10.662  17.740  0.00  0.00    +0.000 A 
ATOM      7  C   UNL     1      -5.588  11.189  18.103  0.00  0.00    +0.000 A 
ATOM      8  C   UNL     1      -5.660  12.231  19.043  0.00  0.00    +0.000 A 
ATOM      9  C   UNL     1      -4.425  12.806  19.325  0.00  0.00    +0.000 A 
ATOM     10  C   UNL     1      -3.164  12.323  19.009  0.00  0.00    +0.000 A 
ATOM     11  C   UNL     1      -4.503  13.431  20.617  0.00  0.00    +0.000 C 
ATOM     12  O   UNL     1      -4.339  14.629  20.728  0.00  0.00    +0.000 OA
ATOM     13  C   UNL     1      -5.025  12.391  21.553  0.00  0.00    +0.000 C 
ATOM     14  C   UNL     1      -6.542  12.538  21.318  0.00  0.00    +0.000 C 
ATOM     15  C   UNL     1      -7.667  11.566  21.756  0.00  0.00    +0.000 C 
ATOM     16  C   UNL     1      -6.766  13.654  22.412  0.00  0.00    +0.000 C 
ATOM     17  O   UNL     1      -6.761  12.603  19.810  0.00  0.00    +0.000 OA
ENDBRANCH   2   5
BRANCH   1  20
ATOM     18  C   UNL     1       0.054  11.931  20.767  0.00  0.00    +0.000 C 
ATOM     19  O   UNL     1       0.158  12.466  21.875  0.00  0.00    +0.000 OA
ATOM     20  N   UNL     1      -0.555  10.677  20.666  0.00  0.00    +0.000 N 
BRANCH  18  27
ATOM     21  C   UNL     1      -0.741  14.660  20.027  0.00  0.00    +0.000 C 
ATOM     22  C   UNL     1       0.488  13.985  19.460  0.00  0.00    +0.000 A 
ATOM     23  C   UNL     1       1.450  14.759  18.824  0.00  0.00    +0.000 A 
ATOM     24  C   UNL     1       2.521  14.155  18.139  0.00  0.00    +0.000 A 
ATOM     25  C   UNL     1       2.660  12.776  18.160  0.00  0.00    +0.000 A 
ATOM     26  C   UNL     1       1.830  12.017  18.976  0.00  0.00    +0.000 A 
ATOM     27  C   UNL     1       0.760  12.618  19.653  0.00  0.00    +0.000 A 
ENDBRANCH  18  27
BRANCH  20  28
ATOM     28  C   UNL     1      -0.143   9.736  21.834  0.00  0.00    +0.000 C 
ATOM     29  C   UNL     1      -0.614   8.258  21.614  0.00  0.00    +0.000 C 
ATOM     30  C   UNL     1       1.368   9.655  22.084  0.00  0.00    +0.000 C 
ATOM     31  C   UNL     1      -0.802  10.165  23.188  0.00  0.00    +0.000 C 
ENDBRANCH  20  28
ENDBRANCH   1  20
TORSDOF 4
ENDMDL
